MODEL 1
REMARK VINA RESULT:      -7.7      0.000      0.000
REMARK  Name = 
REMARK  10 active torsions:
REMARK  status: ('A' for Active; 'I' for Inactive)
REMARK    1  A    between atoms: C_1  and  O_2
REMARK    2  A    between atoms: O_2  and  C_3
REMARK    3  A    between atoms: C_3  and  C_5
REMARK    4  A    between atoms: C_5  and  C_15
REMARK    5  A    between atoms: C_6  and  C_7
REMARK    6  A    between atoms: C_10  and  O_11
REMARK    7  A    between atoms: O_11  and  C_12
REMARK    8  A    between atoms: C_15  and  S_16
REMARK    9  A    between atoms: S_16  and  C_17
REMARK   10  A    between atoms: N_19  and  C_20
REMARK                            x       y       z     vdW  Elec       q    Type
REMARK                         _______ _______ _______ _____ _____    ______ ____
ROOT
ATOM      1  C   UNL     1       4.017   5.490  18.312  0.00  0.00    +0.000 C 
ATOM      2  C   UNL     1       2.821   5.851  18.841  0.00  0.00    +0.000 C 
ENDROOT
BRANCH   2   3
ATOM      3  C   UNL     1       2.309   7.220  18.979  0.00  0.00    +0.000 A 
ATOM      4  C   UNL     1       2.244   8.036  17.845  0.00  0.00    +0.000 A 
ATOM      5  C   UNL     1       1.687   9.310  17.924  0.00  0.00    +0.000 A 
ATOM      6  C   UNL     1       1.170   9.789  19.149  0.00  0.00    +0.000 A 
ATOM      7  C   UNL     1       1.241   8.965  20.282  0.00  0.00    +0.000 A 
ATOM      8  C   UNL     1       1.799   7.684  20.198  0.00  0.00    +0.000 A 
BRANCH   6   9
ATOM      9  O   UNL     1       0.601  11.017  19.271  0.00  0.00    +0.000 OA
ATOM     10  C   UNL     1      -0.588  11.405  18.682  0.00  0.00    +0.000 C 
ENDBRANCH   6   9
ENDBRANCH   2   3
BRANCH   1  11
ATOM     11  C   UNL     1       4.305   4.027  18.196  0.00  0.00    +0.000 C 
ATOM     12  O   UNL     1       4.073   3.433  17.151  0.00  0.00    +0.000 OA
BRANCH  11  14
ATOM     13  C   UNL     1       4.114   2.381  19.971  0.00  0.00    +0.000 C 
ATOM     14  O   UNL     1       4.797   3.351  19.271  0.00  0.00    +0.000 OA
ENDBRANCH  11  14
ENDBRANCH   1  11
BRANCH   1  15
ATOM     15  C   UNL     1       5.032   6.508  17.787  0.00  0.00    +0.000 C 
BRANCH  15  16
ATOM     16  S   UNL     1       6.718   6.108  18.358  0.00  0.00    +0.000 S 
BRANCH  16  17
ATOM     17  C   UNL     1       7.315   5.236  16.884  0.00  0.00    +0.000 C 
ATOM     18  N   UNL     1       7.954   4.125  16.995  0.00  0.00    +0.000 NA
ATOM     19  N   UNL     1       7.041   5.783  15.591  0.00  0.00    +0.000 N 
ATOM     20  H   UNL     1       8.172   3.716  17.913  0.00  0.00    +0.000 HD
ATOM     21  H   UNL     1       6.921   6.804  15.520  0.00  0.00    +0.000 HD
BRANCH  19  22
ATOM     22  C   UNL     1       6.844   5.004  14.406  0.00  0.00    +0.000 A 
ATOM     23  C   UNL     1       5.738   4.139  14.262  0.00  0.00    +0.000 A 
ATOM     24  C   UNL     1       5.527   3.444  13.065  0.00  0.00    +0.000 A 
ATOM     25  C   UNL     1       6.422   3.586  12.004  0.00  0.00    +0.000 A 
ATOM     26  C   UNL     1       7.527   4.431  12.132  0.00  0.00    +0.000 A 
ATOM     27  C   UNL     1       7.731   5.146  13.321  0.00  0.00    +0.000 A 
ENDBRANCH  19  22
ENDBRANCH  16  17
ENDBRANCH  15  16
ENDBRANCH   1  15
TORSDOF 8
ENDMDL
MODEL 2
REMARK VINA RESULT:      -7.4      0.686      1.180
REMARK  Name = 
REMARK  10 active torsions:
REMARK  status: ('A' for Active; 'I' for Inactive)
REMARK    1  A    between atoms: C_1  and  O_2
REMARK    2  A    between atoms: O_2  and  C_3
REMARK    3  A    between atoms: C_3  and  C_5
REMARK    4  A    between atoms: C_5  and  C_15
REMARK    5  A    between atoms: C_6  and  C_7
REMARK    6  A    between atoms: C_10  and  O_11
REMARK    7  A    between atoms: O_11  and  C_12
REMARK    8  A    between atoms: C_15  and  S_16
REMARK    9  A    between atoms: S_16  and  C_17
REMARK   10  A    between atoms: N_19  and  C_20
REMARK                            x       y       z     vdW  Elec       q    Type
REMARK                         _______ _______ _______ _____ _____    ______ ____
ROOT
ATOM      1  C   UNL     1       3.564   5.310  18.163  0.00  0.00    +0.000 C 
ATOM      2  C   UNL     1       2.377   5.783  18.617  0.00  0.00    +0.000 C 
ENDROOT
BRANCH   2   3
ATOM      3  C   UNL     1       2.059   7.183  18.923  0.00  0.00    +0.000 A 
ATOM      4  C   UNL     1       2.010   8.111  17.877  0.00  0.00    +0.000 A 
ATOM      5  C   UNL     1       1.631   9.429  18.121  0.00  0.00    +0.000 A 
ATOM      6  C   UNL     1       1.279   9.842  19.425  0.00  0.00    +0.000 A 
ATOM      7  C   UNL     1       1.331   8.906  20.469  0.00  0.00    +0.000 A 
ATOM      8  C   UNL     1       1.711   7.582  20.220  0.00  0.00    +0.000 A 
BRANCH   6   9
ATOM      9  O   UNL     1       0.884  11.111  19.707  0.00  0.00    +0.000 OA
ATOM     10  C   UNL     1       0.243  11.507  20.866  0.00  0.00    +0.000 C 
ENDBRANCH   6   9
ENDBRANCH   2   3
BRANCH   1  11
ATOM     11  C   UNL     1       3.646   3.852  17.840  0.00  0.00    +0.000 C 
ATOM     12  O   UNL     1       3.942   3.486  16.710  0.00  0.00    +0.000 OA
BRANCH  11  14
ATOM     13  C   UNL     1       4.034   2.802  19.995  0.00  0.00    +0.000 C 
ATOM     14  O   UNL     1       3.357   2.932  18.802  0.00  0.00    +0.000 OA
ENDBRANCH  11  14
ENDBRANCH   1  11
BRANCH   1  15
ATOM     15  C   UNL     1       4.777   6.211  17.919  0.00  0.00    +0.000 C 
BRANCH  15  16
ATOM     16  S   UNL     1       6.300   5.455  18.580  0.00  0.00    +0.000 S 
BRANCH  16  17
ATOM     17  C   UNL     1       7.102   5.022  17.011  0.00  0.00    +0.000 C 
ATOM     18  N   UNL     1       8.011   4.113  16.971  0.00  0.00    +0.000 NA
ATOM     19  N   UNL     1       6.691   5.683  15.812  0.00  0.00    +0.000 N 
ATOM     20  H   UNL     1       8.331   3.629  17.821  0.00  0.00    +0.000 HD
ATOM     21  H   UNL     1       6.307   6.635  15.899  0.00  0.00    +0.000 HD
BRANCH  19  22
ATOM     22  C   UNL     1       6.704   5.084  14.510  0.00  0.00    +0.000 A 
ATOM     23  C   UNL     1       7.686   5.413  13.552  0.00  0.00    +0.000 A 
ATOM     24  C   UNL     1       7.722   4.759  12.315  0.00  0.00    +0.000 A 
ATOM     25  C   UNL     1       6.771   3.785  12.007  0.00  0.00    +0.000 A 
ATOM     26  C   UNL     1       5.787   3.454  12.941  0.00  0.00    +0.000 A 
ATOM     27  C   UNL     1       5.759   4.089  14.190  0.00  0.00    +0.000 A 
ENDBRANCH  19  22
ENDBRANCH  16  17
ENDBRANCH  15  16
ENDBRANCH   1  15
TORSDOF 8
ENDMDL
MODEL 3
REMARK VINA RESULT:      -7.3      0.807      1.017
REMARK  Name = 
REMARK  10 active torsions:
REMARK  status: ('A' for Active; 'I' for Inactive)
REMARK    1  A    between atoms: C_1  and  O_2
REMARK    2  A    between atoms: O_2  and  C_3
REMARK    3  A    between atoms: C_3  and  C_5
REMARK    4  A    between atoms: C_5  and  C_15
REMARK    5  A    between atoms: C_6  and  C_7
REMARK    6  A    between atoms: C_10  and  O_11
REMARK    7  A    between atoms: O_11  and  C_12
REMARK    8  A    between atoms: C_15  and  S_16
REMARK    9  A    between atoms: S_16  and  C_17
REMARK   10  A    between atoms: N_19  and  C_20
REMARK                            x       y       z     vdW  Elec       q    Type
REMARK                         _______ _______ _______ _____ _____    ______ ____
ROOT
ATOM      1  C   UNL     1       3.757   5.327  18.939  0.00  0.00    +0.000 C 
ATOM      2  C   UNL     1       2.568   5.856  19.320  0.00  0.00    +0.000 C 
ENDROOT
BRANCH   2   3
ATOM      3  C   UNL     1       2.173   7.267  19.221  0.00  0.00    +0.000 A 
ATOM      4  C   UNL     1       2.213   7.895  17.973  0.00  0.00    +0.000 A 
ATOM      5  C   UNL     1       1.766   9.207  17.829  0.00  0.00    +0.000 A 
ATOM      6  C   UNL     1       1.256   9.914  18.941  0.00  0.00    +0.000 A 
ATOM      7  C   UNL     1       1.220   9.277  20.190  0.00  0.00    +0.000 A 
ATOM      8  C   UNL     1       1.668   7.958  20.330  0.00  0.00    +0.000 A 
BRANCH   6   9
ATOM      9  O   UNL     1       0.792  11.188  18.845  0.00  0.00    +0.000 OA
ATOM     10  C   UNL     1       0.645  12.063  19.903  0.00  0.00    +0.000 C 
ENDBRANCH   6   9
ENDBRANCH   2   3
BRANCH   1  11
ATOM     11  C   UNL     1       3.920   3.845  19.056  0.00  0.00    +0.000 C 
ATOM     12  O   UNL     1       4.057   3.324  20.156  0.00  0.00    +0.000 OA
BRANCH  11  14
ATOM     13  C   UNL     1       3.433   1.805  17.832  0.00  0.00    +0.000 C 
ATOM     14  O   UNL     1       3.947   3.079  17.930  0.00  0.00    +0.000 OA
ENDBRANCH  11  14
ENDBRANCH   1  11
BRANCH   1  15
ATOM     15  C   UNL     1       4.890   6.171  18.349  0.00  0.00    +0.000 C 
BRANCH  15  16
ATOM     16  S   UNL     1       6.517   5.577  18.920  0.00  0.00    +0.000 S 
BRANCH  16  17
ATOM     17  C   UNL     1       7.207   5.068  17.321  0.00  0.00    +0.000 C 
ATOM     18  N   UNL     1       8.113   4.157  17.261  0.00  0.00    +0.000 NA
ATOM     19  N   UNL     1       6.711   5.672  16.124  0.00  0.00    +0.000 N 
ATOM     20  H   UNL     1       8.493   3.714  18.108  0.00  0.00    +0.000 HD
ATOM     21  H   UNL     1       6.332   6.627  16.192  0.00  0.00    +0.000 HD
BRANCH  19  22
ATOM     22  C   UNL     1       6.633   5.011  14.855  0.00  0.00    +0.000 A 
ATOM     23  C   UNL     1       5.612   4.080  14.565  0.00  0.00    +0.000 A 
ATOM     24  C   UNL     1       5.513   3.505  13.293  0.00  0.00    +0.000 A 
ATOM     25  C   UNL     1       6.437   3.831  12.300  0.00  0.00    +0.000 A 
ATOM     26  C   UNL     1       7.459   4.743  12.573  0.00  0.00    +0.000 A 
ATOM     27  C   UNL     1       7.550   5.340  13.838  0.00  0.00    +0.000 A 
ENDBRANCH  19  22
ENDBRANCH  16  17
ENDBRANCH  15  16
ENDBRANCH   1  15
TORSDOF 8
ENDMDL
MODEL 4
REMARK VINA RESULT:      -7.2      2.838      3.980
REMARK  Name = 
REMARK  10 active torsions:
REMARK  status: ('A' for Active; 'I' for Inactive)
REMARK    1  A    between atoms: C_1  and  O_2
REMARK    2  A    between atoms: O_2  and  C_3
REMARK    3  A    between atoms: C_3  and  C_5
REMARK    4  A    between atoms: C_5  and  C_15
REMARK    5  A    between atoms: C_6  and  C_7
REMARK    6  A    between atoms: C_10  and  O_11
REMARK    7  A    between atoms: O_11  and  C_12
REMARK    8  A    between atoms: C_15  and  S_16
REMARK    9  A    between atoms: S_16  and  C_17
REMARK   10  A    between atoms: N_19  and  C_20
REMARK                            x       y       z     vdW  Elec       q    Type
REMARK                         _______ _______ _______ _____ _____    ______ ____
ROOT
ATOM      1  C   UNL     1       1.859   3.897  20.774  0.00  0.00    +0.000 C 
ATOM      2  C   UNL     1       2.462   5.087  21.016  0.00  0.00    +0.000 C 
ENDROOT
BRANCH   2   3
ATOM      3  C   UNL     1       2.252   6.336  20.272  0.00  0.00    +0.000 A 
ATOM      4  C   UNL     1       2.714   6.425  18.955  0.00  0.00    +0.000 A 
ATOM      5  C   UNL     1       2.460   7.563  18.195  0.00  0.00    +0.000 A 
ATOM      6  C   UNL     1       1.721   8.637  18.740  0.00  0.00    +0.000 A 
ATOM      7  C   UNL     1       1.262   8.540  20.062  0.00  0.00    +0.000 A 
ATOM      8  C   UNL     1       1.518   7.394  20.823  0.00  0.00    +0.000 A 
BRANCH   6   9
ATOM      9  O   UNL     1       1.431   9.759  18.030  0.00  0.00    +0.000 OA
ATOM     10  C   UNL     1       0.481  10.700  18.380  0.00  0.00    +0.000 C 
ENDBRANCH   6   9
ENDBRANCH   2   3
BRANCH   1  11
ATOM     11  C   UNL     1       2.161   2.769  21.708  0.00  0.00    +0.000 C 
ATOM     12  O   UNL     1       1.260   2.232  22.339  0.00  0.00    +0.000 OA
BRANCH  11  14
ATOM     13  C   UNL     1       4.255   1.860  20.881  0.00  0.00    +0.000 C 
ATOM     14  O   UNL     1       3.450   2.364  21.879  0.00  0.00    +0.000 OA
ENDBRANCH  11  14
ENDBRANCH   1  11
BRANCH   1  15
ATOM     15  C   UNL     1       0.855   3.693  19.637  0.00  0.00    +0.000 C 
BRANCH  15  16
ATOM     16  S   UNL     1       1.293   2.237  18.629  0.00  0.00    +0.000 S 
BRANCH  16  17
ATOM     17  C   UNL     1       2.524   3.007  17.542  0.00  0.00    +0.000 C 
ATOM     18  N   UNL     1       2.154   3.730  16.544  0.00  0.00    +0.000 NA
ATOM     19  N   UNL     1       3.914   2.826  17.825  0.00  0.00    +0.000 N 
ATOM     20  H   UNL     1       1.161   3.868  16.314  0.00  0.00    +0.000 HD
ATOM     21  H   UNL     1       4.193   1.967  18.319  0.00  0.00    +0.000 HD
BRANCH  19  22
ATOM     22  C   UNL     1       4.932   3.792  17.537  0.00  0.00    +0.000 A 
ATOM     23  C   UNL     1       5.283   4.127  16.212  0.00  0.00    +0.000 A 
ATOM     24  C   UNL     1       6.228   5.128  15.957  0.00  0.00    +0.000 A 
ATOM     25  C   UNL     1       6.849   5.795  17.014  0.00  0.00    +0.000 A 
ATOM     26  C   UNL     1       6.520   5.468  18.332  0.00  0.00    +0.000 A 
ATOM     27  C   UNL     1       5.559   4.482  18.593  0.00  0.00    +0.000 A 
ENDBRANCH  19  22
ENDBRANCH  16  17
ENDBRANCH  15  16
ENDBRANCH   1  15
TORSDOF 8
ENDMDL
MODEL 5
REMARK VINA RESULT:      -7.2      1.182      1.374
REMARK  Name = 
REMARK  10 active torsions:
REMARK  status: ('A' for Active; 'I' for Inactive)
REMARK    1  A    between atoms: C_1  and  O_2
REMARK    2  A    between atoms: O_2  and  C_3
REMARK    3  A    between atoms: C_3  and  C_5
REMARK    4  A    between atoms: C_5  and  C_15
REMARK    5  A    between atoms: C_6  and  C_7
REMARK    6  A    between atoms: C_10  and  O_11
REMARK    7  A    between atoms: O_11  and  C_12
REMARK    8  A    between atoms: C_15  and  S_16
REMARK    9  A    between atoms: S_16  and  C_17
REMARK   10  A    between atoms: N_19  and  C_20
REMARK                            x       y       z     vdW  Elec       q    Type
REMARK                         _______ _______ _______ _____ _____    ______ ____
ROOT
ATOM      1  C   UNL     1       3.398   4.593  19.344  0.00  0.00    +0.000 C 
ATOM      2  C   UNL     1       2.515   5.453  19.908  0.00  0.00    +0.000 C 
ENDROOT
BRANCH   2   3
ATOM      3  C   UNL     1       2.272   6.843  19.498  0.00  0.00    +0.000 A 
ATOM      4  C   UNL     1       2.525   7.212  18.173  0.00  0.00    +0.000 A 
ATOM      5  C   UNL     1       2.228   8.499  17.731  0.00  0.00    +0.000 A 
ATOM      6  C   UNL     1       1.656   9.444  18.613  0.00  0.00    +0.000 A 
ATOM      7  C   UNL     1       1.406   9.065  19.941  0.00  0.00    +0.000 A 
ATOM      8  C   UNL     1       1.704   7.770  20.381  0.00  0.00    +0.000 A 
BRANCH   6   9
ATOM      9  O   UNL     1       1.331  10.704  18.222  0.00  0.00    +0.000 OA
ATOM     10  C   UNL     1       2.162  11.804  18.313  0.00  0.00    +0.000 C 
ENDBRANCH   6   9
ENDBRANCH   2   3
BRANCH   1  11
ATOM     11  C   UNL     1       3.428   3.193  19.870  0.00  0.00    +0.000 C 
ATOM     12  O   UNL     1       3.771   2.268  19.145  0.00  0.00    +0.000 OA
BRANCH  11  14
ATOM     13  C   UNL     1       1.788   2.508  21.525  0.00  0.00    +0.000 C 
ATOM     14  O   UNL     1       3.039   2.948  21.152  0.00  0.00    +0.000 OA
ENDBRANCH  11  14
ENDBRANCH   1  11
BRANCH   1  15
ATOM     15  C   UNL     1       4.304   4.983  18.173  0.00  0.00    +0.000 C 
BRANCH  15  16
ATOM     16  S   UNL     1       5.995   5.354  18.747  0.00  0.00    +0.000 S 
BRANCH  16  17
ATOM     17  C   UNL     1       6.892   5.034  17.202  0.00  0.00    +0.000 C 
ATOM     18  N   UNL     1       7.930   4.274  17.194  0.00  0.00    +0.000 NA
ATOM     19  N   UNL     1       6.414   5.614  15.985  0.00  0.00    +0.000 N 
ATOM     20  H   UNL     1       8.299   3.853  18.057  0.00  0.00    +0.000 HD
ATOM     21  H   UNL     1       5.888   6.497  16.051  0.00  0.00    +0.000 HD
BRANCH  19  22
ATOM     22  C   UNL     1       6.550   5.012  14.692  0.00  0.00    +0.000 A 
ATOM     23  C   UNL     1       5.620   4.063  14.216  0.00  0.00    +0.000 A 
ATOM     24  C   UNL     1       5.732   3.545  12.920  0.00  0.00    +0.000 A 
ATOM     25  C   UNL     1       6.779   3.948  12.090  0.00  0.00    +0.000 A 
ATOM     26  C   UNL     1       7.712   4.881  12.549  0.00  0.00    +0.000 A 
ATOM     27  C   UNL     1       7.593   5.419  13.838  0.00  0.00    +0.000 A 
ENDBRANCH  19  22
ENDBRANCH  16  17
ENDBRANCH  15  16
ENDBRANCH   1  15
TORSDOF 8
ENDMDL
MODEL 6
REMARK VINA RESULT:      -7.1      1.013      1.610
REMARK  Name = 
REMARK  10 active torsions:
REMARK  status: ('A' for Active; 'I' for Inactive)
REMARK    1  A    between atoms: C_1  and  O_2
REMARK    2  A    between atoms: O_2  and  C_3
REMARK    3  A    between atoms: C_3  and  C_5
REMARK    4  A    between atoms: C_5  and  C_15
REMARK    5  A    between atoms: C_6  and  C_7
REMARK    6  A    between atoms: C_10  and  O_11
REMARK    7  A    between atoms: O_11  and  C_12
REMARK    8  A    between atoms: C_15  and  S_16
REMARK    9  A    between atoms: S_16  and  C_17
REMARK   10  A    between atoms: N_19  and  C_20
REMARK                            x       y       z     vdW  Elec       q    Type
REMARK                         _______ _______ _______ _____ _____    ______ ____
ROOT
ATOM      1  C   UNL     1       4.153   4.911  19.244  0.00  0.00    +0.000 C 
ATOM      2  C   UNL     1       2.868   5.345  19.199  0.00  0.00    +0.000 C 
ENDROOT
BRANCH   2   3
ATOM      3  C   UNL     1       2.424   6.744  19.169  0.00  0.00    +0.000 A 
ATOM      4  C   UNL     1       2.454   7.439  17.956  0.00  0.00    +0.000 A 
ATOM      5  C   UNL     1       1.962   8.739  17.876  0.00  0.00    +0.000 A 
ATOM      6  C   UNL     1       1.415   9.369  19.017  0.00  0.00    +0.000 A 
ATOM      7  C   UNL     1       1.389   8.665  20.230  0.00  0.00    +0.000 A 
ATOM      8  C   UNL     1       1.883   7.358  20.307  0.00  0.00    +0.000 A 
BRANCH   6   9
ATOM      9  O   UNL     1       0.906  10.628  18.982  0.00  0.00    +0.000 OA
ATOM     10  C   UNL     1      -0.351  10.991  19.427  0.00  0.00    +0.000 C 
ENDBRANCH   6   9
ENDBRANCH   2   3
BRANCH   1  11
ATOM     11  C   UNL     1       4.383   3.435  19.187  0.00  0.00    +0.000 C 
ATOM     12  O   UNL     1       4.864   2.848  20.148  0.00  0.00    +0.000 OA
BRANCH  11  14
ATOM     13  C   UNL     1       3.527   1.492  18.009  0.00  0.00    +0.000 C 
ATOM     14  O   UNL     1       4.084   2.751  18.048  0.00  0.00    +0.000 OA
ENDBRANCH  11  14
ENDBRANCH   1  11
BRANCH   1  15
ATOM     15  C   UNL     1       5.349   5.865  19.291  0.00  0.00    +0.000 C 
BRANCH  15  16
ATOM     16  S   UNL     1       6.800   5.139  18.460  0.00  0.00    +0.000 S 
BRANCH  16  17
ATOM     17  C   UNL     1       6.289   5.384  16.736  0.00  0.00    +0.000 C 
ATOM     18  N   UNL     1       6.050   6.566  16.287  0.00  0.00    +0.000 NA
ATOM     19  N   UNL     1       6.182   4.250  15.872  0.00  0.00    +0.000 N 
ATOM     20  H   UNL     1       6.110   7.397  16.891  0.00  0.00    +0.000 HD
ATOM     21  H   UNL     1       5.967   3.339  16.303  0.00  0.00    +0.000 HD
BRANCH  19  22
ATOM     22  C   UNL     1       6.431   4.279  14.461  0.00  0.00    +0.000 A 
ATOM     23  C   UNL     1       7.469   5.060  13.908  0.00  0.00    +0.000 A 
ATOM     24  C   UNL     1       7.740   5.013  12.535  0.00  0.00    +0.000 A 
ATOM     25  C   UNL     1       6.973   4.206  11.694  0.00  0.00    +0.000 A 
ATOM     26  C   UNL     1       5.937   3.434  12.225  0.00  0.00    +0.000 A 
ATOM     27  C   UNL     1       5.675   3.460  13.602  0.00  0.00    +0.000 A 
ENDBRANCH  19  22
ENDBRANCH  16  17
ENDBRANCH  15  16
ENDBRANCH   1  15
TORSDOF 8
ENDMDL
MODEL 7
REMARK VINA RESULT:      -7.1      1.168      1.698
REMARK  Name = 
REMARK  10 active torsions:
REMARK  status: ('A' for Active; 'I' for Inactive)
REMARK    1  A    between atoms: C_1  and  O_2
REMARK    2  A    between atoms: O_2  and  C_3
REMARK    3  A    between atoms: C_3  and  C_5
REMARK    4  A    between atoms: C_5  and  C_15
REMARK    5  A    between atoms: C_6  and  C_7
REMARK    6  A    between atoms: C_10  and  O_11
REMARK    7  A    between atoms: O_11  and  C_12
REMARK    8  A    between atoms: C_15  and  S_16
REMARK    9  A    between atoms: S_16  and  C_17
REMARK   10  A    between atoms: N_19  and  C_20
REMARK                            x       y       z     vdW  Elec       q    Type
REMARK                         _______ _______ _______ _____ _____    ______ ____
ROOT
ATOM      1  C   UNL     1       3.430   4.329  19.472  0.00  0.00    +0.000 C 
ATOM      2  C   UNL     1       2.551   5.198  20.031  0.00  0.00    +0.000 C 
ENDROOT
BRANCH   2   3
ATOM      3  C   UNL     1       2.299   6.579  19.600  0.00  0.00    +0.000 A 
ATOM      4  C   UNL     1       2.520   6.921  18.262  0.00  0.00    +0.000 A 
ATOM      5  C   UNL     1       2.214   8.199  17.801  0.00  0.00    +0.000 A 
ATOM      6  C   UNL     1       1.664   9.162  18.678  0.00  0.00    +0.000 A 
ATOM      7  C   UNL     1       1.446   8.811  20.018  0.00  0.00    +0.000 A 
ATOM      8  C   UNL     1       1.754   7.525  20.477  0.00  0.00    +0.000 A 
BRANCH   6   9
ATOM      9  O   UNL     1       1.331  10.415  18.269  0.00  0.00    +0.000 OA
ATOM     10  C   UNL     1       0.368  11.213  18.855  0.00  0.00    +0.000 C 
ENDBRANCH   6   9
ENDBRANCH   2   3
BRANCH   1  11
ATOM     11  C   UNL     1       3.469   2.939  20.023  0.00  0.00    +0.000 C 
ATOM     12  O   UNL     1       3.863   2.011  19.329  0.00  0.00    +0.000 OA
BRANCH  11  14
ATOM     13  C   UNL     1       1.714   2.539  21.653  0.00  0.00    +0.000 C 
ATOM     14  O   UNL     1       3.033   2.706  21.292  0.00  0.00    +0.000 OA
ENDBRANCH  11  14
ENDBRANCH   1  11
BRANCH   1  15
ATOM     15  C   UNL     1       4.320   4.700  18.284  0.00  0.00    +0.000 C 
BRANCH  15  16
ATOM     16  S   UNL     1       6.011   5.107  18.833  0.00  0.00    +0.000 S 
BRANCH  16  17
ATOM     17  C   UNL     1       6.873   4.919  17.247  0.00  0.00    +0.000 C 
ATOM     18  N   UNL     1       7.947   4.214  17.167  0.00  0.00    +0.000 NA
ATOM     19  N   UNL     1       6.330   5.540  16.080  0.00  0.00    +0.000 N 
ATOM     20  H   UNL     1       8.363   3.765  17.994  0.00  0.00    +0.000 HD
ATOM     21  H   UNL     1       5.763   6.390  16.211  0.00  0.00    +0.000 HD
BRANCH  19  22
ATOM     22  C   UNL     1       6.454   5.018  14.751  0.00  0.00    +0.000 A 
ATOM     23  C   UNL     1       7.531   5.375  13.912  0.00  0.00    +0.000 A 
ATOM     24  C   UNL     1       7.671   4.794  12.646  0.00  0.00    +0.000 A 
ATOM     25  C   UNL     1       6.733   3.866  12.191  0.00  0.00    +0.000 A 
ATOM     26  C   UNL     1       5.656   3.508  13.006  0.00  0.00    +0.000 A 
ATOM     27  C   UNL     1       5.523   4.070  14.283  0.00  0.00    +0.000 A 
ENDBRANCH  19  22
ENDBRANCH  16  17
ENDBRANCH  15  16
ENDBRANCH   1  15
TORSDOF 8
ENDMDL
MODEL 8
REMARK VINA RESULT:      -7.1      3.515      7.371
REMARK  Name = 
REMARK  10 active torsions:
REMARK  status: ('A' for Active; 'I' for Inactive)
REMARK    1  A    between atoms: C_1  and  O_2
REMARK    2  A    between atoms: O_2  and  C_3
REMARK    3  A    between atoms: C_3  and  C_5
REMARK    4  A    between atoms: C_5  and  C_15
REMARK    5  A    between atoms: C_6  and  C_7
REMARK    6  A    between atoms: C_10  and  O_11
REMARK    7  A    between atoms: O_11  and  C_12
REMARK    8  A    between atoms: C_15  and  S_16
REMARK    9  A    between atoms: S_16  and  C_17
REMARK   10  A    between atoms: N_19  and  C_20
REMARK                            x       y       z     vdW  Elec       q    Type
REMARK                         _______ _______ _______ _____ _____    ______ ____
ROOT
ATOM      1  C   UNL     1       2.485   3.880  18.503  0.00  0.00    +0.000 C 
ATOM      2  C   UNL     1       3.782   3.538  18.307  0.00  0.00    +0.000 C 
ENDROOT
BRANCH   2   3
ATOM      3  C   UNL     1       4.874   4.446  17.933  0.00  0.00    +0.000 A 
ATOM      4  C   UNL     1       4.945   4.915  16.618  0.00  0.00    +0.000 A 
ATOM      5  C   UNL     1       5.918   5.841  16.250  0.00  0.00    +0.000 A 
ATOM      6  C   UNL     1       6.838   6.328  17.206  0.00  0.00    +0.000 A 
ATOM      7  C   UNL     1       6.761   5.853  18.523  0.00  0.00    +0.000 A 
ATOM      8  C   UNL     1       5.781   4.923  18.889  0.00  0.00    +0.000 A 
BRANCH   6   9
ATOM      9  O   UNL     1       7.792   7.246  16.899  0.00  0.00    +0.000 OA
ATOM     10  C   UNL     1       8.034   8.409  17.605  0.00  0.00    +0.000 C 
ENDBRANCH   6   9
ENDBRANCH   2   3
BRANCH   1  11
ATOM     11  C   UNL     1       1.550   2.805  18.958  0.00  0.00    +0.000 C 
ATOM     12  O   UNL     1       0.611   2.464  18.251  0.00  0.00    +0.000 OA
BRANCH  11  14
ATOM     13  C   UNL     1       1.614   2.884  21.384  0.00  0.00    +0.000 C 
ATOM     14  O   UNL     1       1.732   2.228  20.178  0.00  0.00    +0.000 OA
ENDBRANCH  11  14
ENDBRANCH   1  11
BRANCH   1  15
ATOM     15  C   UNL     1       1.970   5.312  18.333  0.00  0.00    +0.000 C 
BRANCH  15  16
ATOM     16  S   UNL     1       2.281   6.302  19.833  0.00  0.00    +0.000 S 
BRANCH  16  17
ATOM     17  C   UNL     1       2.033   7.957  19.133  0.00  0.00    +0.000 C 
ATOM     18  N   UNL     1       2.346   8.203  17.909  0.00  0.00    +0.000 NA
ATOM     19  N   UNL     1       1.458   8.981  19.948  0.00  0.00    +0.000 N 
ATOM     20  H   UNL     1       2.771   7.486  17.305  0.00  0.00    +0.000 HD
ATOM     21  H   UNL     1       1.598   8.916  20.966  0.00  0.00    +0.000 HD
BRANCH  19  22
ATOM     22  C   UNL     1       0.636  10.045  19.454  0.00  0.00    +0.000 A 
ATOM     23  C   UNL     1       1.123  11.365  19.336  0.00  0.00    +0.000 A 
ATOM     24  C   UNL     1       0.324  12.371  18.780  0.00  0.00    +0.000 A 
ATOM     25  C   UNL     1      -0.973  12.084  18.353  0.00  0.00    +0.000 A 
ATOM     26  C   UNL     1      -1.473  10.785  18.471  0.00  0.00    +0.000 A 
ATOM     27  C   UNL     1      -0.671   9.768  19.006  0.00  0.00    +0.000 A 
ENDBRANCH  19  22
ENDBRANCH  16  17
ENDBRANCH  15  16
ENDBRANCH   1  15
TORSDOF 8
ENDMDL
MODEL 9
REMARK VINA RESULT:      -7.1      3.007      7.821
REMARK  Name = 
REMARK  10 active torsions:
REMARK  status: ('A' for Active; 'I' for Inactive)
REMARK    1  A    between atoms: C_1  and  O_2
REMARK    2  A    between atoms: O_2  and  C_3
REMARK    3  A    between atoms: C_3  and  C_5
REMARK    4  A    between atoms: C_5  and  C_15
REMARK    5  A    between atoms: C_6  and  C_7
REMARK    6  A    between atoms: C_10  and  O_11
REMARK    7  A    between atoms: O_11  and  C_12
REMARK    8  A    between atoms: C_15  and  S_16
REMARK    9  A    between atoms: S_16  and  C_17
REMARK   10  A    between atoms: N_19  and  C_20
REMARK                            x       y       z     vdW  Elec       q    Type
REMARK                         _______ _______ _______ _____ _____    ______ ____
ROOT
ATOM      1  C   UNL     1       2.854   4.053  18.235  0.00  0.00    +0.000 C 
ATOM      2  C   UNL     1       3.924   3.422  17.690  0.00  0.00    +0.000 C 
ENDROOT
BRANCH   2   3
ATOM      3  C   UNL     1       4.936   4.025  16.815  0.00  0.00    +0.000 A 
ATOM      4  C   UNL     1       6.124   4.500  17.380  0.00  0.00    +0.000 A 
ATOM      5  C   UNL     1       7.139   5.002  16.569  0.00  0.00    +0.000 A 
ATOM      6  C   UNL     1       6.986   5.027  15.164  0.00  0.00    +0.000 A 
ATOM      7  C   UNL     1       5.792   4.549  14.605  0.00  0.00    +0.000 A 
ATOM      8  C   UNL     1       4.774   4.044  15.423  0.00  0.00    +0.000 A 
BRANCH   6   9
ATOM      9  O   UNL     1       7.956   5.489  14.332  0.00  0.00    +0.000 OA
ATOM     10  C   UNL     1       7.950   5.365  12.956  0.00  0.00    +0.000 C 
ENDBRANCH   6   9
ENDBRANCH   2   3
BRANCH   1  11
ATOM     11  C   UNL     1       1.989   3.264  19.166  0.00  0.00    +0.000 C 
ATOM     12  O   UNL     1       0.849   2.962  18.841  0.00  0.00    +0.000 OA
BRANCH  11  14
ATOM     13  C   UNL     1       1.734   2.932  21.557  0.00  0.00    +0.000 C 
ATOM     14  O   UNL     1       2.467   2.911  20.391  0.00  0.00    +0.000 OA
ENDBRANCH  11  14
ENDBRANCH   1  11
BRANCH   1  15
ATOM     15  C   UNL     1       2.545   5.531  17.980  0.00  0.00    +0.000 C 
BRANCH  15  16
ATOM     16  S   UNL     1       2.383   6.448  19.548  0.00  0.00    +0.000 S 
BRANCH  16  17
ATOM     17  C   UNL     1       2.101   8.108  18.874  0.00  0.00    +0.000 C 
ATOM     18  N   UNL     1       2.457   8.395  17.671  0.00  0.00    +0.000 NA
ATOM     19  N   UNL     1       1.451   9.089  19.686  0.00  0.00    +0.000 N 
ATOM     20  H   UNL     1       2.934   7.710  17.070  0.00  0.00    +0.000 HD
ATOM     21  H   UNL     1       1.549   9.005  20.708  0.00  0.00    +0.000 HD
BRANCH  19  22
ATOM     22  C   UNL     1       0.609  10.132  19.180  0.00  0.00    +0.000 A 
ATOM     23  C   UNL     1      -0.735   9.892  18.821  0.00  0.00    +0.000 A 
ATOM     24  C   UNL     1      -1.558  10.943  18.400  0.00  0.00    +0.000 A 
ATOM     25  C   UNL     1      -1.053  12.240  18.312  0.00  0.00    +0.000 A 
ATOM     26  C   UNL     1       0.278  12.494  18.655  0.00  0.00    +0.000 A 
ATOM     27  C   UNL     1       1.101  11.450  19.099  0.00  0.00    +0.000 A 
ENDBRANCH  19  22
ENDBRANCH  16  17
ENDBRANCH  15  16
ENDBRANCH   1  15
TORSDOF 8
ENDMDL
