MODEL 1
REMARK VINA RESULT:      -7.5      0.000      0.000
REMARK  Name = 
REMARK  6 active torsions:
REMARK  status: ('A' for Active; 'I' for Inactive)
REMARK    1  A    between atoms: C_1  and  N_2
REMARK    2  A    between atoms: C_5  and  N_6
REMARK    3  A    between atoms: N_6  and  C_7
REMARK    4  A    between atoms: N_6  and  C_8
REMARK    5  A    between atoms: C_8  and  N_10
REMARK    6  A    between atoms: C_11  and  C_13
REMARK                            x       y       z     vdW  Elec       q    Type
REMARK                         _______ _______ _______ _____ _____    ______ ____
ROOT
ATOM      1  N   UNL     1       1.180   7.655  20.016  0.00  0.00    +0.000 N 
ATOM      2  C   UNL     1       2.244   7.065  19.330  0.00  0.00    +0.000 C 
ATOM      3  O   UNL     1       3.012   7.698  18.607  0.00  0.00    +0.000 OA
ATOM      4  H   UNL     1       0.516   7.023  20.431  0.00  0.00    +0.000 HD
ENDROOT
BRANCH   2   5
ATOM      5  C   UNL     1       2.314   5.522  19.380  0.00  0.00    +0.000 C 
ATOM      6  C   UNL     1       1.369   4.967  20.472  0.00  0.00    +0.000 C 
ATOM      7  C   UNL     1       1.388   3.427  20.475  0.00  0.00    +0.000 C 
ATOM      8  C   UNL     1       0.923   2.907  19.106  0.00  0.00    +0.000 C 
ATOM      9  C   UNL     1       1.864   3.417  18.004  0.00  0.00    +0.000 C 
ATOM     10  C   UNL     1       3.294   2.930  18.283  0.00  0.00    +0.000 C 
ATOM     11  C   UNL     1       3.770   3.460  19.645  0.00  0.00    +0.000 C 
ATOM     12  C   UNL     1       2.823   2.941  20.742  0.00  0.00    +0.000 C 
ATOM     13  C   UNL     1       3.747   5.003  19.641  0.00  0.00    +0.000 C 
ATOM     14  C   UNL     1       1.850   4.953  18.007  0.00  0.00    +0.000 C 
ENDBRANCH   2   5
BRANCH   1  15
ATOM     15  C   UNL     1       1.037   9.000  20.393  0.00  0.00    +0.000 C 
ATOM     16  S   UNL     1       1.286   9.515  21.980  0.00  0.00    +0.000 S 
BRANCH  15  17
ATOM     17  N   UNL     1       0.658   9.864  19.324  0.00  0.00    +0.000 N 
ATOM     18  C   UNL     1       1.649  10.617  18.553  0.00  0.00    +0.000 C 
BRANCH  17  23
ATOM     19  C   UNL     1      -4.482  11.594  17.447  0.00  0.00    +0.000 C 
ATOM     20  N   UNL     1      -3.047  11.400  17.674  0.00  0.00    +0.000 NA
ATOM     21  C   UNL     1      -2.697  11.775  19.053  0.00  0.00    +0.000 C 
ATOM     22  C   UNL     1      -1.199  11.592  19.323  0.00  0.00    +0.000 C 
ATOM     23  C   UNL     1      -0.778  10.148  19.010  0.00  0.00    +0.000 C 
ATOM     24  C   UNL     1      -1.169   9.786  17.574  0.00  0.00    +0.000 C 
ATOM     25  C   UNL     1      -2.672  10.009  17.378  0.00  0.00    +0.000 C 
ENDBRANCH  17  23
ENDBRANCH  15  17
ENDBRANCH   1  15
TORSDOF 4
ENDMDL
MODEL 2
REMARK VINA RESULT:      -7.5      0.098      1.552
REMARK  Name = 
REMARK  6 active torsions:
REMARK  status: ('A' for Active; 'I' for Inactive)
REMARK    1  A    between atoms: C_1  and  N_2
REMARK    2  A    between atoms: C_5  and  N_6
REMARK    3  A    between atoms: N_6  and  C_7
REMARK    4  A    between atoms: N_6  and  C_8
REMARK    5  A    between atoms: C_8  and  N_10
REMARK    6  A    between atoms: C_11  and  C_13
REMARK                            x       y       z     vdW  Elec       q    Type
REMARK                         _______ _______ _______ _____ _____    ______ ____
ROOT
ATOM      1  N   UNL     1       1.176   7.594  19.993  0.00  0.00    +0.000 N 
ATOM      2  C   UNL     1       2.241   6.970  19.340  0.00  0.00    +0.000 C 
ATOM      3  O   UNL     1       3.062   7.580  18.656  0.00  0.00    +0.000 OA
ATOM      4  H   UNL     1       0.471   6.983  20.372  0.00  0.00    +0.000 HD
ENDROOT
BRANCH   2   5
ATOM      5  C   UNL     1       2.246   5.424  19.370  0.00  0.00    +0.000 C 
ATOM      6  C   UNL     1       1.836   4.849  17.993  0.00  0.00    +0.000 C 
ATOM      7  C   UNL     1       1.907   3.311  18.004  0.00  0.00    +0.000 C 
ATOM      8  C   UNL     1       3.345   2.868  18.318  0.00  0.00    +0.000 C 
ATOM      9  C   UNL     1       3.767   3.398  19.696  0.00  0.00    +0.000 C 
ATOM     10  C   UNL     1       2.813   2.856  20.771  0.00  0.00    +0.000 C 
ATOM     11  C   UNL     1       1.375   3.309  20.470  0.00  0.00    +0.000 C 
ATOM     12  C   UNL     1       0.960   2.770  19.089  0.00  0.00    +0.000 C 
ATOM     13  C   UNL     1       1.307   4.851  20.457  0.00  0.00    +0.000 C 
ATOM     14  C   UNL     1       3.689   4.932  19.687  0.00  0.00    +0.000 C 
ENDBRANCH   2   5
BRANCH   1  15
ATOM     15  C   UNL     1       1.071   8.938  20.383  0.00  0.00    +0.000 C 
ATOM     16  S   UNL     1       1.367   9.434  21.968  0.00  0.00    +0.000 S 
BRANCH  15  17
ATOM     17  N   UNL     1       0.688   9.819  19.330  0.00  0.00    +0.000 N 
ATOM     18  C   UNL     1       1.679  10.562  18.547  0.00  0.00    +0.000 C 
BRANCH  17  23
ATOM     19  C   UNL     1      -4.453  11.650  17.556  0.00  0.00    +0.000 C 
ATOM     20  N   UNL     1      -3.018  11.427  17.753  0.00  0.00    +0.000 NA
ATOM     21  C   UNL     1      -2.631  11.799  19.124  0.00  0.00    +0.000 C 
ATOM     22  C   UNL     1      -1.132  11.586  19.361  0.00  0.00    +0.000 C 
ATOM     23  C   UNL     1      -0.748  10.132  19.045  0.00  0.00    +0.000 C 
ATOM     24  C   UNL     1      -1.176   9.774  17.619  0.00  0.00    +0.000 C 
ATOM     25  C   UNL     1      -2.678  10.028  17.455  0.00  0.00    +0.000 C 
ENDBRANCH  17  23
ENDBRANCH  15  17
ENDBRANCH   1  15
TORSDOF 4
ENDMDL
MODEL 3
REMARK VINA RESULT:      -7.4      0.082      1.525
REMARK  Name = 
REMARK  6 active torsions:
REMARK  status: ('A' for Active; 'I' for Inactive)
REMARK    1  A    between atoms: C_1  and  N_2
REMARK    2  A    between atoms: C_5  and  N_6
REMARK    3  A    between atoms: N_6  and  C_7
REMARK    4  A    between atoms: N_6  and  C_8
REMARK    5  A    between atoms: C_8  and  N_10
REMARK    6  A    between atoms: C_11  and  C_13
REMARK                            x       y       z     vdW  Elec       q    Type
REMARK                         _______ _______ _______ _____ _____    ______ ____
ROOT
ATOM      1  N   UNL     1       1.187   7.651  19.976  0.00  0.00    +0.000 N 
ATOM      2  C   UNL     1       2.225   7.070  19.244  0.00  0.00    +0.000 C 
ATOM      3  O   UNL     1       2.967   7.713  18.502  0.00  0.00    +0.000 OA
ATOM      4  H   UNL     1       0.538   7.012  20.406  0.00  0.00    +0.000 HD
ENDROOT
BRANCH   2   5
ATOM      5  C   UNL     1       2.296   5.527  19.270  0.00  0.00    +0.000 C 
ATOM      6  C   UNL     1       3.724   5.051  19.626  0.00  0.00    +0.000 C 
ATOM      7  C   UNL     1       3.778   3.514  19.718  0.00  0.00    +0.000 C 
ATOM      8  C   UNL     1       2.809   3.034  20.809  0.00  0.00    +0.000 C 
ATOM      9  C   UNL     1       1.376   3.464  20.464  0.00  0.00    +0.000 C 
ATOM     10  C   UNL     1       0.969   2.863  19.110  0.00  0.00    +0.000 C 
ATOM     11  C   UNL     1       1.927   3.353  18.012  0.00  0.00    +0.000 C 
ATOM     12  C   UNL     1       3.359   2.914  18.365  0.00  0.00    +0.000 C 
ATOM     13  C   UNL     1       1.874   4.893  17.924  0.00  0.00    +0.000 C 
ATOM     14  C   UNL     1       1.325   4.996  20.365  0.00  0.00    +0.000 C 
ENDBRANCH   2   5
BRANCH   1  15
ATOM     15  C   UNL     1       1.057   8.990  20.377  0.00  0.00    +0.000 C 
ATOM     16  S   UNL     1       1.312   9.475  21.972  0.00  0.00    +0.000 S 
BRANCH  15  17
ATOM     17  N   UNL     1       0.686   9.876  19.323  0.00  0.00    +0.000 N 
ATOM     18  C   UNL     1       1.681  10.658  18.586  0.00  0.00    +0.000 C 
BRANCH  17  23
ATOM     19  C   UNL     1      -4.441  11.552  17.362  0.00  0.00    +0.000 C 
ATOM     20  N   UNL     1      -3.007  11.362  17.602  0.00  0.00    +0.000 NA
ATOM     21  C   UNL     1      -2.662  11.785  18.969  0.00  0.00    +0.000 C 
ATOM     22  C   UNL     1      -1.166  11.609  19.251  0.00  0.00    +0.000 C 
ATOM     23  C   UNL     1      -0.748  10.153  18.992  0.00  0.00    +0.000 C 
ATOM     24  C   UNL     1      -1.133   9.741  17.568  0.00  0.00    +0.000 C 
ATOM     25  C   UNL     1      -2.634   9.961  17.358  0.00  0.00    +0.000 C 
ENDBRANCH  17  23
ENDBRANCH  15  17
ENDBRANCH   1  15
TORSDOF 4
ENDMDL
MODEL 4
REMARK VINA RESULT:      -7.3      1.846      2.842
REMARK  Name = 
REMARK  6 active torsions:
REMARK  status: ('A' for Active; 'I' for Inactive)
REMARK    1  A    between atoms: C_1  and  N_2
REMARK    2  A    between atoms: C_5  and  N_6
REMARK    3  A    between atoms: N_6  and  C_7
REMARK    4  A    between atoms: N_6  and  C_8
REMARK    5  A    between atoms: C_8  and  N_10
REMARK    6  A    between atoms: C_11  and  C_13
REMARK                            x       y       z     vdW  Elec       q    Type
REMARK                         _______ _______ _______ _____ _____    ______ ____
ROOT
ATOM      1  N   UNL     1       2.299   7.225  19.914  0.00  0.00    +0.000 N 
ATOM      2  C   UNL     1       1.843   5.926  20.144  0.00  0.00    +0.000 C 
ATOM      3  O   UNL     1       1.010   5.647  21.006  0.00  0.00    +0.000 OA
ATOM      4  H   UNL     1       3.102   7.312  19.314  0.00  0.00    +0.000 HD
ENDROOT
BRANCH   2   5
ATOM      5  C   UNL     1       2.570   4.802  19.372  0.00  0.00    +0.000 C 
ATOM      6  C   UNL     1       4.104   4.970  19.477  0.00  0.00    +0.000 C 
ATOM      7  C   UNL     1       4.828   3.813  18.764  0.00  0.00    +0.000 C 
ATOM      8  C   UNL     1       4.430   2.481  19.418  0.00  0.00    +0.000 C 
ATOM      9  C   UNL     1       2.913   2.272  19.299  0.00  0.00    +0.000 C 
ATOM     10  C   UNL     1       2.510   2.260  17.817  0.00  0.00    +0.000 C 
ATOM     11  C   UNL     1       2.893   3.597  17.161  0.00  0.00    +0.000 C 
ATOM     12  C   UNL     1       4.414   3.796  17.282  0.00  0.00    +0.000 C 
ATOM     13  C   UNL     1       2.169   4.756  17.879  0.00  0.00    +0.000 C 
ATOM     14  C   UNL     1       2.192   3.430  20.003  0.00  0.00    +0.000 C 
ENDBRANCH   2   5
BRANCH   1  15
ATOM     15  C   UNL     1       1.656   8.434  20.226  0.00  0.00    +0.000 C 
ATOM     16  S   UNL     1       1.181   8.814  21.799  0.00  0.00    +0.000 S 
BRANCH  15  17
ATOM     17  N   UNL     1       1.441   9.282  19.100  0.00  0.00    +0.000 N 
ATOM     18  C   UNL     1       1.721   8.836  17.734  0.00  0.00    +0.000 C 
BRANCH  17  23
ATOM     19  C   UNL     1      -0.279  14.744  18.719  0.00  0.00    +0.000 C 
ATOM     20  N   UNL     1       0.096  13.353  18.448  0.00  0.00    +0.000 NA
ATOM     21  C   UNL     1       1.515  13.138  18.777  0.00  0.00    +0.000 C 
ATOM     22  C   UNL     1       1.944  11.694  18.495  0.00  0.00    +0.000 C 
ATOM     23  C   UNL     1       1.037  10.715  19.257  0.00  0.00    +0.000 C 
ATOM     24  C   UNL     1      -0.431  10.975  18.902  0.00  0.00    +0.000 C 
ATOM     25  C   UNL     1      -0.778  12.438  19.195  0.00  0.00    +0.000 C 
ENDBRANCH  17  23
ENDBRANCH  15  17
ENDBRANCH   1  15
TORSDOF 4
ENDMDL
MODEL 5
REMARK VINA RESULT:      -7.3      1.703      2.305
REMARK  Name = 
REMARK  6 active torsions:
REMARK  status: ('A' for Active; 'I' for Inactive)
REMARK    1  A    between atoms: C_1  and  N_2
REMARK    2  A    between atoms: C_5  and  N_6
REMARK    3  A    between atoms: N_6  and  C_7
REMARK    4  A    between atoms: N_6  and  C_8
REMARK    5  A    between atoms: C_8  and  N_10
REMARK    6  A    between atoms: C_11  and  C_13
REMARK                            x       y       z     vdW  Elec       q    Type
REMARK                         _______ _______ _______ _____ _____    ______ ____
ROOT
ATOM      1  N   UNL     1       1.598   7.403  19.077  0.00  0.00    +0.000 N 
ATOM      2  C   UNL     1       2.700   6.574  18.855  0.00  0.00    +0.000 C 
ATOM      3  O   UNL     1       3.721   6.951  18.283  0.00  0.00    +0.000 OA
ATOM      4  H   UNL     1       0.757   6.946  19.390  0.00  0.00    +0.000 HD
ENDROOT
BRANCH   2   5
ATOM      5  C   UNL     1       2.511   5.081  19.210  0.00  0.00    +0.000 C 
ATOM      6  C   UNL     1       1.539   4.921  20.403  0.00  0.00    +0.000 C 
ATOM      7  C   UNL     1       1.300   3.432  20.713  0.00  0.00    +0.000 C 
ATOM      8  C   UNL     1       0.691   2.745  19.481  0.00  0.00    +0.000 C 
ATOM      9  C   UNL     1       1.651   2.860  18.288  0.00  0.00    +0.000 C 
ATOM     10  C   UNL     1       2.991   2.196  18.640  0.00  0.00    +0.000 C 
ATOM     11  C   UNL     1       3.612   2.890  19.863  0.00  0.00    +0.000 C 
ATOM     12  C   UNL     1       2.644   2.765  21.053  0.00  0.00    +0.000 C 
ATOM     13  C   UNL     1       3.849   4.383  19.552  0.00  0.00    +0.000 C 
ATOM     14  C   UNL     1       1.895   4.345  17.984  0.00  0.00    +0.000 C 
ENDBRANCH   2   5
BRANCH   1  15
ATOM     15  C   UNL     1       1.571   8.805  19.137  0.00  0.00    +0.000 C 
ATOM     16  S   UNL     1       2.116   9.765  17.862  0.00  0.00    +0.000 S 
BRANCH  15  17
ATOM     17  N   UNL     1       1.058   9.322  20.362  0.00  0.00    +0.000 N 
ATOM     18  C   UNL     1       1.178   8.585  21.622  0.00  0.00    +0.000 C 
BRANCH  17  23
ATOM     19  C   UNL     1      -2.730  13.595  20.944  0.00  0.00    +0.000 C 
ATOM     20  N   UNL     1      -2.042  12.301  20.939  0.00  0.00    +0.000 NA
ATOM     21  C   UNL     1      -1.704  11.912  19.560  0.00  0.00    +0.000 C 
ATOM     22  C   UNL     1      -0.991  10.557  19.516  0.00  0.00    +0.000 C 
ATOM     23  C   UNL     1       0.257  10.586  20.412  0.00  0.00    +0.000 C 
ATOM     24  C   UNL     1      -0.128  11.006  21.834  0.00  0.00    +0.000 C 
ATOM     25  C   UNL     1      -0.848  12.358  21.794  0.00  0.00    +0.000 C 
ENDBRANCH  17  23
ENDBRANCH  15  17
ENDBRANCH   1  15
TORSDOF 4
ENDMDL
MODEL 6
REMARK VINA RESULT:      -7.3      1.836      2.433
REMARK  Name = 
REMARK  6 active torsions:
REMARK  status: ('A' for Active; 'I' for Inactive)
REMARK    1  A    between atoms: C_1  and  N_2
REMARK    2  A    between atoms: C_5  and  N_6
REMARK    3  A    between atoms: N_6  and  C_7
REMARK    4  A    between atoms: N_6  and  C_8
REMARK    5  A    between atoms: C_8  and  N_10
REMARK    6  A    between atoms: C_11  and  C_13
REMARK                            x       y       z     vdW  Elec       q    Type
REMARK                         _______ _______ _______ _____ _____    ______ ____
ROOT
ATOM      1  N   UNL     1       2.294   7.178  20.045  0.00  0.00    +0.000 N 
ATOM      2  C   UNL     1       1.766   5.889  20.148  0.00  0.00    +0.000 C 
ATOM      3  O   UNL     1       0.815   5.607  20.876  0.00  0.00    +0.000 OA
ATOM      4  H   UNL     1       3.174   7.258  19.564  0.00  0.00    +0.000 HD
ENDROOT
BRANCH   2   5
ATOM      5  C   UNL     1       2.554   4.771  19.428  0.00  0.00    +0.000 C 
ATOM      6  C   UNL     1       2.260   3.394  20.068  0.00  0.00    +0.000 C 
ATOM      7  C   UNL     1       2.993   2.274  19.307  0.00  0.00    +0.000 C 
ATOM      8  C   UNL     1       2.517   2.252  17.846  0.00  0.00    +0.000 C 
ATOM      9  C   UNL     1       2.827   3.598  17.175  0.00  0.00    +0.000 C 
ATOM     10  C   UNL     1       4.340   3.861  17.222  0.00  0.00    +0.000 C 
ATOM     11  C   UNL     1       4.818   3.898  18.683  0.00  0.00    +0.000 C 
ATOM     12  C   UNL     1       4.507   2.544  19.345  0.00  0.00    +0.000 C 
ATOM     13  C   UNL     1       4.081   5.020  19.445  0.00  0.00    +0.000 C 
ATOM     14  C   UNL     1       2.103   4.716  17.939  0.00  0.00    +0.000 C 
ENDBRANCH   2   5
BRANCH   1  15
ATOM     15  C   UNL     1       1.655   8.396  20.325  0.00  0.00    +0.000 C 
ATOM     16  S   UNL     1       1.175   8.816  21.887  0.00  0.00    +0.000 S 
BRANCH  15  17
ATOM     17  N   UNL     1       1.450   9.219  19.179  0.00  0.00    +0.000 N 
ATOM     18  C   UNL     1       1.751   8.746  17.826  0.00  0.00    +0.000 C 
BRANCH  17  23
ATOM     19  C   UNL     1      -0.308  14.658  18.661  0.00  0.00    +0.000 C 
ATOM     20  N   UNL     1       0.077  13.263  18.425  0.00  0.00    +0.000 NA
ATOM     21  C   UNL     1       1.497  13.066  18.761  0.00  0.00    +0.000 C 
ATOM     22  C   UNL     1       1.937  11.619  18.516  0.00  0.00    +0.000 C 
ATOM     23  C   UNL     1       1.035  10.653  19.300  0.00  0.00    +0.000 C 
ATOM     24  C   UNL     1      -0.433  10.893  18.938  0.00  0.00    +0.000 C 
ATOM     25  C   UNL     1      -0.792  12.360  19.193  0.00  0.00    +0.000 C 
ENDBRANCH  17  23
ENDBRANCH  15  17
ENDBRANCH   1  15
TORSDOF 4
ENDMDL
MODEL 7
REMARK VINA RESULT:      -7.3      1.714      2.783
REMARK  Name = 
REMARK  6 active torsions:
REMARK  status: ('A' for Active; 'I' for Inactive)
REMARK    1  A    between atoms: C_1  and  N_2
REMARK    2  A    between atoms: C_5  and  N_6
REMARK    3  A    between atoms: N_6  and  C_7
REMARK    4  A    between atoms: N_6  and  C_8
REMARK    5  A    between atoms: C_8  and  N_10
REMARK    6  A    between atoms: C_11  and  C_13
REMARK                            x       y       z     vdW  Elec       q    Type
REMARK                         _______ _______ _______ _____ _____    ______ ____
ROOT
ATOM      1  N   UNL     1       1.606   7.403  19.016  0.00  0.00    +0.000 N 
ATOM      2  C   UNL     1       2.699   6.567  18.773  0.00  0.00    +0.000 C 
ATOM      3  O   UNL     1       3.726   6.948  18.215  0.00  0.00    +0.000 OA
ATOM      4  H   UNL     1       0.760   6.948  19.314  0.00  0.00    +0.000 HD
ENDROOT
BRANCH   2   5
ATOM      5  C   UNL     1       2.491   5.067  19.085  0.00  0.00    +0.000 C 
ATOM      6  C   UNL     1       3.834   4.396  19.461  0.00  0.00    +0.000 C 
ATOM      7  C   UNL     1       3.616   2.919  19.837  0.00  0.00    +0.000 C 
ATOM      8  C   UNL     1       2.665   2.833  21.040  0.00  0.00    +0.000 C 
ATOM      9  C   UNL     1       1.311   3.463  20.685  0.00  0.00    +0.000 C 
ATOM     10  C   UNL     1       0.696   2.722  19.488  0.00  0.00    +0.000 C 
ATOM     11  C   UNL     1       1.637   2.819  18.275  0.00  0.00    +0.000 C 
ATOM     12  C   UNL     1       2.990   2.181  18.641  0.00  0.00    +0.000 C 
ATOM     13  C   UNL     1       1.857   4.300  17.902  0.00  0.00    +0.000 C 
ATOM     14  C   UNL     1       1.530   4.934  20.302  0.00  0.00    +0.000 C 
ENDBRANCH   2   5
BRANCH   1  15
ATOM     15  C   UNL     1       1.597   8.803  19.116  0.00  0.00    +0.000 C 
ATOM     16  S   UNL     1       2.173   9.792  17.877  0.00  0.00    +0.000 S 
BRANCH  15  17
ATOM     17  N   UNL     1       1.072   9.292  20.348  0.00  0.00    +0.000 N 
ATOM     18  C   UNL     1       1.184   8.526  21.592  0.00  0.00    +0.000 C 
BRANCH  17  23
ATOM     19  C   UNL     1      -2.723  13.546  21.009  0.00  0.00    +0.000 C 
ATOM     20  N   UNL     1      -2.032  12.254  20.983  0.00  0.00    +0.000 NA
ATOM     21  C   UNL     1      -1.701  11.884  19.596  0.00  0.00    +0.000 C 
ATOM     22  C   UNL     1      -0.985  10.531  19.531  0.00  0.00    +0.000 C 
ATOM     23  C   UNL     1       0.268  10.553  20.419  0.00  0.00    +0.000 C 
ATOM     24  C   UNL     1      -0.109  10.953  21.849  0.00  0.00    +0.000 C 
ATOM     25  C   UNL     1      -0.832  12.304  21.831  0.00  0.00    +0.000 C 
ENDBRANCH  17  23
ENDBRANCH  15  17
ENDBRANCH   1  15
TORSDOF 4
ENDMDL
MODEL 8
REMARK VINA RESULT:      -7.2      1.701      2.755
REMARK  Name = 
REMARK  6 active torsions:
REMARK  status: ('A' for Active; 'I' for Inactive)
REMARK    1  A    between atoms: C_1  and  N_2
REMARK    2  A    between atoms: C_5  and  N_6
REMARK    3  A    between atoms: N_6  and  C_7
REMARK    4  A    between atoms: N_6  and  C_8
REMARK    5  A    between atoms: C_8  and  N_10
REMARK    6  A    between atoms: C_11  and  C_13
REMARK                            x       y       z     vdW  Elec       q    Type
REMARK                         _______ _______ _______ _____ _____    ______ ____
ROOT
ATOM      1  N   UNL     1       1.548   7.446  19.073  0.00  0.00    +0.000 N 
ATOM      2  C   UNL     1       2.627   6.591  18.836  0.00  0.00    +0.000 C 
ATOM      3  O   UNL     1       3.655   6.948  18.263  0.00  0.00    +0.000 OA
ATOM      4  H   UNL     1       0.697   7.008  19.385  0.00  0.00    +0.000 HD
ENDROOT
BRANCH   2   5
ATOM      5  C   UNL     1       2.401   5.100  19.176  0.00  0.00    +0.000 C 
ATOM      6  C   UNL     1       1.808   4.346  17.962  0.00  0.00    +0.000 C 
ATOM      7  C   UNL     1       1.647   2.848  18.279  0.00  0.00    +0.000 C 
ATOM      8  C   UNL     1       3.020   2.246  18.614  0.00  0.00    +0.000 C 
ATOM      9  C   UNL     1       3.618   2.954  19.838  0.00  0.00    +0.000 C 
ATOM     10  C   UNL     1       2.675   2.790  21.039  0.00  0.00    +0.000 C 
ATOM     11  C   UNL     1       1.304   3.406  20.715  0.00  0.00    +0.000 C 
ATOM     12  C   UNL     1       0.712   2.686  19.490  0.00  0.00    +0.000 C 
ATOM     13  C   UNL     1       1.468   4.907  20.394  0.00  0.00    +0.000 C 
ATOM     14  C   UNL     1       3.772   4.449  19.524  0.00  0.00    +0.000 C 
ENDBRANCH   2   5
BRANCH   1  15
ATOM     15  C   UNL     1       1.558   8.848  19.149  0.00  0.00    +0.000 C 
ATOM     16  S   UNL     1       2.124   9.807  17.882  0.00  0.00    +0.000 S 
BRANCH  15  17
ATOM     17  N   UNL     1       1.064   9.365  20.382  0.00  0.00    +0.000 N 
ATOM     18  C   UNL     1       1.224   8.637  21.642  0.00  0.00    +0.000 C 
BRANCH  17  23
ATOM     19  C   UNL     1      -2.788  13.574  21.000  0.00  0.00    +0.000 C 
ATOM     20  N   UNL     1      -2.080  12.291  20.985  0.00  0.00    +0.000 NA
ATOM     21  C   UNL     1      -1.740  11.916  19.602  0.00  0.00    +0.000 C 
ATOM     22  C   UNL     1      -1.007  10.572  19.548  0.00  0.00    +0.000 C 
ATOM     23  C   UNL     1       0.243  10.616  20.441  0.00  0.00    +0.000 C 
ATOM     24  C   UNL     1      -0.144  11.021  21.867  0.00  0.00    +0.000 C 
ATOM     25  C   UNL     1      -0.884  12.361  21.837  0.00  0.00    +0.000 C 
ENDBRANCH  17  23
ENDBRANCH  15  17
ENDBRANCH   1  15
TORSDOF 4
ENDMDL
MODEL 9
REMARK VINA RESULT:      -7.2      1.841      2.799
REMARK  Name = 
REMARK  6 active torsions:
REMARK  status: ('A' for Active; 'I' for Inactive)
REMARK    1  A    between atoms: C_1  and  N_2
REMARK    2  A    between atoms: C_5  and  N_6
REMARK    3  A    between atoms: N_6  and  C_7
REMARK    4  A    between atoms: N_6  and  C_8
REMARK    5  A    between atoms: C_8  and  N_10
REMARK    6  A    between atoms: C_11  and  C_13
REMARK                            x       y       z     vdW  Elec       q    Type
REMARK                         _______ _______ _______ _____ _____    ______ ____
ROOT
ATOM      1  N   UNL     1       2.255   7.176  20.026  0.00  0.00    +0.000 N 
ATOM      2  C   UNL     1       1.707   5.896  20.135  0.00  0.00    +0.000 C 
ATOM      3  O   UNL     1       0.760   5.630  20.875  0.00  0.00    +0.000 OA
ATOM      4  H   UNL     1       3.130   7.241  19.533  0.00  0.00    +0.000 HD
ENDROOT
BRANCH   2   5
ATOM      5  C   UNL     1       2.466   4.765  19.404  0.00  0.00    +0.000 C 
ATOM      6  C   UNL     1       2.031   4.685  17.921  0.00  0.00    +0.000 C 
ATOM      7  C   UNL     1       2.836   3.603  17.177  0.00  0.00    +0.000 C 
ATOM      8  C   UNL     1       4.332   3.948  17.237  0.00  0.00    +0.000 C 
ATOM      9  C   UNL     1       4.799   4.002  18.699  0.00  0.00    +0.000 C 
ATOM     10  C   UNL     1       4.555   2.641  19.368  0.00  0.00    +0.000 C 
ATOM     11  C   UNL     1       3.057   2.298  19.325  0.00  0.00    +0.000 C 
ATOM     12  C   UNL     1       2.600   2.243  17.856  0.00  0.00    +0.000 C 
ATOM     13  C   UNL     1       2.252   3.385  20.068  0.00  0.00    +0.000 C 
ATOM     14  C   UNL     1       3.991   5.075  19.442  0.00  0.00    +0.000 C 
ENDBRANCH   2   5
BRANCH   1  15
ATOM     15  C   UNL     1       1.642   8.405  20.314  0.00  0.00    +0.000 C 
ATOM     16  S   UNL     1       1.166   8.821  21.878  0.00  0.00    +0.000 S 
BRANCH  15  17
ATOM     17  N   UNL     1       1.457   9.241  19.175  0.00  0.00    +0.000 N 
ATOM     18  C   UNL     1       1.779   8.783  17.821  0.00  0.00    +0.000 C 
BRANCH  17  23
ATOM     19  C   UNL     1      -0.325  14.676  18.701  0.00  0.00    +0.000 C 
ATOM     20  N   UNL     1       0.055  13.282  18.455  0.00  0.00    +0.000 NA
ATOM     21  C   UNL     1       1.485  13.088  18.746  0.00  0.00    +0.000 C 
ATOM     22  C   UNL     1       1.919  11.641  18.491  0.00  0.00    +0.000 C 
ATOM     23  C   UNL     1       1.044  10.675  19.305  0.00  0.00    +0.000 C 
ATOM     24  C   UNL     1      -0.435  10.913  18.989  0.00  0.00    +0.000 C 
ATOM     25  C   UNL     1      -0.788  12.380  19.253  0.00  0.00    +0.000 C 
ENDBRANCH  17  23
ENDBRANCH  15  17
ENDBRANCH   1  15
TORSDOF 4
ENDMDL
