MODEL 1
REMARK VINA RESULT:      -7.1      0.000      0.000
REMARK  Name = 
REMARK  6 active torsions:
REMARK  status: ('A' for Active; 'I' for Inactive)
REMARK    1  A    between atoms: C_1  and  O_2
REMARK    2  A    between atoms: O_2  and  C_3
REMARK    3  A    between atoms: C_6  and  C_7
REMARK    4  A    between atoms: C_17  and  C_18
REMARK    5  A    between atoms: C_20  and  C_21
REMARK    6  A    between atoms: C_25  and  N_26
REMARK                            x       y       z     vdW  Elec       q    Type
REMARK                         _______ _______ _______ _____ _____    ______ ____
ROOT
ATOM      1  C   UNL     1       9.130  13.544  22.288  0.00  0.00    +0.000 C 
ATOM      2  O   UNL     1       9.647  14.623  22.580  0.00  0.00    +0.000 OA
ATOM      3  N   UNL     1       9.637  12.700  21.256  0.00  0.00    +0.000 N 
ATOM      4  C   UNL     1       9.288  11.280  21.112  0.00  0.00    +0.000 C 
ATOM      5  C   UNL     1       9.334  10.744  19.702  0.00  0.00    +0.000 C 
ATOM      6  C   UNL     1      10.655  11.074  19.041  0.00  0.00    +0.000 C 
ATOM      7  C   UNL     1      10.441  11.633  17.636  0.00  0.00    +0.000 C 
ATOM      8  N   UNL     1      10.752  12.949  18.131  0.00  0.00    +0.000 N 
ATOM      9  C   UNL     1       9.861  14.049  18.043  0.00  0.00    +0.000 A 
ATOM     10  C   UNL     1      10.449  15.307  17.929  0.00  0.00    +0.000 A 
ATOM     11  C   UNL     1       9.658  16.434  17.736  0.00  0.00    +0.000 A 
ATOM     12  C   UNL     1      10.278  17.777  17.518  0.00  0.00    +0.000 C 
ATOM     13  C   UNL     1       8.276  16.269  17.714  0.00  0.00    +0.000 A 
ATOM     14  C   UNL     1       7.746  14.988  17.839  0.00  0.00    +0.000 A 
ATOM     15  C   UNL     1       6.257  14.790  17.862  0.00  0.00    +0.000 C 
ATOM     16  N   UNL     1       8.520  13.881  17.978  0.00  0.00    +0.000 NA
ATOM     17  C   UNL     1      11.276  12.433  19.383  0.00  0.00    +0.000 C 
ATOM     18  C   UNL     1      10.930  13.118  20.704  0.00  0.00    +0.000 C 
ENDROOT
BRANCH   1  22
ATOM     19  C   UNL     1       6.017  12.135  24.971  0.00  0.00    +0.000 A 
ATOM     20  C   UNL     1       7.259  11.527  24.901  0.00  0.00    +0.000 A 
ATOM     21  C   UNL     1       8.247  12.044  24.064  0.00  0.00    +0.000 A 
ATOM     22  C   UNL     1       7.990  13.086  23.155  0.00  0.00    +0.000 A 
ATOM     23  C   UNL     1       6.757  13.747  23.284  0.00  0.00    +0.000 A 
ATOM     24  C   UNL     1       5.781  13.266  24.199  0.00  0.00    +0.000 A 
BRANCH  23  25
ATOM     25  N   UNL     1       6.420  14.928  22.573  0.00  0.00    +0.000 N 
ATOM     26  N   UNL     1       6.637  16.159  23.139  0.00  0.00    +0.000 NA
ATOM     27  C   UNL     1       6.210  16.989  22.188  0.00  0.00    +0.000 A 
ATOM     28  C   UNL     1       5.626  16.254  21.155  0.00  0.00    +0.000 A 
ATOM     29  N   UNL     1       5.713  14.947  21.411  0.00  0.00    +0.000 NA
ENDBRANCH  23  25
BRANCH  19  31
ATOM     30  C   UNL     1       5.711  10.846  26.942  0.00  0.00    +0.000 C 
ATOM     31  O   UNL     1       5.148  11.541  25.838  0.00  0.00    +0.000 OA
ENDBRANCH  19  31
ENDBRANCH   1  22
TORSDOF 3
ENDMDL
MODEL 2
REMARK VINA RESULT:      -6.5      9.513     11.778
REMARK  Name = 
REMARK  6 active torsions:
REMARK  status: ('A' for Active; 'I' for Inactive)
REMARK    1  A    between atoms: C_1  and  O_2
REMARK    2  A    between atoms: O_2  and  C_3
REMARK    3  A    between atoms: C_6  and  C_7
REMARK    4  A    between atoms: C_17  and  C_18
REMARK    5  A    between atoms: C_20  and  C_21
REMARK    6  A    between atoms: C_25  and  N_26
REMARK                            x       y       z     vdW  Elec       q    Type
REMARK                         _______ _______ _______ _____ _____    ______ ____
ROOT
ATOM      1  C   UNL     1      -3.096  12.685  20.078  0.00  0.00    +0.000 C 
ATOM      2  O   UNL     1      -3.297  12.042  19.047  0.00  0.00    +0.000 OA
ATOM      3  N   UNL     1      -1.921  13.469  20.281  0.00  0.00    +0.000 N 
ATOM      4  C   UNL     1      -1.798  14.511  21.308  0.00  0.00    +0.000 C 
ATOM      5  C   UNL     1      -0.400  14.746  21.826  0.00  0.00    +0.000 C 
ATOM      6  C   UNL     1       0.571  14.956  20.685  0.00  0.00    +0.000 C 
ATOM      7  C   UNL     1       1.835  14.120  20.878  0.00  0.00    +0.000 C 
ATOM      8  N   UNL     1       1.370  13.213  19.862  0.00  0.00    +0.000 N 
ATOM      9  C   UNL     1       1.156  11.829  20.087  0.00  0.00    +0.000 A 
ATOM     10  C   UNL     1       1.354  10.992  18.991  0.00  0.00    +0.000 A 
ATOM     11  C   UNL     1       1.267   9.612  19.139  0.00  0.00    +0.000 A 
ATOM     12  C   UNL     1       1.569   8.698  17.996  0.00  0.00    +0.000 C 
ATOM     13  C   UNL     1       0.927   9.108  20.392  0.00  0.00    +0.000 A 
ATOM     14  C   UNL     1       0.735   9.994  21.448  0.00  0.00    +0.000 A 
ATOM     15  C   UNL     1       0.326   9.478  22.798  0.00  0.00    +0.000 C 
ATOM     16  N   UNL     1       0.869  11.339  21.315  0.00  0.00    +0.000 NA
ATOM     17  C   UNL     1       0.334  14.128  19.417  0.00  0.00    +0.000 C 
ATOM     18  C   UNL     1      -1.067  13.609  19.097  0.00  0.00    +0.000 C 
ENDROOT
BRANCH   1  22
ATOM     19  C   UNL     1      -6.149  12.869  23.163  0.00  0.00    +0.000 A 
ATOM     20  C   UNL     1      -4.802  12.773  23.466  0.00  0.00    +0.000 A 
ATOM     21  C   UNL     1      -3.852  12.769  22.446  0.00  0.00    +0.000 A 
ATOM     22  C   UNL     1      -4.210  12.707  21.087  0.00  0.00    +0.000 A 
ATOM     23  C   UNL     1      -5.571  12.881  20.784  0.00  0.00    +0.000 A 
ATOM     24  C   UNL     1      -6.530  12.967  21.829  0.00  0.00    +0.000 A 
BRANCH  23  25
ATOM     25  N   UNL     1      -6.070  13.029  19.464  0.00  0.00    +0.000 N 
ATOM     26  N   UNL     1      -6.262  14.279  18.935  0.00  0.00    +0.000 NA
ATOM     27  C   UNL     1      -6.720  14.005  17.714  0.00  0.00    +0.000 A 
ATOM     28  C   UNL     1      -6.925  12.630  17.590  0.00  0.00    +0.000 A 
ATOM     29  N   UNL     1      -6.558  12.006  18.712  0.00  0.00    +0.000 NA
ENDBRANCH  23  25
BRANCH  19  31
ATOM     30  C   UNL     1      -7.901  13.948  24.349  0.00  0.00    +0.000 C 
ATOM     31  O   UNL     1      -6.971  12.878  24.251  0.00  0.00    +0.000 OA
ENDBRANCH  19  31
ENDBRANCH   1  22
TORSDOF 3
ENDMDL
MODEL 3
REMARK VINA RESULT:      -6.4     10.492     13.820
REMARK  Name = 
REMARK  6 active torsions:
REMARK  status: ('A' for Active; 'I' for Inactive)
REMARK    1  A    between atoms: C_1  and  O_2
REMARK    2  A    between atoms: O_2  and  C_3
REMARK    3  A    between atoms: C_6  and  C_7
REMARK    4  A    between atoms: C_17  and  C_18
REMARK    5  A    between atoms: C_20  and  C_21
REMARK    6  A    between atoms: C_25  and  N_26
REMARK                            x       y       z     vdW  Elec       q    Type
REMARK                         _______ _______ _______ _____ _____    ______ ____
ROOT
ATOM      1  C   UNL     1      -2.681  13.121  21.149  0.00  0.00    +0.000 C 
ATOM      2  O   UNL     1      -2.533  11.978  21.584  0.00  0.00    +0.000 OA
ATOM      3  N   UNL     1      -3.819  13.924  21.460  0.00  0.00    +0.000 N 
ATOM      4  C   UNL     1      -3.873  15.379  21.270  0.00  0.00    +0.000 C 
ATOM      5  C   UNL     1      -5.246  15.944  20.998  0.00  0.00    +0.000 C 
ATOM      6  C   UNL     1      -6.241  15.469  22.035  0.00  0.00    +0.000 C 
ATOM      7  C   UNL     1      -7.529  14.980  21.376  0.00  0.00    +0.000 C 
ATOM      8  N   UNL     1      -7.128  13.622  21.639  0.00  0.00    +0.000 N 
ATOM      9  C   UNL     1      -6.960  12.646  20.625  0.00  0.00    +0.000 A 
ATOM     10  C   UNL     1      -7.221  11.328  20.994  0.00  0.00    +0.000 A 
ATOM     11  C   UNL     1      -7.181  10.314  20.043  0.00  0.00    +0.000 A 
ATOM     12  C   UNL     1      -7.549   8.911  20.402  0.00  0.00    +0.000 C 
ATOM     13  C   UNL     1      -6.824  10.651  18.740  0.00  0.00    +0.000 A 
ATOM     14  C   UNL     1      -6.569  11.985  18.432  0.00  0.00    +0.000 A 
ATOM     15  C   UNL     1      -6.141  12.368  17.044  0.00  0.00    +0.000 C 
ATOM     16  N   UNL     1      -6.656  12.982  19.350  0.00  0.00    +0.000 NA
ATOM     17  C   UNL     1      -6.072  14.035  22.547  0.00  0.00    +0.000 C 
ATOM     18  C   UNL     1      -4.701  13.362  22.489  0.00  0.00    +0.000 C 
ENDROOT
BRANCH   1  22
ATOM     19  C   UNL     1       0.731  14.854  19.092  0.00  0.00    +0.000 A 
ATOM     20  C   UNL     1       0.263  15.358  20.293  0.00  0.00    +0.000 A 
ATOM     21  C   UNL     1      -0.803  14.739  20.946  0.00  0.00    +0.000 A 
ATOM     22  C   UNL     1      -1.538  13.694  20.358  0.00  0.00    +0.000 A 
ATOM     23  C   UNL     1      -1.013  13.139  19.179  0.00  0.00    +0.000 A 
ATOM     24  C   UNL     1       0.124  13.723  18.559  0.00  0.00    +0.000 A 
BRANCH  23  25
ATOM     25  N   UNL     1      -1.528  11.967  18.565  0.00  0.00    +0.000 N 
ATOM     26  N   UNL     1      -0.719  10.878  18.370  0.00  0.00    +0.000 NA
ATOM     27  C   UNL     1      -1.546  10.008  17.790  0.00  0.00    +0.000 A 
ATOM     28  C   UNL     1      -2.766  10.631  17.524  0.00  0.00    +0.000 A 
ATOM     29  N   UNL     1      -2.750  11.889  17.971  0.00  0.00    +0.000 NA
ENDBRANCH  23  25
BRANCH  19  31
ATOM     30  C   UNL     1       1.718  16.959  18.611  0.00  0.00    +0.000 C 
ATOM     31  O   UNL     1       1.786  15.541  18.567  0.00  0.00    +0.000 OA
ENDBRANCH  19  31
ENDBRANCH   1  22
TORSDOF 3
ENDMDL
MODEL 4
REMARK VINA RESULT:      -6.4      6.818      9.545
REMARK  Name = 
REMARK  6 active torsions:
REMARK  status: ('A' for Active; 'I' for Inactive)
REMARK    1  A    between atoms: C_1  and  O_2
REMARK    2  A    between atoms: O_2  and  C_3
REMARK    3  A    between atoms: C_6  and  C_7
REMARK    4  A    between atoms: C_17  and  C_18
REMARK    5  A    between atoms: C_20  and  C_21
REMARK    6  A    between atoms: C_25  and  N_26
REMARK                            x       y       z     vdW  Elec       q    Type
REMARK                         _______ _______ _______ _____ _____    ______ ____
ROOT
ATOM      1  C   UNL     1       0.302  12.644  20.214  0.00  0.00    +0.000 C 
ATOM      2  O   UNL     1      -0.081  12.715  21.383  0.00  0.00    +0.000 OA
ATOM      3  N   UNL     1       1.529  13.219  19.768  0.00  0.00    +0.000 N 
ATOM      4  C   UNL     1       2.189  12.864  18.505  0.00  0.00    +0.000 C 
ATOM      5  C   UNL     1       3.026  13.956  17.886  0.00  0.00    +0.000 C 
ATOM      6  C   UNL     1       3.999  14.529  18.893  0.00  0.00    +0.000 C 
ATOM      7  C   UNL     1       3.982  16.056  18.865  0.00  0.00    +0.000 C 
ATOM      8  N   UNL     1       3.238  16.054  20.098  0.00  0.00    +0.000 N 
ATOM      9  C   UNL     1       1.960  16.652  20.242  0.00  0.00    +0.000 A 
ATOM     10  C   UNL     1       1.658  17.154  21.506  0.00  0.00    +0.000 A 
ATOM     11  C   UNL     1       0.471  17.847  21.717  0.00  0.00    +0.000 A 
ATOM     12  C   UNL     1       0.175  18.473  23.042  0.00  0.00    +0.000 C 
ATOM     13  C   UNL     1      -0.415  17.970  20.650  0.00  0.00    +0.000 A 
ATOM     14  C   UNL     1      -0.060  17.442  19.412  0.00  0.00    +0.000 A 
ATOM     15  C   UNL     1      -1.017  17.525  18.257  0.00  0.00    +0.000 C 
ATOM     16  N   UNL     1       1.121  16.809  19.193  0.00  0.00    +0.000 NA
ATOM     17  C   UNL     1       3.504  14.647  20.339  0.00  0.00    +0.000 C 
ATOM     18  C   UNL     1       2.391  13.728  20.841  0.00  0.00    +0.000 C 
ENDROOT
BRANCH   1  22
ATOM     19  C   UNL     1      -2.077  10.427  17.333  0.00  0.00    +0.000 A 
ATOM     20  C   UNL     1      -2.015  11.809  17.328  0.00  0.00    +0.000 A 
ATOM     21  C   UNL     1      -1.198  12.479  18.237  0.00  0.00    +0.000 A 
ATOM     22  C   UNL     1      -0.533  11.812  19.282  0.00  0.00    +0.000 A 
ATOM     23  C   UNL     1      -0.538  10.407  19.237  0.00  0.00    +0.000 A 
ATOM     24  C   UNL     1      -1.308   9.726  18.256  0.00  0.00    +0.000 A 
BRANCH  23  25
ATOM     25  N   UNL     1       0.234   9.590  20.104  0.00  0.00    +0.000 N 
ATOM     26  N   UNL     1       1.285   8.861  19.609  0.00  0.00    +0.000 NA
ATOM     27  C   UNL     1       1.746   8.250  20.701  0.00  0.00    +0.000 A 
ATOM     28  C   UNL     1       0.893   8.507  21.775  0.00  0.00    +0.000 A 
ATOM     29  N   UNL     1      -0.096   9.320  21.395  0.00  0.00    +0.000 NA
ENDBRANCH  23  25
BRANCH  19  31
ATOM     30  C   UNL     1      -2.965  10.572  15.136  0.00  0.00    +0.000 C 
ATOM     31  O   UNL     1      -2.900   9.896  16.384  0.00  0.00    +0.000 OA
ENDBRANCH  19  31
ENDBRANCH   1  22
TORSDOF 3
ENDMDL
MODEL 5
REMARK VINA RESULT:      -6.3     10.508     13.701
REMARK  Name = 
REMARK  6 active torsions:
REMARK  status: ('A' for Active; 'I' for Inactive)
REMARK    1  A    between atoms: C_1  and  O_2
REMARK    2  A    between atoms: O_2  and  C_3
REMARK    3  A    between atoms: C_6  and  C_7
REMARK    4  A    between atoms: C_17  and  C_18
REMARK    5  A    between atoms: C_20  and  C_21
REMARK    6  A    between atoms: C_25  and  N_26
REMARK                            x       y       z     vdW  Elec       q    Type
REMARK                         _______ _______ _______ _____ _____    ______ ____
ROOT
ATOM      1  C   UNL     1      -3.251  13.241  21.872  0.00  0.00    +0.000 C 
ATOM      2  O   UNL     1      -3.299  12.258  22.613  0.00  0.00    +0.000 OA
ATOM      3  N   UNL     1      -4.387  14.061  21.604  0.00  0.00    +0.000 N 
ATOM      4  C   UNL     1      -4.306  15.413  21.033  0.00  0.00    +0.000 C 
ATOM      5  C   UNL     1      -5.504  15.843  20.222  0.00  0.00    +0.000 C 
ATOM      6  C   UNL     1      -6.787  15.629  20.996  0.00  0.00    +0.000 C 
ATOM      7  C   UNL     1      -7.842  14.943  20.131  0.00  0.00    +0.000 C 
ATOM      8  N   UNL     1      -7.608  13.716  20.847  0.00  0.00    +0.000 N 
ATOM      9  C   UNL     1      -7.195  12.512  20.223  0.00  0.00    +0.000 A 
ATOM     10  C   UNL     1      -7.622  11.331  20.826  0.00  0.00    +0.000 A 
ATOM     11  C   UNL     1      -7.352  10.104  20.231  0.00  0.00    +0.000 A 
ATOM     12  C   UNL     1      -7.883   8.835  20.815  0.00  0.00    +0.000 C 
ATOM     13  C   UNL     1      -6.604  10.096  19.056  0.00  0.00    +0.000 A 
ATOM     14  C   UNL     1      -6.201  11.308  18.503  0.00  0.00    +0.000 A 
ATOM     15  C   UNL     1      -5.358  11.323  17.259  0.00  0.00    +0.000 C 
ATOM     16  N   UNL     1      -6.507  12.509  19.058  0.00  0.00    +0.000 NA
ATOM     17  C   UNL     1      -6.852  14.386  21.891  0.00  0.00    +0.000 C 
ATOM     18  C   UNL     1      -5.564  13.764  22.428  0.00  0.00    +0.000 C 
ENDROOT
BRANCH   1  22
ATOM     19  C   UNL     1       0.565  14.315  20.094  0.00  0.00    +0.000 A 
ATOM     20  C   UNL     1      -0.335  13.480  19.456  0.00  0.00    +0.000 A 
ATOM     21  C   UNL     1      -1.571  13.203  20.039  0.00  0.00    +0.000 A 
ATOM     22  C   UNL     1      -1.895  13.619  21.342  0.00  0.00    +0.000 A 
ATOM     23  C   UNL     1      -1.013  14.526  21.953  0.00  0.00    +0.000 A 
ATOM     24  C   UNL     1       0.210  14.871  21.318  0.00  0.00    +0.000 A 
BRANCH  23  25
ATOM     25  N   UNL     1      -1.286  15.182  23.183  0.00  0.00    +0.000 N 
ATOM     26  N   UNL     1      -1.110  14.520  24.371  0.00  0.00    +0.000 NA
ATOM     27  C   UNL     1      -1.455  15.445  25.266  0.00  0.00    +0.000 A 
ATOM     28  C   UNL     1      -1.958  16.567  24.607  0.00  0.00    +0.000 A 
ATOM     29  N   UNL     1      -1.898  16.392  23.285  0.00  0.00    +0.000 NA
ENDBRANCH  23  25
BRANCH  19  31
ATOM     30  C   UNL     1       1.989  13.654  18.313  0.00  0.00    +0.000 C 
ATOM     31  O   UNL     1       1.729  14.516  19.411  0.00  0.00    +0.000 OA
ENDBRANCH  19  31
ENDBRANCH   1  22
TORSDOF 3
ENDMDL
MODEL 6
REMARK VINA RESULT:      -6.2      8.606     12.161
REMARK  Name = 
REMARK  6 active torsions:
REMARK  status: ('A' for Active; 'I' for Inactive)
REMARK    1  A    between atoms: C_1  and  O_2
REMARK    2  A    between atoms: O_2  and  C_3
REMARK    3  A    between atoms: C_6  and  C_7
REMARK    4  A    between atoms: C_17  and  C_18
REMARK    5  A    between atoms: C_20  and  C_21
REMARK    6  A    between atoms: C_25  and  N_26
REMARK                            x       y       z     vdW  Elec       q    Type
REMARK                         _______ _______ _______ _____ _____    ______ ____
ROOT
ATOM      1  C   UNL     1      -1.609  12.755  20.386  0.00  0.00    +0.000 C 
ATOM      2  O   UNL     1      -2.352  12.017  19.737  0.00  0.00    +0.000 OA
ATOM      3  N   UNL     1      -1.923  13.198  21.705  0.00  0.00    +0.000 N 
ATOM      4  C   UNL     1      -0.938  13.767  22.635  0.00  0.00    +0.000 C 
ATOM      5  C   UNL     1      -1.490  14.751  23.636  0.00  0.00    +0.000 C 
ATOM      6  C   UNL     1      -2.687  14.173  24.360  0.00  0.00    +0.000 C 
ATOM      7  C   UNL     1      -3.837  15.177  24.408  0.00  0.00    +0.000 C 
ATOM      8  N   UNL     1      -4.518  14.419  23.391  0.00  0.00    +0.000 N 
ATOM      9  C   UNL     1      -4.906  14.961  22.140  0.00  0.00    +0.000 A 
ATOM     10  C   UNL     1      -6.050  14.412  21.563  0.00  0.00    +0.000 A 
ATOM     11  C   UNL     1      -6.564  14.946  20.386  0.00  0.00    +0.000 A 
ATOM     12  C   UNL     1      -7.842  14.431  19.805  0.00  0.00    +0.000 C 
ATOM     13  C   UNL     1      -5.875  15.998  19.787  0.00  0.00    +0.000 A 
ATOM     14  C   UNL     1      -4.735  16.499  20.408  0.00  0.00    +0.000 A 
ATOM     15  C   UNL     1      -3.951  17.605  19.760  0.00  0.00    +0.000 C 
ATOM     16  N   UNL     1      -4.260  16.010  21.583  0.00  0.00    +0.000 NA
ATOM     17  C   UNL     1      -3.625  13.283  23.539  0.00  0.00    +0.000 C 
ATOM     18  C   UNL     1      -3.097  12.554  22.304  0.00  0.00    +0.000 C 
ENDROOT
BRANCH   1  22
ATOM     19  C   UNL     1       2.195  13.958  18.667  0.00  0.00    +0.000 A 
ATOM     20  C   UNL     1       1.104  14.808  18.706  0.00  0.00    +0.000 A 
ATOM     21  C   UNL     1      -0.083  14.400  19.314  0.00  0.00    +0.000 A 
ATOM     22  C   UNL     1      -0.279  13.083  19.768  0.00  0.00    +0.000 A 
ATOM     23  C   UNL     1       0.853  12.250  19.796  0.00  0.00    +0.000 A 
ATOM     24  C   UNL     1       2.085  12.700  19.248  0.00  0.00    +0.000 A 
BRANCH  23  25
ATOM     25  N   UNL     1       0.866  10.962  20.393  0.00  0.00    +0.000 N 
ATOM     26  N   UNL     1       1.066  10.831  21.743  0.00  0.00    +0.000 NA
ATOM     27  C   UNL     1       1.006   9.510  21.913  0.00  0.00    +0.000 A 
ATOM     28  C   UNL     1       0.919   8.884  20.669  0.00  0.00    +0.000 A 
ATOM     29  N   UNL     1       0.875   9.795  19.694  0.00  0.00    +0.000 NA
ENDBRANCH  23  25
BRANCH  19  31
ATOM     30  C   UNL     1       3.242  15.858  17.701  0.00  0.00    +0.000 C 
ATOM     31  O   UNL     1       3.297  14.484  18.059  0.00  0.00    +0.000 OA
ENDBRANCH  19  31
ENDBRANCH   1  22
TORSDOF 3
ENDMDL
MODEL 7
REMARK VINA RESULT:      -6.2      8.045     11.230
REMARK  Name = 
REMARK  6 active torsions:
REMARK  status: ('A' for Active; 'I' for Inactive)
REMARK    1  A    between atoms: C_1  and  O_2
REMARK    2  A    between atoms: O_2  and  C_3
REMARK    3  A    between atoms: C_6  and  C_7
REMARK    4  A    between atoms: C_17  and  C_18
REMARK    5  A    between atoms: C_20  and  C_21
REMARK    6  A    between atoms: C_25  and  N_26
REMARK                            x       y       z     vdW  Elec       q    Type
REMARK                         _______ _______ _______ _____ _____    ______ ____
ROOT
ATOM      1  C   UNL     1      -0.864  11.872  20.359  0.00  0.00    +0.000 C 
ATOM      2  O   UNL     1      -1.034  11.274  21.422  0.00  0.00    +0.000 OA
ATOM      3  N   UNL     1       0.013  12.991  20.235  0.00  0.00    +0.000 N 
ATOM      4  C   UNL     1       0.516  13.500  18.952  0.00  0.00    +0.000 C 
ATOM      5  C   UNL     1       0.833  14.975  18.924  0.00  0.00    +0.000 C 
ATOM      6  C   UNL     1       1.733  15.358  20.079  0.00  0.00    +0.000 C 
ATOM      7  C   UNL     1       1.222  16.614  20.782  0.00  0.00    +0.000 C 
ATOM      8  N   UNL     1       0.751  15.794  21.868  0.00  0.00    +0.000 N 
ATOM      9  C   UNL     1      -0.604  15.750  22.284  0.00  0.00    +0.000 A 
ATOM     10  C   UNL     1      -0.821  15.493  23.636  0.00  0.00    +0.000 A 
ATOM     11  C   UNL     1      -2.110  15.530  24.157  0.00  0.00    +0.000 A 
ATOM     12  C   UNL     1      -2.350  15.349  25.621  0.00  0.00    +0.000 C 
ATOM     13  C   UNL     1      -3.164  15.777  23.281  0.00  0.00    +0.000 A 
ATOM     14  C   UNL     1      -2.885  16.021  21.940  0.00  0.00    +0.000 A 
ATOM     15  C   UNL     1      -4.008  16.247  20.968  0.00  0.00    +0.000 C 
ATOM     16  N   UNL     1      -1.622  16.033  21.440  0.00  0.00    +0.000 NA
ATOM     17  C   UNL     1       1.494  14.634  21.408  0.00  0.00    +0.000 C 
ATOM     18  C   UNL     1       0.843  13.251  21.417  0.00  0.00    +0.000 C 
ENDROOT
BRANCH   1  22
ATOM     19  C   UNL     1      -2.922  10.446  16.809  0.00  0.00    +0.000 A 
ATOM     20  C   UNL     1      -3.431  11.465  17.595  0.00  0.00    +0.000 A 
ATOM     21  C   UNL     1      -2.713  11.928  18.697  0.00  0.00    +0.000 A 
ATOM     22  C   UNL     1      -1.539  11.296  19.146  0.00  0.00    +0.000 A 
ATOM     23  C   UNL     1      -0.988  10.315  18.304  0.00  0.00    +0.000 A 
ATOM     24  C   UNL     1      -1.685   9.903  17.136  0.00  0.00    +0.000 A 
BRANCH  23  25
ATOM     25  N   UNL     1       0.281   9.717  18.519  0.00  0.00    +0.000 N 
ATOM     26  N   UNL     1       1.177   9.612  17.486  0.00  0.00    +0.000 NA
ATOM     27  C   UNL     1       2.217   9.018  18.072  0.00  0.00    +0.000 A 
ATOM     28  C   UNL     1       1.876   8.658  19.376  0.00  0.00    +0.000 A 
ATOM     29  N   UNL     1       0.632   9.056  19.655  0.00  0.00    +0.000 NA
ENDBRANCH  23  25
BRANCH  19  31
ATOM     30  C   UNL     1      -3.116  10.102  14.467  0.00  0.00    +0.000 C 
ATOM     31  O   UNL     1      -3.715  10.099  15.755  0.00  0.00    +0.000 OA
ENDBRANCH  19  31
ENDBRANCH   1  22
TORSDOF 3
ENDMDL
MODEL 8
REMARK VINA RESULT:      -6.1      9.234     12.608
REMARK  Name = 
REMARK  6 active torsions:
REMARK  status: ('A' for Active; 'I' for Inactive)
REMARK    1  A    between atoms: C_1  and  O_2
REMARK    2  A    between atoms: O_2  and  C_3
REMARK    3  A    between atoms: C_6  and  C_7
REMARK    4  A    between atoms: C_17  and  C_18
REMARK    5  A    between atoms: C_20  and  C_21
REMARK    6  A    between atoms: C_25  and  N_26
REMARK                            x       y       z     vdW  Elec       q    Type
REMARK                         _______ _______ _______ _____ _____    ______ ____
ROOT
ATOM      1  C   UNL     1      -2.305  12.860  20.487  0.00  0.00    +0.000 C 
ATOM      2  O   UNL     1      -2.892  12.226  19.609  0.00  0.00    +0.000 OA
ATOM      3  N   UNL     1      -2.945  13.293  21.686  0.00  0.00    +0.000 N 
ATOM      4  C   UNL     1      -2.225  13.724  22.891  0.00  0.00    +0.000 C 
ATOM      5  C   UNL     1      -2.950  14.729  23.751  0.00  0.00    +0.000 C 
ATOM      6  C   UNL     1      -4.354  14.259  24.067  0.00  0.00    +0.000 C 
ATOM      7  C   UNL     1      -5.370  15.377  23.845  0.00  0.00    +0.000 C 
ATOM      8  N   UNL     1      -5.794  14.728  22.632  0.00  0.00    +0.000 N 
ATOM      9  C   UNL     1      -5.750  15.347  21.357  0.00  0.00    +0.000 A 
ATOM     10  C   UNL     1      -6.722  14.942  20.445  0.00  0.00    +0.000 A 
ATOM     11  C   UNL     1      -6.821  15.565  19.205  0.00  0.00    +0.000 A 
ATOM     12  C   UNL     1      -7.917  15.207  18.253  0.00  0.00    +0.000 C 
ATOM     13  C   UNL     1      -5.894  16.555  18.893  0.00  0.00    +0.000 A 
ATOM     14  C   UNL     1      -4.941  16.913  19.843  0.00  0.00    +0.000 A 
ATOM     15  C   UNL     1      -3.904  17.949  19.515  0.00  0.00    +0.000 C 
ATOM     16  N   UNL     1      -4.876  16.340  21.073  0.00  0.00    +0.000 NA
ATOM     17  C   UNL     1      -5.091  13.500  22.958  0.00  0.00    +0.000 C 
ATOM     18  C   UNL     1      -4.297  12.758  21.884  0.00  0.00    +0.000 C 
ENDROOT
BRANCH   1  22
ATOM     19  C   UNL     1       1.923  13.713  19.964  0.00  0.00    +0.000 A 
ATOM     20  C   UNL     1       0.939  14.608  19.580  0.00  0.00    +0.000 A 
ATOM     21  C   UNL     1      -0.404  14.317  19.814  0.00  0.00    +0.000 A 
ATOM     22  C   UNL     1      -0.827  13.065  20.296  0.00  0.00    +0.000 A 
ATOM     23  C   UNL     1       0.175  12.193  20.753  0.00  0.00    +0.000 A 
ATOM     24  C   UNL     1       1.545  12.529  20.588  0.00  0.00    +0.000 A 
BRANCH  23  25
ATOM     25  N   UNL     1      -0.093  10.976  21.434  0.00  0.00    +0.000 N 
ATOM     26  N   UNL     1      -0.150  10.951  22.804  0.00  0.00    +0.000 NA
ATOM     27  C   UNL     1      -0.420   9.670  23.054  0.00  0.00    +0.000 A 
ATOM     28  C   UNL     1      -0.375   8.943  21.864  0.00  0.00    +0.000 A 
ATOM     29  N   UNL     1      -0.123   9.755  20.835  0.00  0.00    +0.000 NA
ENDBRANCH  23  25
BRANCH  19  31
ATOM     30  C   UNL     1       3.572  14.196  18.324  0.00  0.00    +0.000 C 
ATOM     31  O   UNL     1       3.195  14.125  19.692  0.00  0.00    +0.000 OA
ENDBRANCH  19  31
ENDBRANCH   1  22
TORSDOF 3
ENDMDL
MODEL 9
REMARK VINA RESULT:      -6.1      7.393     10.506
REMARK  Name = 
REMARK  6 active torsions:
REMARK  status: ('A' for Active; 'I' for Inactive)
REMARK    1  A    between atoms: C_1  and  O_2
REMARK    2  A    between atoms: O_2  and  C_3
REMARK    3  A    between atoms: C_6  and  C_7
REMARK    4  A    between atoms: C_17  and  C_18
REMARK    5  A    between atoms: C_20  and  C_21
REMARK    6  A    between atoms: C_25  and  N_26
REMARK                            x       y       z     vdW  Elec       q    Type
REMARK                         _______ _______ _______ _____ _____    ______ ____
ROOT
ATOM      1  C   UNL     1       1.362  13.877  20.814  0.00  0.00    +0.000 C 
ATOM      2  O   UNL     1       1.866  13.792  21.934  0.00  0.00    +0.000 OA
ATOM      3  N   UNL     1       0.842  15.099  20.292  0.00  0.00    +0.000 N 
ATOM      4  C   UNL     1       0.567  15.332  18.868  0.00  0.00    +0.000 C 
ATOM      5  C   UNL     1      -0.538  16.317  18.577  0.00  0.00    +0.000 C 
ATOM      6  C   UNL     1      -0.322  17.611  19.332  0.00  0.00    +0.000 C 
ATOM      7  C   UNL     1      -1.607  18.068  20.019  0.00  0.00    +0.000 C 
ATOM      8  N   UNL     1      -1.065  17.639  21.282  0.00  0.00    +0.000 N 
ATOM      9  C   UNL     1      -1.688  16.674  22.113  0.00  0.00    +0.000 A 
ATOM     10  C   UNL     1      -1.479  16.819  23.483  0.00  0.00    +0.000 A 
ATOM     11  C   UNL     1      -2.129  15.981  24.383  0.00  0.00    +0.000 A 
ATOM     12  C   UNL     1      -1.990  16.184  25.857  0.00  0.00    +0.000 C 
ATOM     13  C   UNL     1      -2.942  14.974  23.870  0.00  0.00    +0.000 A 
ATOM     14  C   UNL     1      -3.108  14.875  22.491  0.00  0.00    +0.000 A 
ATOM     15  C   UNL     1      -3.946  13.771  21.912  0.00  0.00    +0.000 C 
ATOM     16  N   UNL     1      -2.512  15.724  21.615  0.00  0.00    +0.000 NA
ATOM     17  C   UNL     1       0.274  17.496  20.740  0.00  0.00    +0.000 C 
ATOM     18  C   UNL     1       1.129  16.284  21.109  0.00  0.00    +0.000 C 
ENDROOT
BRANCH   1  22
ATOM     19  C   UNL     1       1.783  10.394  18.252  0.00  0.00    +0.000 A 
ATOM     20  C   UNL     1       2.409  11.595  17.969  0.00  0.00    +0.000 A 
ATOM     21  C   UNL     1       2.290  12.673  18.845  0.00  0.00    +0.000 A 
ATOM     22  C   UNL     1       1.423  12.646  19.953  0.00  0.00    +0.000 A 
ATOM     23  C   UNL     1       0.851  11.404  20.277  0.00  0.00    +0.000 A 
ATOM     24  C   UNL     1       1.043  10.285  19.424  0.00  0.00    +0.000 A 
BRANCH  23  25
ATOM     25  N   UNL     1       0.107  11.167  21.463  0.00  0.00    +0.000 N 
ATOM     26  N   UNL     1       0.431  10.117  22.282  0.00  0.00    +0.000 NA
ATOM     27  C   UNL     1      -0.467  10.231  23.260  0.00  0.00    +0.000 A 
ATOM     28  C   UNL     1      -1.380  11.236  22.940  0.00  0.00    +0.000 A 
ATOM     29  N   UNL     1      -1.051  11.807  21.779  0.00  0.00    +0.000 NA
ENDBRANCH  23  25
BRANCH  19  31
ATOM     30  C   UNL     1       2.498   8.176  17.794  0.00  0.00    +0.000 C 
ATOM     31  O   UNL     1       1.992   9.417  17.323  0.00  0.00    +0.000 OA
ENDBRANCH  19  31
ENDBRANCH   1  22
TORSDOF 3
ENDMDL
