MODEL 1
REMARK VINA RESULT:      -6.6      0.000      0.000
REMARK  Name = 
REMARK  3 active torsions:
REMARK  status: ('A' for Active; 'I' for Inactive)
REMARK    1  A    between atoms: N_1  and  S_2
REMARK    2  A    between atoms: S_2  and  C_5
REMARK    3  A    between atoms: C_10  and  C_11
REMARK                            x       y       z     vdW  Elec       q    Type
REMARK                         _______ _______ _______ _____ _____    ______ ____
ROOT
ATOM      1  C   UNL     1       1.143   8.669  20.060  0.00  0.00    +0.000 A 
ATOM      2  C   UNL     1       1.269   9.375  18.863  0.00  0.00    +0.000 A 
ATOM      3  C   UNL     1       2.167   8.936  17.884  0.00  0.00    +0.000 A 
ATOM      4  C   UNL     1       2.919   7.762  18.100  0.00  0.00    +0.000 A 
ATOM      5  N   UNL     1       3.845   7.215  17.227  0.00  0.00    +0.000 NA
ATOM      6  C   UNL     1       4.318   6.091  17.722  0.00  0.00    +0.000 A 
ATOM      7  S   UNL     1       3.719   5.650  19.267  0.00  0.00    +0.000 S 
ATOM      8  C   UNL     1       2.736   7.057  19.291  0.00  0.00    +0.000 A 
ATOM      9  C   UNL     1       1.860   7.493  20.297  0.00  0.00    +0.000 A 
ENDROOT
BRANCH   6  10
ATOM     10  C   UNL     1       5.308   5.255  16.989  0.00  0.00    +0.000 A 
ATOM     11  C   UNL     1       6.668   5.514  16.731  0.00  0.00    +0.000 A 
ATOM     12  N   UNL     1       7.249   4.530  16.039  0.00  0.00    +0.000 NA
ATOM     13  N   UNL     1       6.254   3.643  15.856  0.00  0.00    +0.000 N 
ATOM     14  C   UNL     1       5.070   4.029  16.413  0.00  0.00    +0.000 A 
ATOM     15  H   UNL     1       6.458   2.794  15.338  0.00  0.00    +0.000 HD
ENDBRANCH   6  10
BRANCH   1  16
ATOM     16  S   UNL     1       0.022   9.259  21.299  0.00  0.00    +0.000 S 
ATOM     17  O   UNL     1      -0.746   8.148  21.810  0.00  0.00    +0.000 OA
ATOM     18  O   UNL     1      -0.591  10.485  20.836  0.00  0.00    +0.000 OA
BRANCH  16  19
ATOM     19  N   UNL     1       1.083   9.700  22.519  0.00  0.00    +0.000 NA
ATOM     20  H   UNL     1       2.046   9.593  22.196  0.00  0.00    +0.000 HD
ATOM     21  H   UNL     1       0.877   9.186  23.376  0.00  0.00    +0.000 HD
ENDBRANCH  16  19
ENDBRANCH   1  16
TORSDOF 3
ENDMDL
MODEL 2
REMARK VINA RESULT:      -6.4      3.990      7.378
REMARK  Name = 
REMARK  3 active torsions:
REMARK  status: ('A' for Active; 'I' for Inactive)
REMARK    1  A    between atoms: N_1  and  S_2
REMARK    2  A    between atoms: S_2  and  C_5
REMARK    3  A    between atoms: C_10  and  C_11
REMARK                            x       y       z     vdW  Elec       q    Type
REMARK                         _______ _______ _______ _____ _____    ______ ____
ROOT
ATOM      1  C   UNL     1       5.422   5.262  17.169  0.00  0.00    +0.000 A 
ATOM      2  C   UNL     1       5.101   4.502  18.295  0.00  0.00    +0.000 A 
ATOM      3  C   UNL     1       4.159   4.978  19.213  0.00  0.00    +0.000 A 
ATOM      4  C   UNL     1       3.515   6.212  18.980  0.00  0.00    +0.000 A 
ATOM      5  N   UNL     1       2.572   6.807  19.802  0.00  0.00    +0.000 NA
ATOM      6  C   UNL     1       2.141   7.924  19.254  0.00  0.00    +0.000 A 
ATOM      7  S   UNL     1       2.866   8.343  17.758  0.00  0.00    +0.000 S 
ATOM      8  C   UNL     1       3.830   6.925  17.822  0.00  0.00    +0.000 A 
ATOM      9  C   UNL     1       4.789   6.479  16.900  0.00  0.00    +0.000 A 
ENDROOT
BRANCH   6  10
ATOM     10  C   UNL     1       1.093   8.767  19.890  0.00  0.00    +0.000 A 
ATOM     11  C   UNL     1       0.575   8.701  21.198  0.00  0.00    +0.000 A 
ATOM     12  N   UNL     1      -0.363   9.626  21.420  0.00  0.00    +0.000 NA
ATOM     13  N   UNL     1      -0.442  10.282  20.248  0.00  0.00    +0.000 N 
ATOM     14  C   UNL     1       0.416   9.808  19.299  0.00  0.00    +0.000 A 
ATOM     15  H   UNL     1      -1.109  11.043  20.169  0.00  0.00    +0.000 HD
ENDBRANCH   6  10
BRANCH   1  16
ATOM     16  S   UNL     1       6.639   4.655  16.034  0.00  0.00    +0.000 S 
ATOM     17  O   UNL     1       7.176   5.762  15.278  0.00  0.00    +0.000 OA
ATOM     18  O   UNL     1       6.139   3.450  15.406  0.00  0.00    +0.000 OA
BRANCH  16  19
ATOM     19  N   UNL     1       7.852   4.166  17.082  0.00  0.00    +0.000 NA
ATOM     20  H   UNL     1       8.674   4.761  16.962  0.00  0.00    +0.000 HD
ATOM     21  H   UNL     1       8.044   3.171  16.967  0.00  0.00    +0.000 HD
ENDBRANCH  16  19
ENDBRANCH   1  16
TORSDOF 3
ENDMDL
MODEL 3
REMARK VINA RESULT:      -6.4      0.888      1.074
REMARK  Name = 
REMARK  3 active torsions:
REMARK  status: ('A' for Active; 'I' for Inactive)
REMARK    1  A    between atoms: N_1  and  S_2
REMARK    2  A    between atoms: S_2  and  C_5
REMARK    3  A    between atoms: C_10  and  C_11
REMARK                            x       y       z     vdW  Elec       q    Type
REMARK                         _______ _______ _______ _____ _____    ______ ____
ROOT
ATOM      1  C   UNL     1       1.201   8.638  20.252  0.00  0.00    +0.000 A 
ATOM      2  C   UNL     1       1.261   9.357  19.057  0.00  0.00    +0.000 A 
ATOM      3  C   UNL     1       2.078   8.910  18.013  0.00  0.00    +0.000 A 
ATOM      4  C   UNL     1       2.815   7.716  18.162  0.00  0.00    +0.000 A 
ATOM      5  N   UNL     1       3.665   7.159  17.220  0.00  0.00    +0.000 NA
ATOM      6  C   UNL     1       4.143   6.018  17.668  0.00  0.00    +0.000 A 
ATOM      7  S   UNL     1       3.641   5.570  19.245  0.00  0.00    +0.000 S 
ATOM      8  C   UNL     1       2.697   7.000  19.354  0.00  0.00    +0.000 A 
ATOM      9  C   UNL     1       1.903   7.442  20.424  0.00  0.00    +0.000 A 
ENDROOT
BRANCH   6  10
ATOM     10  C   UNL     1       5.059   5.169  16.858  0.00  0.00    +0.000 A 
ATOM     11  C   UNL     1       6.217   5.542  16.150  0.00  0.00    +0.000 A 
ATOM     12  N   UNL     1       6.790   4.504  15.533  0.00  0.00    +0.000 NA
ATOM     13  N   UNL     1       5.992   3.468  15.851  0.00  0.00    +0.000 N 
ATOM     14  C   UNL     1       4.942   3.814  16.649  0.00  0.00    +0.000 A 
ATOM     15  H   UNL     1       6.228   2.552  15.483  0.00  0.00    +0.000 HD
ENDBRANCH   6  10
BRANCH   1  16
ATOM     16  S   UNL     1       0.183   9.237  21.572  0.00  0.00    +0.000 S 
ATOM     17  O   UNL     1       1.023   9.827  22.588  0.00  0.00    +0.000 OA
ATOM     18  O   UNL     1      -0.830   8.248  21.874  0.00  0.00    +0.000 OA
BRANCH  16  19
ATOM     19  N   UNL     1      -0.613  10.507  20.823  0.00  0.00    +0.000 NA
ATOM     20  H   UNL     1      -1.617  10.441  21.003  0.00  0.00    +0.000 HD
ATOM     21  H   UNL     1      -0.375  10.544  19.832  0.00  0.00    +0.000 HD
ENDBRANCH  16  19
ENDBRANCH   1  16
TORSDOF 3
ENDMDL
MODEL 4
REMARK VINA RESULT:      -6.4      0.989      1.147
REMARK  Name = 
REMARK  3 active torsions:
REMARK  status: ('A' for Active; 'I' for Inactive)
REMARK    1  A    between atoms: N_1  and  S_2
REMARK    2  A    between atoms: S_2  and  C_5
REMARK    3  A    between atoms: C_10  and  C_11
REMARK                            x       y       z     vdW  Elec       q    Type
REMARK                         _______ _______ _______ _____ _____    ______ ____
ROOT
ATOM      1  C   UNL     1       1.156   8.934  20.151  0.00  0.00    +0.000 A 
ATOM      2  C   UNL     1       1.238   9.620  18.939  0.00  0.00    +0.000 A 
ATOM      3  C   UNL     1       2.025   9.111  17.900  0.00  0.00    +0.000 A 
ATOM      4  C   UNL     1       2.707   7.888  18.073  0.00  0.00    +0.000 A 
ATOM      5  N   UNL     1       3.523   7.270  17.139  0.00  0.00    +0.000 NA
ATOM      6  C   UNL     1       3.952   6.119  17.611  0.00  0.00    +0.000 A 
ATOM      7  S   UNL     1       3.444   5.733  19.202  0.00  0.00    +0.000 S 
ATOM      8  C   UNL     1       2.567   7.207  19.283  0.00  0.00    +0.000 A 
ATOM      9  C   UNL     1       1.804   7.711  20.348  0.00  0.00    +0.000 A 
ENDROOT
BRANCH   6  10
ATOM     10  C   UNL     1       4.822   5.210  16.815  0.00  0.00    +0.000 A 
ATOM     11  C   UNL     1       5.696   5.522  15.756  0.00  0.00    +0.000 A 
ATOM     12  N   UNL     1       6.319   4.441  15.278  0.00  0.00    +0.000 NA
ATOM     13  N   UNL     1       5.838   3.438  16.035  0.00  0.00    +0.000 N 
ATOM     14  C   UNL     1       4.940   3.849  16.977  0.00  0.00    +0.000 A 
ATOM     15  H   UNL     1       6.168   2.497  15.850  0.00  0.00    +0.000 HD
ENDBRANCH   6  10
BRANCH   1  16
ATOM     16  S   UNL     1       0.177   9.610  21.464  0.00  0.00    +0.000 S 
ATOM     17  O   UNL     1      -0.740  10.583  20.918  0.00  0.00    +0.000 OA
ATOM     18  O   UNL     1       1.035   9.894  22.595  0.00  0.00    +0.000 OA
BRANCH  16  19
ATOM     19  N   UNL     1      -0.748   8.283  21.902  0.00  0.00    +0.000 NA
ATOM     20  H   UNL     1      -1.641   8.596  22.288  0.00  0.00    +0.000 HD
ATOM     21  H   UNL     1      -0.223   7.670  22.525  0.00  0.00    +0.000 HD
ENDBRANCH  16  19
ENDBRANCH   1  16
TORSDOF 3
ENDMDL
MODEL 5
REMARK VINA RESULT:      -6.3      2.502      2.763
REMARK  Name = 
REMARK  3 active torsions:
REMARK  status: ('A' for Active; 'I' for Inactive)
REMARK    1  A    between atoms: N_1  and  S_2
REMARK    2  A    between atoms: S_2  and  C_5
REMARK    3  A    between atoms: C_10  and  C_11
REMARK                            x       y       z     vdW  Elec       q    Type
REMARK                         _______ _______ _______ _____ _____    ______ ____
ROOT
ATOM      1  C   UNL     1       1.387   9.409  19.452  0.00  0.00    +0.000 A 
ATOM      2  C   UNL     1       1.887   9.380  18.149  0.00  0.00    +0.000 A 
ATOM      3  C   UNL     1       2.480   8.213  17.654  0.00  0.00    +0.000 A 
ATOM      4  C   UNL     1       2.541   7.060  18.464  0.00  0.00    +0.000 A 
ATOM      5  N   UNL     1       3.102   5.844  18.111  0.00  0.00    +0.000 NA
ATOM      6  C   UNL     1       2.936   4.974  19.085  0.00  0.00    +0.000 A 
ATOM      7  S   UNL     1       2.147   5.570  20.485  0.00  0.00    +0.000 S 
ATOM      8  C   UNL     1       1.993   7.112  19.747  0.00  0.00    +0.000 A 
ATOM      9  C   UNL     1       1.416   8.278  20.274  0.00  0.00    +0.000 A 
ENDROOT
BRANCH   6  10
ATOM     10  C   UNL     1       3.404   3.565  18.979  0.00  0.00    +0.000 A 
ATOM     11  C   UNL     1       2.848   2.501  18.244  0.00  0.00    +0.000 A 
ATOM     12  N   UNL     1       3.543   1.368  18.387  0.00  0.00    +0.000 NA
ATOM     13  N   UNL     1       4.544   1.715  19.217  0.00  0.00    +0.000 N 
ATOM     14  C   UNL     1       4.508   3.025  19.596  0.00  0.00    +0.000 A 
ATOM     15  H   UNL     1       5.215   1.002  19.483  0.00  0.00    +0.000 HD
ENDBRANCH   6  10
BRANCH   1  16
ATOM     16  S   UNL     1       0.667  10.905  20.069  0.00  0.00    +0.000 S 
ATOM     17  O   UNL     1      -0.768  10.833  19.927  0.00  0.00    +0.000 OA
ATOM     18  O   UNL     1       1.444  12.032  19.600  0.00  0.00    +0.000 OA
BRANCH  16  19
ATOM     19  N   UNL     1       0.986  10.770  21.709  0.00  0.00    +0.000 NA
ATOM     20  H   UNL     1       1.913  11.148  21.914  0.00  0.00    +0.000 HD
ATOM     21  H   UNL     1       0.856   9.808  22.021  0.00  0.00    +0.000 HD
ENDBRANCH  16  19
ENDBRANCH   1  16
TORSDOF 3
ENDMDL
MODEL 6
REMARK VINA RESULT:      -6.3      2.653      2.784
REMARK  Name = 
REMARK  3 active torsions:
REMARK  status: ('A' for Active; 'I' for Inactive)
REMARK    1  A    between atoms: N_1  and  S_2
REMARK    2  A    between atoms: S_2  and  C_5
REMARK    3  A    between atoms: C_10  and  C_11
REMARK                            x       y       z     vdW  Elec       q    Type
REMARK                         _______ _______ _______ _____ _____    ______ ____
ROOT
ATOM      1  C   UNL     1       1.296   9.350  19.709  0.00  0.00    +0.000 A 
ATOM      2  C   UNL     1       1.744   9.376  18.387  0.00  0.00    +0.000 A 
ATOM      3  C   UNL     1       2.331   8.237  17.826  0.00  0.00    +0.000 A 
ATOM      4  C   UNL     1       2.440   7.056  18.591  0.00  0.00    +0.000 A 
ATOM      5  N   UNL     1       3.001   5.861  18.170  0.00  0.00    +0.000 NA
ATOM      6  C   UNL     1       2.886   4.954  19.117  0.00  0.00    +0.000 A 
ATOM      7  S   UNL     1       2.145   5.487  20.568  0.00  0.00    +0.000 S 
ATOM      8  C   UNL     1       1.942   7.053  19.895  0.00  0.00    +0.000 A 
ATOM      9  C   UNL     1       1.372   8.191  20.487  0.00  0.00    +0.000 A 
ENDROOT
BRANCH   6  10
ATOM     10  C   UNL     1       3.367   3.557  18.940  0.00  0.00    +0.000 A 
ATOM     11  C   UNL     1       2.890   2.560  18.068  0.00  0.00    +0.000 A 
ATOM     12  N   UNL     1       3.572   1.416  18.184  0.00  0.00    +0.000 NA
ATOM     13  N   UNL     1       4.485   1.689  19.134  0.00  0.00    +0.000 N 
ATOM     14  C   UNL     1       4.407   2.963  19.616  0.00  0.00    +0.000 A 
ATOM     15  H   UNL     1       5.129   0.953  19.405  0.00  0.00    +0.000 HD
ENDBRANCH   6  10
BRANCH   1  16
ATOM     16  S   UNL     1       0.582  10.811  20.410  0.00  0.00    +0.000 S 
ATOM     17  O   UNL     1       1.033  10.952  21.774  0.00  0.00    +0.000 OA
ATOM     18  O   UNL     1      -0.815  10.880  20.038  0.00  0.00    +0.000 OA
BRANCH  16  19
ATOM     19  N   UNL     1       1.357  12.010  19.532  0.00  0.00    +0.000 NA
ATOM     20  H   UNL     1       1.103  12.929  19.900  0.00  0.00    +0.000 HD
ATOM     21  H   UNL     1       1.171  11.901  18.535  0.00  0.00    +0.000 HD
ENDBRANCH  16  19
ENDBRANCH   1  16
TORSDOF 3
ENDMDL
MODEL 7
REMARK VINA RESULT:      -6.3      4.064      7.374
REMARK  Name = 
REMARK  3 active torsions:
REMARK  status: ('A' for Active; 'I' for Inactive)
REMARK    1  A    between atoms: N_1  and  S_2
REMARK    2  A    between atoms: S_2  and  C_5
REMARK    3  A    between atoms: C_10  and  C_11
REMARK                            x       y       z     vdW  Elec       q    Type
REMARK                         _______ _______ _______ _____ _____    ______ ____
ROOT
ATOM      1  C   UNL     1       5.355   5.074  17.230  0.00  0.00    +0.000 A 
ATOM      2  C   UNL     1       5.083   4.328  18.378  0.00  0.00    +0.000 A 
ATOM      3  C   UNL     1       4.177   4.813  19.328  0.00  0.00    +0.000 A 
ATOM      4  C   UNL     1       3.519   6.041  19.105  0.00  0.00    +0.000 A 
ATOM      5  N   UNL     1       2.607   6.644  19.957  0.00  0.00    +0.000 NA
ATOM      6  C   UNL     1       2.150   7.751  19.412  0.00  0.00    +0.000 A 
ATOM      7  S   UNL     1       2.811   8.153  17.882  0.00  0.00    +0.000 S 
ATOM      8  C   UNL     1       3.783   6.739  17.926  0.00  0.00    +0.000 A 
ATOM      9  C   UNL     1       4.706   6.285  16.971  0.00  0.00    +0.000 A 
ENDROOT
BRANCH   6  10
ATOM     10  C   UNL     1       1.124   8.599  20.079  0.00  0.00    +0.000 A 
ATOM     11  C   UNL     1       0.559   8.462  21.361  0.00  0.00    +0.000 A 
ATOM     12  N   UNL     1      -0.337   9.417  21.625  0.00  0.00    +0.000 NA
ATOM     13  N   UNL     1      -0.342  10.163  20.505  0.00  0.00    +0.000 N 
ATOM     14  C   UNL     1       0.523   9.717  19.550  0.00  0.00    +0.000 A 
ATOM     15  H   UNL     1      -0.966  10.962  20.466  0.00  0.00    +0.000 HD
ENDBRANCH   6  10
BRANCH   1  16
ATOM     16  S   UNL     1       6.527   4.456  16.055  0.00  0.00    +0.000 S 
ATOM     17  O   UNL     1       5.956   3.321  15.369  0.00  0.00    +0.000 OA
ATOM     18  O   UNL     1       7.837   4.420  16.667  0.00  0.00    +0.000 OA
BRANCH  16  19
ATOM     19  N   UNL     1       6.567   5.708  14.941  0.00  0.00    +0.000 NA
ATOM     20  H   UNL     1       5.682   5.747  14.432  0.00  0.00    +0.000 HD
ATOM     21  H   UNL     1       7.385   5.625  14.338  0.00  0.00    +0.000 HD
ENDBRANCH  16  19
ENDBRANCH   1  16
TORSDOF 3
ENDMDL
MODEL 8
REMARK VINA RESULT:      -6.2      3.720      4.808
REMARK  Name = 
REMARK  3 active torsions:
REMARK  status: ('A' for Active; 'I' for Inactive)
REMARK    1  A    between atoms: N_1  and  S_2
REMARK    2  A    between atoms: S_2  and  C_5
REMARK    3  A    between atoms: C_10  and  C_11
REMARK                            x       y       z     vdW  Elec       q    Type
REMARK                         _______ _______ _______ _____ _____    ______ ____
ROOT
ATOM      1  C   UNL     1       2.793   3.836  19.415  0.00  0.00    +0.000 A 
ATOM      2  C   UNL     1       3.034   2.513  19.040  0.00  0.00    +0.000 A 
ATOM      3  C   UNL     1       3.792   2.239  17.896  0.00  0.00    +0.000 A 
ATOM      4  C   UNL     1       4.335   3.303  17.144  0.00  0.00    +0.000 A 
ATOM      5  N   UNL     1       5.096   3.182  15.992  0.00  0.00    +0.000 NA
ATOM      6  C   UNL     1       5.482   4.372  15.584  0.00  0.00    +0.000 A 
ATOM      7  S   UNL     1       4.927   5.695  16.523  0.00  0.00    +0.000 S 
ATOM      8  C   UNL     1       4.109   4.611  17.574  0.00  0.00    +0.000 A 
ATOM      9  C   UNL     1       3.332   4.911  18.703  0.00  0.00    +0.000 A 
ENDROOT
BRANCH   6  10
ATOM     10  C   UNL     1       6.346   4.558  14.387  0.00  0.00    +0.000 A 
ATOM     11  C   UNL     1       6.304   3.886  13.151  0.00  0.00    +0.000 A 
ATOM     12  N   UNL     1       7.242   4.321  12.304  0.00  0.00    +0.000 NA
ATOM     13  N   UNL     1       7.882   5.274  13.006  0.00  0.00    +0.000 N 
ATOM     14  C   UNL     1       7.378   5.459  14.260  0.00  0.00    +0.000 A 
ATOM     15  H   UNL     1       8.657   5.756  12.562  0.00  0.00    +0.000 HD
ENDBRANCH   6  10
BRANCH   1  16
ATOM     16  S   UNL     1       1.806   4.161  20.850  0.00  0.00    +0.000 S 
ATOM     17  O   UNL     1       1.464   5.563  20.881  0.00  0.00    +0.000 OA
ATOM     18  O   UNL     1       2.381   3.472  21.985  0.00  0.00    +0.000 OA
BRANCH  16  19
ATOM     19  N   UNL     1       0.395   3.340  20.472  0.00  0.00    +0.000 NA
ATOM     20  H   UNL     1       0.540   2.770  19.636  0.00  0.00    +0.000 HD
ATOM     21  H   UNL     1      -0.388   3.990  20.396  0.00  0.00    +0.000 HD
ENDBRANCH  16  19
ENDBRANCH   1  16
TORSDOF 3
ENDMDL
MODEL 9
REMARK VINA RESULT:      -6.2      4.357      4.885
REMARK  Name = 
REMARK  3 active torsions:
REMARK  status: ('A' for Active; 'I' for Inactive)
REMARK    1  A    between atoms: N_1  and  S_2
REMARK    2  A    between atoms: S_2  and  C_5
REMARK    3  A    between atoms: C_10  and  C_11
REMARK                            x       y       z     vdW  Elec       q    Type
REMARK                         _______ _______ _______ _____ _____    ______ ____
ROOT
ATOM      1  C   UNL     1       2.930   3.461  19.603  0.00  0.00    +0.000 A 
ATOM      2  C   UNL     1       2.162   2.920  18.570  0.00  0.00    +0.000 A 
ATOM      3  C   UNL     1       2.610   3.005  17.248  0.00  0.00    +0.000 A 
ATOM      4  C   UNL     1       3.854   3.610  16.967  0.00  0.00    +0.000 A 
ATOM      5  N   UNL     1       4.418   3.770  15.712  0.00  0.00    +0.000 NA
ATOM      6  C   UNL     1       5.607   4.324  15.822  0.00  0.00    +0.000 A 
ATOM      7  S   UNL     1       6.094   4.723  17.417  0.00  0.00    +0.000 S 
ATOM      8  C   UNL     1       4.615   4.102  18.028  0.00  0.00    +0.000 A 
ATOM      9  C   UNL     1       4.174   4.051  19.360  0.00  0.00    +0.000 A 
ENDROOT
BRANCH   6  10
ATOM     10  C   UNL     1       6.472   4.587  14.640  0.00  0.00    +0.000 A 
ATOM     11  C   UNL     1       7.552   5.482  14.514  0.00  0.00    +0.000 A 
ATOM     12  N   UNL     1       8.098   5.449  13.295  0.00  0.00    +0.000 NA
ATOM     13  N   UNL     1       7.363   4.530  12.645  0.00  0.00    +0.000 N 
ATOM     14  C   UNL     1       6.377   3.978  13.410  0.00  0.00    +0.000 A 
ATOM     15  H   UNL     1       7.591   4.331  11.676  0.00  0.00    +0.000 HD
ENDBRANCH   6  10
BRANCH   1  16
ATOM     16  S   UNL     1       2.331   3.370  21.267  0.00  0.00    +0.000 S 
ATOM     17  O   UNL     1       2.246   4.703  21.814  0.00  0.00    +0.000 OA
ATOM     18  O   UNL     1       3.002   2.286  21.952  0.00  0.00    +0.000 OA
BRANCH  16  19
ATOM     19  N   UNL     1       0.753   2.860  21.021  0.00  0.00    +0.000 NA
ATOM     20  H   UNL     1       0.203   3.017  21.868  0.00  0.00    +0.000 HD
ATOM     21  H   UNL     1       0.736   1.895  20.691  0.00  0.00    +0.000 HD
ENDBRANCH  16  19
ENDBRANCH   1  16
TORSDOF 3
ENDMDL
