MODEL 1
REMARK VINA RESULT:      -7.7      0.000      0.000
REMARK  Name = 
REMARK  5 active torsions:
REMARK  status: ('A' for Active; 'I' for Inactive)
REMARK    1  A    between atoms: C_1  and  O_2
REMARK    2  A    between atoms: O_2  and  C_3
REMARK    3  A    between atoms: C_7  and  N_8
REMARK    4  A    between atoms: C_10  and  C_11
REMARK    5  A    between atoms: C_11  and  C_12
REMARK                            x       y       z     vdW  Elec       q    Type
REMARK                         _______ _______ _______ _____ _____    ______ ____
ROOT
ATOM      1  N   UNL     1       6.001   4.354  16.087  0.00  0.00    +0.000 N 
ATOM      2  N   UNL     1       4.631   4.368  16.328  0.00  0.00    +0.000 NA
ATOM      3  C   UNL     1       4.201   4.156  17.536  0.00  0.00    +0.000 A 
ATOM      4  C   UNL     1       5.155   3.933  18.675  0.00  0.00    +0.000 A 
ATOM      5  O   UNL     1       4.783   3.479  19.744  0.00  0.00    +0.000 OA
ATOM      6  N   UNL     1       6.455   4.211  18.387  0.00  0.00    +0.000 N 
ATOM      7  C   UNL     1       6.956   4.290  17.112  0.00  0.00    +0.000 A 
ATOM      8  O   UNL     1       8.178   4.294  16.988  0.00  0.00    +0.000 OA
ATOM      9  H   UNL     1       7.138   4.051  19.111  0.00  0.00    +0.000 HD
ENDROOT
BRANCH   1  14
ATOM     10  C   UNL     1       5.975   3.461  12.433  0.00  0.00    +0.000 A 
ATOM     11  C   UNL     1       7.037   4.227  11.959  0.00  0.00    +0.000 A 
ATOM     12  C   UNL     1       7.737   5.065  12.821  0.00  0.00    +0.000 A 
ATOM     13  C   UNL     1       7.384   5.133  14.172  0.00  0.00    +0.000 A 
ATOM     14  C   UNL     1       6.336   4.356  14.686  0.00  0.00    +0.000 A 
ATOM     15  C   UNL     1       5.634   3.525  13.788  0.00  0.00    +0.000 A 
BRANCH  10  17
ATOM     16  C   UNL     1       4.043   3.055  11.106  0.00  0.00    +0.000 C 
ATOM     17  O   UNL     1       5.364   2.688  11.483  0.00  0.00    +0.000 OA
ENDBRANCH  10  17
ENDBRANCH   1  14
BRANCH   3  18
ATOM     18  C   UNL     1       2.700   4.146  17.740  0.00  0.00    +0.000 C 
ATOM     19  C   UNL     1       2.081   5.317  18.450  0.00  0.00    +0.000 C 
ATOM     20  O   UNL     1       2.047   3.193  17.332  0.00  0.00    +0.000 OA
ENDBRANCH   3  18
TORSDOF 3
ENDMDL
MODEL 2
REMARK VINA RESULT:      -7.7      1.666      5.673
REMARK  Name = 
REMARK  5 active torsions:
REMARK  status: ('A' for Active; 'I' for Inactive)
REMARK    1  A    between atoms: C_1  and  O_2
REMARK    2  A    between atoms: O_2  and  C_3
REMARK    3  A    between atoms: C_7  and  N_8
REMARK    4  A    between atoms: C_10  and  C_11
REMARK    5  A    between atoms: C_11  and  C_12
REMARK                            x       y       z     vdW  Elec       q    Type
REMARK                         _______ _______ _______ _____ _____    ______ ____
ROOT
ATOM      1  N   UNL     1       5.582   4.755  15.881  0.00  0.00    +0.000 N 
ATOM      2  N   UNL     1       5.373   4.023  14.717  0.00  0.00    +0.000 NA
ATOM      3  C   UNL     1       6.195   4.172  13.721  0.00  0.00    +0.000 A 
ATOM      4  C   UNL     1       7.381   5.090  13.821  0.00  0.00    +0.000 A 
ATOM      5  O   UNL     1       8.003   5.443  12.833  0.00  0.00    +0.000 OA
ATOM      6  N   UNL     1       7.646   5.538  15.078  0.00  0.00    +0.000 N 
ATOM      7  C   UNL     1       6.735   5.523  16.103  0.00  0.00    +0.000 A 
ATOM      8  O   UNL     1       7.006   6.179  17.105  0.00  0.00    +0.000 OA
ATOM      9  H   UNL     1       8.416   6.178  15.191  0.00  0.00    +0.000 HD
ENDROOT
BRANCH   1  14
ATOM     10  C   UNL     1       2.800   3.348  17.985  0.00  0.00    +0.000 A 
ATOM     11  C   UNL     1       2.240   4.511  18.508  0.00  0.00    +0.000 A 
ATOM     12  C   UNL     1       2.793   5.752  18.207  0.00  0.00    +0.000 A 
ATOM     13  C   UNL     1       3.907   5.837  17.368  0.00  0.00    +0.000 A 
ATOM     14  C   UNL     1       4.480   4.687  16.806  0.00  0.00    +0.000 A 
ATOM     15  C   UNL     1       3.909   3.440  17.137  0.00  0.00    +0.000 A 
BRANCH  10  17
ATOM     16  C   UNL     1       0.804   2.299  18.745  0.00  0.00    +0.000 C 
ATOM     17  O   UNL     1       2.170   2.193  18.365  0.00  0.00    +0.000 OA
ENDBRANCH  10  17
ENDBRANCH   1  14
BRANCH   3  18
ATOM     18  C   UNL     1       5.903   3.380  12.464  0.00  0.00    +0.000 C 
ATOM     19  C   UNL     1       4.523   3.481  11.876  0.00  0.00    +0.000 C 
ATOM     20  O   UNL     1       6.785   2.685  11.975  0.00  0.00    +0.000 OA
ENDBRANCH   3  18
TORSDOF 3
ENDMDL
MODEL 3
REMARK VINA RESULT:      -7.4      1.567      5.649
REMARK  Name = 
REMARK  5 active torsions:
REMARK  status: ('A' for Active; 'I' for Inactive)
REMARK    1  A    between atoms: C_1  and  O_2
REMARK    2  A    between atoms: O_2  and  C_3
REMARK    3  A    between atoms: C_7  and  N_8
REMARK    4  A    between atoms: C_10  and  C_11
REMARK    5  A    between atoms: C_11  and  C_12
REMARK                            x       y       z     vdW  Elec       q    Type
REMARK                         _______ _______ _______ _____ _____    ______ ____
ROOT
ATOM      1  N   UNL     1       6.062   4.372  15.857  0.00  0.00    +0.000 N 
ATOM      2  N   UNL     1       5.756   3.682  14.689  0.00  0.00    +0.000 NA
ATOM      3  C   UNL     1       6.361   4.010  13.586  0.00  0.00    +0.000 A 
ATOM      4  C   UNL     1       7.404   5.092  13.560  0.00  0.00    +0.000 A 
ATOM      5  O   UNL     1       7.786   5.589  12.515  0.00  0.00    +0.000 OA
ATOM      6  N   UNL     1       7.820   5.505  14.788  0.00  0.00    +0.000 N 
ATOM      7  C   UNL     1       7.115   5.295  15.945  0.00  0.00    +0.000 A 
ATOM      8  O   UNL     1       7.463   5.929  16.938  0.00  0.00    +0.000 OA
ATOM      9  H   UNL     1       8.500   6.248  14.824  0.00  0.00    +0.000 HD
ENDROOT
BRANCH   1  14
ATOM     10  C   UNL     1       2.887   3.607  17.722  0.00  0.00    +0.000 A 
ATOM     11  C   UNL     1       3.330   3.649  19.041  0.00  0.00    +0.000 A 
ATOM     12  C   UNL     1       4.671   3.889  19.324  0.00  0.00    +0.000 A 
ATOM     13  C   UNL     1       5.579   4.099  18.282  0.00  0.00    +0.000 A 
ATOM     14  C   UNL     1       5.161   4.086  16.943  0.00  0.00    +0.000 A 
ATOM     15  C   UNL     1       3.798   3.829  16.684  0.00  0.00    +0.000 A 
BRANCH  10  17
ATOM     16  C   UNL     1       0.913   2.639  18.632  0.00  0.00    +0.000 C 
ATOM     17  O   UNL     1       1.549   3.353  17.580  0.00  0.00    +0.000 OA
ENDBRANCH  10  17
ENDBRANCH   1  14
BRANCH   3  18
ATOM     18  C   UNL     1       5.967   3.253  12.335  0.00  0.00    +0.000 C 
ATOM     19  C   UNL     1       4.557   3.406  11.838  0.00  0.00    +0.000 C 
ATOM     20  O   UNL     1       6.796   2.544  11.778  0.00  0.00    +0.000 OA
ENDBRANCH   3  18
TORSDOF 3
ENDMDL
MODEL 4
REMARK VINA RESULT:      -7.4      1.837      5.891
REMARK  Name = 
REMARK  5 active torsions:
REMARK  status: ('A' for Active; 'I' for Inactive)
REMARK    1  A    between atoms: C_1  and  O_2
REMARK    2  A    between atoms: O_2  and  C_3
REMARK    3  A    between atoms: C_7  and  N_8
REMARK    4  A    between atoms: C_10  and  C_11
REMARK    5  A    between atoms: C_11  and  C_12
REMARK                            x       y       z     vdW  Elec       q    Type
REMARK                         _______ _______ _______ _____ _____    ______ ____
ROOT
ATOM      1  N   UNL     1       5.648   4.644  15.810  0.00  0.00    +0.000 N 
ATOM      2  N   UNL     1       5.432   3.934  14.633  0.00  0.00    +0.000 NA
ATOM      3  C   UNL     1       6.229   4.125  13.625  0.00  0.00    +0.000 A 
ATOM      4  C   UNL     1       7.396   5.068  13.721  0.00  0.00    +0.000 A 
ATOM      5  O   UNL     1       7.989   5.457  12.730  0.00  0.00    +0.000 OA
ATOM      6  N   UNL     1       7.676   5.493  14.983  0.00  0.00    +0.000 N 
ATOM      7  C   UNL     1       6.787   5.434  16.025  0.00  0.00    +0.000 A 
ATOM      8  O   UNL     1       7.065   6.073  17.037  0.00  0.00    +0.000 OA
ATOM      9  H   UNL     1       8.434   6.148  15.096  0.00  0.00    +0.000 HD
ENDROOT
BRANCH   1  14
ATOM     10  C   UNL     1       2.930   5.612  18.222  0.00  0.00    +0.000 A 
ATOM     11  C   UNL     1       2.537   4.366  18.703  0.00  0.00    +0.000 A 
ATOM     12  C   UNL     1       3.130   3.206  18.213  0.00  0.00    +0.000 A 
ATOM     13  C   UNL     1       4.133   3.289  17.243  0.00  0.00    +0.000 A 
ATOM     14  C   UNL     1       4.568   4.529  16.755  0.00  0.00    +0.000 A 
ATOM     15  C   UNL     1       3.942   5.689  17.259  0.00  0.00    +0.000 A 
BRANCH  10  17
ATOM     16  C   UNL     1       2.516   7.955  18.221  0.00  0.00    +0.000 C 
ATOM     17  O   UNL     1       2.263   6.671  18.777  0.00  0.00    +0.000 OA
ENDBRANCH  10  17
ENDBRANCH   1  14
BRANCH   3  18
ATOM     18  C   UNL     1       5.929   3.356  12.356  0.00  0.00    +0.000 C 
ATOM     19  C   UNL     1       4.537   3.443  11.795  0.00  0.00    +0.000 C 
ATOM     20  O   UNL     1       6.815   2.689  11.836  0.00  0.00    +0.000 OA
ENDBRANCH   3  18
TORSDOF 3
ENDMDL
MODEL 5
REMARK VINA RESULT:      -7.3      4.092      7.311
REMARK  Name = 
REMARK  5 active torsions:
REMARK  status: ('A' for Active; 'I' for Inactive)
REMARK    1  A    between atoms: C_1  and  O_2
REMARK    2  A    between atoms: O_2  and  C_3
REMARK    3  A    between atoms: C_7  and  N_8
REMARK    4  A    between atoms: C_10  and  C_11
REMARK    5  A    between atoms: C_11  and  C_12
REMARK                            x       y       z     vdW  Elec       q    Type
REMARK                         _______ _______ _______ _____ _____    ______ ____
ROOT
ATOM      1  N   UNL     1       3.114   5.884  19.010  0.00  0.00    +0.000 N 
ATOM      2  N   UNL     1       4.499   5.966  18.919  0.00  0.00    +0.000 NA
ATOM      3  C   UNL     1       5.210   4.896  19.119  0.00  0.00    +0.000 A 
ATOM      4  C   UNL     1       4.560   3.573  19.411  0.00  0.00    +0.000 A 
ATOM      5  O   UNL     1       5.195   2.631  19.855  0.00  0.00    +0.000 OA
ATOM      6  N   UNL     1       3.216   3.545  19.206  0.00  0.00    +0.000 N 
ATOM      7  C   UNL     1       2.429   4.667  19.142  0.00  0.00    +0.000 A 
ATOM      8  O   UNL     1       1.213   4.504  19.208  0.00  0.00    +0.000 OA
ATOM      9  H   UNL     1       2.730   2.686  19.413  0.00  0.00    +0.000 HD
ENDROOT
BRANCH   1  14
ATOM     10  C   UNL     1       1.215   8.896  20.222  0.00  0.00    +0.000 A 
ATOM     11  C   UNL     1       1.065   9.616  19.039  0.00  0.00    +0.000 A 
ATOM     12  C   UNL     1       1.616   9.140  17.854  0.00  0.00    +0.000 A 
ATOM     13  C   UNL     1       2.314   7.929  17.843  0.00  0.00    +0.000 A 
ATOM     14  C   UNL     1       2.463   7.168  19.011  0.00  0.00    +0.000 A 
ATOM     15  C   UNL     1       1.905   7.679  20.203  0.00  0.00    +0.000 A 
BRANCH  10  17
ATOM     16  C   UNL     1      -0.363   8.723  21.994  0.00  0.00    +0.000 C 
ATOM     17  O   UNL     1       0.635   9.476  21.318  0.00  0.00    +0.000 OA
ENDBRANCH  10  17
ENDBRANCH   1  14
BRANCH   3  18
ATOM     18  C   UNL     1       6.715   5.046  19.044  0.00  0.00    +0.000 C 
ATOM     19  C   UNL     1       7.388   4.725  17.739  0.00  0.00    +0.000 C 
ATOM     20  O   UNL     1       7.330   5.412  20.038  0.00  0.00    +0.000 OA
ENDBRANCH   3  18
TORSDOF 3
ENDMDL
MODEL 6
REMARK VINA RESULT:      -7.1      3.528      5.158
REMARK  Name = 
REMARK  5 active torsions:
REMARK  status: ('A' for Active; 'I' for Inactive)
REMARK    1  A    between atoms: C_1  and  O_2
REMARK    2  A    between atoms: O_2  and  C_3
REMARK    3  A    between atoms: C_7  and  N_8
REMARK    4  A    between atoms: C_10  and  C_11
REMARK    5  A    between atoms: C_11  and  C_12
REMARK                            x       y       z     vdW  Elec       q    Type
REMARK                         _______ _______ _______ _____ _____    ______ ____
ROOT
ATOM      1  N   UNL     1       4.584   4.602  18.255  0.00  0.00    +0.000 N 
ATOM      2  N   UNL     1       3.772   4.562  19.384  0.00  0.00    +0.000 NA
ATOM      3  C   UNL     1       2.569   4.081  19.280  0.00  0.00    +0.000 A 
ATOM      4  C   UNL     1       2.057   3.539  17.975  0.00  0.00    +0.000 A 
ATOM      5  O   UNL     1       0.870   3.331  17.789  0.00  0.00    +0.000 OA
ATOM      6  N   UNL     1       3.010   3.372  17.019  0.00  0.00    +0.000 N 
ATOM      7  C   UNL     1       4.232   3.993  17.041  0.00  0.00    +0.000 A 
ATOM      8  O   UNL     1       4.896   3.963  16.008  0.00  0.00    +0.000 OA
ATOM      9  H   UNL     1       2.711   3.035  16.117  0.00  0.00    +0.000 HD
ENDROOT
BRANCH   1  14
ATOM     10  C   UNL     1       7.202   7.260  17.781  0.00  0.00    +0.000 A 
ATOM     11  C   UNL     1       8.183   6.837  18.675  0.00  0.00    +0.000 A 
ATOM     12  C   UNL     1       7.976   5.708  19.461  0.00  0.00    +0.000 A 
ATOM     13  C   UNL     1       6.785   4.985  19.348  0.00  0.00    +0.000 A 
ATOM     14  C   UNL     1       5.787   5.371  18.441  0.00  0.00    +0.000 A 
ATOM     15  C   UNL     1       6.016   6.527  17.665  0.00  0.00    +0.000 A 
BRANCH  10  17
ATOM     16  C   UNL     1       8.191   9.424  17.786  0.00  0.00    +0.000 C 
ATOM     17  O   UNL     1       7.524   8.388  17.076  0.00  0.00    +0.000 OA
ENDBRANCH  10  17
ENDBRANCH   1  14
BRANCH   3  18
ATOM     18  C   UNL     1       1.713   4.094  20.529  0.00  0.00    +0.000 C 
ATOM     19  C   UNL     1       1.835   2.931  21.475  0.00  0.00    +0.000 C 
ATOM     20  O   UNL     1       0.952   5.034  20.725  0.00  0.00    +0.000 OA
ENDBRANCH   3  18
TORSDOF 3
ENDMDL
MODEL 7
REMARK VINA RESULT:      -7.1      1.732      6.003
REMARK  Name = 
REMARK  5 active torsions:
REMARK  status: ('A' for Active; 'I' for Inactive)
REMARK    1  A    between atoms: C_1  and  O_2
REMARK    2  A    between atoms: O_2  and  C_3
REMARK    3  A    between atoms: C_7  and  N_8
REMARK    4  A    between atoms: C_10  and  C_11
REMARK    5  A    between atoms: C_11  and  C_12
REMARK                            x       y       z     vdW  Elec       q    Type
REMARK                         _______ _______ _______ _____ _____    ______ ____
ROOT
ATOM      1  N   UNL     1       5.552   4.225  16.335  0.00  0.00    +0.000 N 
ATOM      2  N   UNL     1       5.427   3.704  15.051  0.00  0.00    +0.000 NA
ATOM      3  C   UNL     1       6.247   4.102  14.125  0.00  0.00    +0.000 A 
ATOM      4  C   UNL     1       7.345   5.083  14.426  0.00  0.00    +0.000 A 
ATOM      5  O   UNL     1       7.947   5.663  13.538  0.00  0.00    +0.000 OA
ATOM      6  N   UNL     1       7.550   5.314  15.751  0.00  0.00    +0.000 N 
ATOM      7  C   UNL     1       6.628   5.035  16.727  0.00  0.00    +0.000 A 
ATOM      8  O   UNL     1       6.826   5.516  17.840  0.00  0.00    +0.000 OA
ATOM      9  H   UNL     1       8.258   5.985  16.002  0.00  0.00    +0.000 HD
ENDROOT
BRANCH   1  14
ATOM     10  C   UNL     1       3.634   3.012  19.334  0.00  0.00    +0.000 A 
ATOM     11  C   UNL     1       2.323   3.113  18.877  0.00  0.00    +0.000 A 
ATOM     12  C   UNL     1       2.060   3.614  17.606  0.00  0.00    +0.000 A 
ATOM     13  C   UNL     1       3.115   4.007  16.776  0.00  0.00    +0.000 A 
ATOM     14  C   UNL     1       4.448   3.895  17.197  0.00  0.00    +0.000 A 
ATOM     15  C   UNL     1       4.686   3.397  18.496  0.00  0.00    +0.000 A 
BRANCH  10  17
ATOM     16  C   UNL     1       2.635   2.661  21.464  0.00  0.00    +0.000 C 
ATOM     17  O   UNL     1       3.757   2.515  20.604  0.00  0.00    +0.000 OA
ENDBRANCH  10  17
ENDBRANCH   1  14
BRANCH   3  18
ATOM     18  C   UNL     1       6.046   3.532  12.736  0.00  0.00    +0.000 C 
ATOM     19  C   UNL     1       4.644   3.486  12.194  0.00  0.00    +0.000 C 
ATOM     20  O   UNL     1       7.016   3.125  12.109  0.00  0.00    +0.000 OA
ENDBRANCH   3  18
TORSDOF 3
ENDMDL
MODEL 8
REMARK VINA RESULT:      -7.0      2.168      6.171
REMARK  Name = 
REMARK  5 active torsions:
REMARK  status: ('A' for Active; 'I' for Inactive)
REMARK    1  A    between atoms: C_1  and  O_2
REMARK    2  A    between atoms: O_2  and  C_3
REMARK    3  A    between atoms: C_7  and  N_8
REMARK    4  A    between atoms: C_10  and  C_11
REMARK    5  A    between atoms: C_11  and  C_12
REMARK                            x       y       z     vdW  Elec       q    Type
REMARK                         _______ _______ _______ _____ _____    ______ ____
ROOT
ATOM      1  N   UNL     1       5.185   4.411  17.840  0.00  0.00    +0.000 N 
ATOM      2  N   UNL     1       5.554   4.273  16.506  0.00  0.00    +0.000 NA
ATOM      3  C   UNL     1       6.494   5.034  16.029  0.00  0.00    +0.000 A 
ATOM      4  C   UNL     1       7.209   6.029  16.900  0.00  0.00    +0.000 A 
ATOM      5  O   UNL     1       7.895   6.919  16.427  0.00  0.00    +0.000 OA
ATOM      6  N   UNL     1       6.968   5.890  18.232  0.00  0.00    +0.000 N 
ATOM      7  C   UNL     1       5.892   5.214  18.748  0.00  0.00    +0.000 A 
ATOM      8  O   UNL     1       5.648   5.374  19.941  0.00  0.00    +0.000 OA
ATOM      9  H   UNL     1       7.404   6.552  18.855  0.00  0.00    +0.000 HD
ENDROOT
BRANCH   1  14
ATOM     10  C   UNL     1       2.089   3.359  19.698  0.00  0.00    +0.000 A 
ATOM     11  C   UNL     1       1.695   2.246  18.960  0.00  0.00    +0.000 A 
ATOM     12  C   UNL     1       2.414   1.861  17.833  0.00  0.00    +0.000 A 
ATOM     13  C   UNL     1       3.545   2.585  17.443  0.00  0.00    +0.000 A 
ATOM     14  C   UNL     1       3.983   3.695  18.179  0.00  0.00    +0.000 A 
ATOM     15  C   UNL     1       3.228   4.072  19.310  0.00  0.00    +0.000 A 
BRANCH  10  17
ATOM     16  C   UNL     1       1.319   2.710  21.854  0.00  0.00    +0.000 C 
ATOM     17  O   UNL     1       1.293   3.637  20.776  0.00  0.00    +0.000 OA
ENDBRANCH  10  17
ENDBRANCH   1  14
BRANCH   3  18
ATOM     18  C   UNL     1       6.834   4.870  14.562  0.00  0.00    +0.000 C 
ATOM     19  C   UNL     1       5.973   3.950  13.742  0.00  0.00    +0.000 C 
ATOM     20  O   UNL     1       7.790   5.478  14.097  0.00  0.00    +0.000 OA
ENDBRANCH   3  18
TORSDOF 3
ENDMDL
MODEL 9
REMARK VINA RESULT:      -7.0      1.045      1.075
REMARK  Name = 
REMARK  5 active torsions:
REMARK  status: ('A' for Active; 'I' for Inactive)
REMARK    1  A    between atoms: C_1  and  O_2
REMARK    2  A    between atoms: O_2  and  C_3
REMARK    3  A    between atoms: C_7  and  N_8
REMARK    4  A    between atoms: C_10  and  C_11
REMARK    5  A    between atoms: C_11  and  C_12
REMARK                            x       y       z     vdW  Elec       q    Type
REMARK                         _______ _______ _______ _____ _____    ______ ____
ROOT
ATOM      1  N   UNL     1       5.948   4.720  15.861  0.00  0.00    +0.000 N 
ATOM      2  N   UNL     1       4.873   3.937  16.271  0.00  0.00    +0.000 NA
ATOM      3  C   UNL     1       4.602   3.851  17.540  0.00  0.00    +0.000 A 
ATOM      4  C   UNL     1       5.405   4.607  18.561  0.00  0.00    +0.000 A 
ATOM      5  O   UNL     1       5.342   4.342  19.749  0.00  0.00    +0.000 OA
ATOM      6  N   UNL     1       6.243   5.544  18.041  0.00  0.00    +0.000 N 
ATOM      7  C   UNL     1       6.656   5.559  16.734  0.00  0.00    +0.000 A 
ATOM      8  O   UNL     1       7.599   6.295  16.451  0.00  0.00    +0.000 OA
ATOM      9  H   UNL     1       6.822   6.059  18.685  0.00  0.00    +0.000 HD
ENDROOT
BRANCH   1  14
ATOM     10  C   UNL     1       5.868   3.438  12.326  0.00  0.00    +0.000 A 
ATOM     11  C   UNL     1       6.996   4.053  11.789  0.00  0.00    +0.000 A 
ATOM     12  C   UNL     1       7.761   4.916  12.567  0.00  0.00    +0.000 A 
ATOM     13  C   UNL     1       7.407   5.162  13.896  0.00  0.00    +0.000 A 
ATOM     14  C   UNL     1       6.291   4.540  14.475  0.00  0.00    +0.000 A 
ATOM     15  C   UNL     1       5.524   3.679  13.661  0.00  0.00    +0.000 A 
BRANCH  10  17
ATOM     16  C   UNL     1       3.893   3.030  11.064  0.00  0.00    +0.000 C 
ATOM     17  O   UNL     1       5.197   2.622  11.456  0.00  0.00    +0.000 OA
ENDBRANCH  10  17
ENDBRANCH   1  14
BRANCH   3  18
ATOM     18  C   UNL     1       3.445   2.959  17.937  0.00  0.00    +0.000 C 
ATOM     19  C   UNL     1       2.064   3.553  17.922  0.00  0.00    +0.000 C 
ATOM     20  O   UNL     1       3.667   1.799  18.261  0.00  0.00    +0.000 OA
ENDBRANCH   3  18
TORSDOF 3
ENDMDL
