MODEL 1
REMARK VINA RESULT:      -8.5      0.000      0.000
REMARK  Name = 
REMARK  3 active torsions:
REMARK  status: ('A' for Active; 'I' for Inactive)
REMARK    1  A    between atoms: C_1  and  C_2
REMARK    2  A    between atoms: C_5  and  N_6
REMARK    3  A    between atoms: C_11  and  C_12
REMARK                            x       y       z     vdW  Elec       q    Type
REMARK                         _______ _______ _______ _____ _____    ______ ____
ROOT
ATOM      1  N   UNL     1       5.456   4.678  17.856  0.00  0.00    +0.000 N 
ATOM      2  C   UNL     1       5.208   3.730  16.916  0.00  0.00    +0.000 C 
ATOM      3  O   UNL     1       5.760   3.433  15.881  0.00  0.00    +0.000 OA
ATOM      4  C   UNL     1       3.965   3.229  17.694  0.00  0.00    +0.000 C 
ATOM      5 CL   UNL     1       2.424   3.338  16.768  0.00  0.00    +0.000 Cl
ATOM      6  C   UNL     1       4.360   4.302  18.764  0.00  0.00    +0.000 C 
ENDROOT
BRANCH   6   7
ATOM      7  C   UNL     1       3.337   5.459  19.161  0.00  0.00    +0.000 A 
ATOM      8  C   UNL     1       3.189   6.631  18.395  0.00  0.00    +0.000 A 
ATOM      9  C   UNL     1       2.351   7.683  18.791  0.00  0.00    +0.000 A 
ATOM     10  C   UNL     1       2.196   8.839  18.006  0.00  0.00    +0.000 A 
ATOM     11  C   UNL     1       1.378   9.879  18.441  0.00  0.00    +0.000 A 
ATOM     12  C   UNL     1       0.727   9.774  19.665  0.00  0.00    +0.000 A 
ATOM     13  C   UNL     1       0.878   8.617  20.436  0.00  0.00    +0.000 A 
ATOM     14  C   UNL     1       1.667   7.555  20.011  0.00  0.00    +0.000 A 
ATOM     15  N   UNL     1       1.758   6.449  20.762  0.00  0.00    +0.000 NA
ATOM     16  C   UNL     1       2.554   5.449  20.319  0.00  0.00    +0.000 A 
ATOM     17 CL   UNL     1       2.535   4.091  21.382  0.00  0.00    +0.000 Cl
ENDBRANCH   6   7
BRANCH   1  22
ATOM     18  C   UNL     1       8.870   9.242  18.246  0.00  0.00    +0.000 C 
ATOM     19  C   UNL     1       7.999   8.029  18.106  0.00  0.00    +0.000 A 
ATOM     20  C   UNL     1       6.977   7.982  17.155  0.00  0.00    +0.000 A 
ATOM     21  C   UNL     1       6.163   6.850  17.044  0.00  0.00    +0.000 A 
ATOM     22  C   UNL     1       6.341   5.756  17.893  0.00  0.00    +0.000 A 
ATOM     23  C   UNL     1       7.385   5.791  18.822  0.00  0.00    +0.000 A 
ATOM     24  C   UNL     1       8.209   6.916  18.929  0.00  0.00    +0.000 A 
ENDBRANCH   1  22
TORSDOF 2
ENDMDL
MODEL 2
REMARK VINA RESULT:      -8.1      0.491      1.122
REMARK  Name = 
REMARK  3 active torsions:
REMARK  status: ('A' for Active; 'I' for Inactive)
REMARK    1  A    between atoms: C_1  and  C_2
REMARK    2  A    between atoms: C_5  and  N_6
REMARK    3  A    between atoms: C_11  and  C_12
REMARK                            x       y       z     vdW  Elec       q    Type
REMARK                         _______ _______ _______ _____ _____    ______ ____
ROOT
ATOM      1  N   UNL     1       5.401   4.686  17.893  0.00  0.00    +0.000 N 
ATOM      2  C   UNL     1       5.171   3.811  16.881  0.00  0.00    +0.000 C 
ATOM      3  O   UNL     1       5.677   3.661  15.792  0.00  0.00    +0.000 OA
ATOM      4  C   UNL     1       4.026   3.133  17.676  0.00  0.00    +0.000 C 
ATOM      5 CL   UNL     1       2.425   3.192  16.854  0.00  0.00    +0.000 Cl
ATOM      6  C   UNL     1       4.401   4.133  18.822  0.00  0.00    +0.000 C 
ENDROOT
BRANCH   6   7
ATOM      7  C   UNL     1       3.315   5.154  19.388  0.00  0.00    +0.000 A 
ATOM      8  C   UNL     1       3.105   6.424  18.818  0.00  0.00    +0.000 A 
ATOM      9  C   UNL     1       2.209   7.352  19.368  0.00  0.00    +0.000 A 
ATOM     10  C   UNL     1       1.993   8.610  18.778  0.00  0.00    +0.000 A 
ATOM     11  C   UNL     1       1.117   9.520  19.365  0.00  0.00    +0.000 A 
ATOM     12  C   UNL     1       0.470   9.183  20.549  0.00  0.00    +0.000 A 
ATOM     13  C   UNL     1       0.682   7.927  21.125  0.00  0.00    +0.000 A 
ATOM     14  C   UNL     1       1.529   6.992  20.544  0.00  0.00    +0.000 A 
ATOM     15  N   UNL     1       1.679   5.786  21.108  0.00  0.00    +0.000 NA
ATOM     16  C   UNL     1       2.530   4.914  20.519  0.00  0.00    +0.000 A 
ATOM     17 CL   UNL     1       2.583   3.404  21.349  0.00  0.00    +0.000 Cl
ENDBRANCH   6   7
BRANCH   1  22
ATOM     18  C   UNL     1       8.853   9.237  18.012  0.00  0.00    +0.000 C 
ATOM     19  C   UNL     1       7.926   8.058  18.020  0.00  0.00    +0.000 A 
ATOM     20  C   UNL     1       8.172   6.955  18.840  0.00  0.00    +0.000 A 
ATOM     21  C   UNL     1       7.306   5.855  18.829  0.00  0.00    +0.000 A 
ATOM     22  C   UNL     1       6.195   5.830  17.985  0.00  0.00    +0.000 A 
ATOM     23  C   UNL     1       5.932   6.948  17.189  0.00  0.00    +0.000 A 
ATOM     24  C   UNL     1       6.788   8.055  17.205  0.00  0.00    +0.000 A 
ENDBRANCH   1  22
TORSDOF 2
ENDMDL
MODEL 3
REMARK VINA RESULT:      -7.2      2.725      5.893
REMARK  Name = 
REMARK  3 active torsions:
REMARK  status: ('A' for Active; 'I' for Inactive)
REMARK    1  A    between atoms: C_1  and  C_2
REMARK    2  A    between atoms: C_5  and  N_6
REMARK    3  A    between atoms: C_11  and  C_12
REMARK                            x       y       z     vdW  Elec       q    Type
REMARK                         _______ _______ _______ _____ _____    ______ ____
ROOT
ATOM      1  N   UNL     1       2.481   4.802  19.439  0.00  0.00    +0.000 N 
ATOM      2  C   UNL     1       2.561   3.956  20.498  0.00  0.00    +0.000 C 
ATOM      3  O   UNL     1       2.329   4.091  21.678  0.00  0.00    +0.000 OA
ATOM      4  C   UNL     1       3.067   2.807  19.590  0.00  0.00    +0.000 C 
ATOM      5 CL   UNL     1       4.690   2.172  20.045  0.00  0.00    +0.000 Cl
ATOM      6  C   UNL     1       2.882   3.824  18.414  0.00  0.00    +0.000 C 
ENDROOT
BRANCH   6   7
ATOM      7  C   UNL     1       4.120   4.227  17.493  0.00  0.00    +0.000 A 
ATOM      8  C   UNL     1       4.156   3.949  16.114  0.00  0.00    +0.000 A 
ATOM      9  C   UNL     1       5.280   4.230  15.323  0.00  0.00    +0.000 A 
ATOM     10  C   UNL     1       5.296   3.966  13.943  0.00  0.00    +0.000 A 
ATOM     11  C   UNL     1       6.438   4.229  13.190  0.00  0.00    +0.000 A 
ATOM     12  C   UNL     1       7.569   4.740  13.817  0.00  0.00    +0.000 A 
ATOM     13  C   UNL     1       7.543   5.010  15.189  0.00  0.00    +0.000 A 
ATOM     14  C   UNL     1       6.407   4.780  15.955  0.00  0.00    +0.000 A 
ATOM     15  N   UNL     1       6.410   5.085  17.260  0.00  0.00    +0.000 NA
ATOM     16  C   UNL     1       5.289   4.825  17.972  0.00  0.00    +0.000 A 
ATOM     17 CL   UNL     1       5.447   5.303  19.621  0.00  0.00    +0.000 Cl
ENDBRANCH   6   7
BRANCH   1  22
ATOM     18  C   UNL     1       1.220  10.357  18.990  0.00  0.00    +0.000 C 
ATOM     19  C   UNL     1       1.597   8.910  19.111  0.00  0.00    +0.000 A 
ATOM     20  C   UNL     1       2.061   8.192  18.006  0.00  0.00    +0.000 A 
ATOM     21  C   UNL     1       2.396   6.839  18.128  0.00  0.00    +0.000 A 
ATOM     22  C   UNL     1       2.255   6.177  19.349  0.00  0.00    +0.000 A 
ATOM     23  C   UNL     1       1.823   6.904  20.461  0.00  0.00    +0.000 A 
ATOM     24  C   UNL     1       1.497   8.259  20.346  0.00  0.00    +0.000 A 
ENDBRANCH   1  22
TORSDOF 2
ENDMDL
MODEL 4
REMARK VINA RESULT:      -7.0      4.648      8.472
REMARK  Name = 
REMARK  3 active torsions:
REMARK  status: ('A' for Active; 'I' for Inactive)
REMARK    1  A    between atoms: C_1  and  C_2
REMARK    2  A    between atoms: C_5  and  N_6
REMARK    3  A    between atoms: C_11  and  C_12
REMARK                            x       y       z     vdW  Elec       q    Type
REMARK                         _______ _______ _______ _____ _____    ______ ____
ROOT
ATOM      1  N   UNL     1      -1.091  12.034  19.550  0.00  0.00    +0.000 N 
ATOM      2  C   UNL     1      -0.573  13.280  19.700  0.00  0.00    +0.000 C 
ATOM      3  O   UNL     1      -0.703  14.306  19.073  0.00  0.00    +0.000 OA
ATOM      4  C   UNL     1       0.230  12.836  20.949  0.00  0.00    +0.000 C 
ATOM      5 CL   UNL     1       2.012  13.035  20.787  0.00  0.00    +0.000 Cl
ATOM      6  C   UNL     1      -0.465  11.447  20.746  0.00  0.00    +0.000 C 
ENDROOT
BRANCH   6   7
ATOM      7  C   UNL     1       0.410  10.133  20.518  0.00  0.00    +0.000 A 
ATOM      8  C   UNL     1       1.112   9.892  19.322  0.00  0.00    +0.000 A 
ATOM      9  C   UNL     1       1.812   8.699  19.092  0.00  0.00    +0.000 A 
ATOM     10  C   UNL     1       2.526   8.479  17.902  0.00  0.00    +0.000 A 
ATOM     11  C   UNL     1       3.187   7.272  17.692  0.00  0.00    +0.000 A 
ATOM     12  C   UNL     1       3.124   6.278  18.662  0.00  0.00    +0.000 A 
ATOM     13  C   UNL     1       2.420   6.507  19.848  0.00  0.00    +0.000 A 
ATOM     14  C   UNL     1       1.775   7.713  20.092  0.00  0.00    +0.000 A 
ATOM     15  N   UNL     1       1.141   7.907  21.256  0.00  0.00    +0.000 NA
ATOM     16  C   UNL     1       0.508   9.089  21.442  0.00  0.00    +0.000 A 
ATOM     17 CL   UNL     1      -0.228   9.189  22.998  0.00  0.00    +0.000 Cl
ENDBRANCH   6   7
BRANCH   1  22
ATOM     18  C   UNL     1      -4.028   9.867  15.154  0.00  0.00    +0.000 C 
ATOM     19  C   UNL     1      -3.280  10.405  16.337  0.00  0.00    +0.000 A 
ATOM     20  C   UNL     1      -3.867  11.334  17.199  0.00  0.00    +0.000 A 
ATOM     21  C   UNL     1      -3.154  11.839  18.292  0.00  0.00    +0.000 A 
ATOM     22  C   UNL     1      -1.837  11.442  18.529  0.00  0.00    +0.000 A 
ATOM     23  C   UNL     1      -1.261  10.489  17.685  0.00  0.00    +0.000 A 
ATOM     24  C   UNL     1      -1.975   9.972  16.598  0.00  0.00    +0.000 A 
ENDBRANCH   1  22
TORSDOF 2
ENDMDL
MODEL 5
REMARK VINA RESULT:      -7.0      1.510      2.163
REMARK  Name = 
REMARK  3 active torsions:
REMARK  status: ('A' for Active; 'I' for Inactive)
REMARK    1  A    between atoms: C_1  and  C_2
REMARK    2  A    between atoms: C_5  and  N_6
REMARK    3  A    between atoms: C_11  and  C_12
REMARK                            x       y       z     vdW  Elec       q    Type
REMARK                         _______ _______ _______ _____ _____    ______ ____
ROOT
ATOM      1  N   UNL     1       6.888   5.479  17.031  0.00  0.00    +0.000 N 
ATOM      2  C   UNL     1       6.881   5.016  15.755  0.00  0.00    +0.000 C 
ATOM      3  O   UNL     1       7.437   5.382  14.744  0.00  0.00    +0.000 OA
ATOM      4  C   UNL     1       5.891   3.885  16.129  0.00  0.00    +0.000 C 
ATOM      5 CL   UNL     1       4.338   3.935  15.219  0.00  0.00    +0.000 Cl
ATOM      6  C   UNL     1       6.008   4.439  17.590  0.00  0.00    +0.000 C 
ENDROOT
BRANCH   6   7
ATOM      7  C   UNL     1       4.711   4.947  18.366  0.00  0.00    +0.000 A 
ATOM      8  C   UNL     1       4.153   6.220  18.149  0.00  0.00    +0.000 A 
ATOM      9  C   UNL     1       3.062   6.697  18.892  0.00  0.00    +0.000 A 
ATOM     10  C   UNL     1       2.501   7.963  18.652  0.00  0.00    +0.000 A 
ATOM     11  C   UNL     1       1.437   8.418  19.427  0.00  0.00    +0.000 A 
ATOM     12  C   UNL     1       0.943   7.618  20.451  0.00  0.00    +0.000 A 
ATOM     13  C   UNL     1       1.500   6.355  20.678  0.00  0.00    +0.000 A 
ATOM     14  C   UNL     1       2.544   5.868  19.901  0.00  0.00    +0.000 A 
ATOM     15  N   UNL     1       3.027   4.639  20.127  0.00  0.00    +0.000 NA
ATOM     16  C   UNL     1       4.057   4.214  19.361  0.00  0.00    +0.000 A 
ATOM     17 CL   UNL     1       4.537   2.606  19.758  0.00  0.00    +0.000 Cl
ENDBRANCH   6   7
BRANCH   1  22
ATOM     18  C   UNL     1       9.327  10.161  19.216  0.00  0.00    +0.000 C 
ATOM     19  C   UNL     1       8.651   8.937  18.673  0.00  0.00    +0.000 A 
ATOM     20  C   UNL     1       8.760   7.706  19.324  0.00  0.00    +0.000 A 
ATOM     21  C   UNL     1       8.136   6.568  18.801  0.00  0.00    +0.000 A 
ATOM     22  C   UNL     1       7.412   6.636  17.609  0.00  0.00    +0.000 A 
ATOM     23  C   UNL     1       7.276   7.875  16.976  0.00  0.00    +0.000 A 
ATOM     24  C   UNL     1       7.888   9.017  17.503  0.00  0.00    +0.000 A 
ENDBRANCH   1  22
TORSDOF 2
ENDMDL
MODEL 6
REMARK VINA RESULT:      -6.9      2.808      3.752
REMARK  Name = 
REMARK  3 active torsions:
REMARK  status: ('A' for Active; 'I' for Inactive)
REMARK    1  A    between atoms: C_1  and  C_2
REMARK    2  A    between atoms: C_5  and  N_6
REMARK    3  A    between atoms: C_11  and  C_12
REMARK                            x       y       z     vdW  Elec       q    Type
REMARK                         _______ _______ _______ _____ _____    ______ ____
ROOT
ATOM      1  N   UNL     1       7.144   5.310  16.615  0.00  0.00    +0.000 N 
ATOM      2  C   UNL     1       7.165   5.032  15.286  0.00  0.00    +0.000 C 
ATOM      3  O   UNL     1       7.645   5.602  14.334  0.00  0.00    +0.000 OA
ATOM      4  C   UNL     1       6.335   3.741  15.504  0.00  0.00    +0.000 C 
ATOM      5 CL   UNL     1       4.767   3.718  14.620  0.00  0.00    +0.000 Cl
ATOM      6  C   UNL     1       6.417   4.098  17.027  0.00  0.00    +0.000 C 
ENDROOT
BRANCH   6   7
ATOM      7  C   UNL     1       5.085   4.323  17.875  0.00  0.00    +0.000 A 
ATOM      8  C   UNL     1       4.698   3.458  18.916  0.00  0.00    +0.000 A 
ATOM      9  C   UNL     1       3.485   3.610  19.604  0.00  0.00    +0.000 A 
ATOM     10  C   UNL     1       3.120   2.751  20.655  0.00  0.00    +0.000 A 
ATOM     11  C   UNL     1       1.896   2.912  21.300  0.00  0.00    +0.000 A 
ATOM     12  C   UNL     1       1.030   3.917  20.887  0.00  0.00    +0.000 A 
ATOM     13  C   UNL     1       1.404   4.774  19.847  0.00  0.00    +0.000 A 
ATOM     14  C   UNL     1       2.631   4.651  19.207  0.00  0.00    +0.000 A 
ATOM     15  N   UNL     1       2.967   5.514  18.239  0.00  0.00    +0.000 NA
ATOM     16  C   UNL     1       4.163   5.344  17.628  0.00  0.00    +0.000 A 
ATOM     17 CL   UNL     1       4.455   6.552  16.433  0.00  0.00    +0.000 Cl
ENDBRANCH   6   7
BRANCH   1  22
ATOM     18  C   UNL     1       9.051   9.875  19.472  0.00  0.00    +0.000 C 
ATOM     19  C   UNL     1       8.511   8.679  18.747  0.00  0.00    +0.000 A 
ATOM     20  C   UNL     1       8.561   7.406  19.321  0.00  0.00    +0.000 A 
ATOM     21  C   UNL     1       8.065   6.296  18.629  0.00  0.00    +0.000 A 
ATOM     22  C   UNL     1       7.532   6.434  17.346  0.00  0.00    +0.000 A 
ATOM     23  C   UNL     1       7.451   7.712  16.787  0.00  0.00    +0.000 A 
ATOM     24  C   UNL     1       7.935   8.827  17.480  0.00  0.00    +0.000 A 
ENDBRANCH   1  22
TORSDOF 2
ENDMDL
MODEL 7
REMARK VINA RESULT:      -6.8      2.078      2.658
REMARK  Name = 
REMARK  3 active torsions:
REMARK  status: ('A' for Active; 'I' for Inactive)
REMARK    1  A    between atoms: C_1  and  C_2
REMARK    2  A    between atoms: C_5  and  N_6
REMARK    3  A    between atoms: C_11  and  C_12
REMARK                            x       y       z     vdW  Elec       q    Type
REMARK                         _______ _______ _______ _____ _____    ______ ____
ROOT
ATOM      1  N   UNL     1       4.435   3.165  18.276  0.00  0.00    +0.000 N 
ATOM      2  C   UNL     1       3.836   1.948  18.320  0.00  0.00    +0.000 C 
ATOM      3  O   UNL     1       3.839   1.002  17.565  0.00  0.00    +0.000 OA
ATOM      4  C   UNL     1       3.167   2.282  19.677  0.00  0.00    +0.000 C 
ATOM      5 CL   UNL     1       1.368   2.223  19.644  0.00  0.00    +0.000 Cl
ATOM      6  C   UNL     1       3.948   3.637  19.583  0.00  0.00    +0.000 C 
ENDROOT
BRANCH   6   7
ATOM      7  C   UNL     1       3.161   5.024  19.590  0.00  0.00    +0.000 A 
ATOM      8  C   UNL     1       3.277   5.962  18.548  0.00  0.00    +0.000 A 
ATOM      9  C   UNL     1       2.650   7.216  18.595  0.00  0.00    +0.000 A 
ATOM     10  C   UNL     1       2.758   8.137  17.539  0.00  0.00    +0.000 A 
ATOM     11  C   UNL     1       2.146   9.384  17.629  0.00  0.00    +0.000 A 
ATOM     12  C   UNL     1       1.441   9.721  18.779  0.00  0.00    +0.000 A 
ATOM     13  C   UNL     1       1.329   8.796  19.822  0.00  0.00    +0.000 A 
ATOM     14  C   UNL     1       1.908   7.536  19.745  0.00  0.00    +0.000 A 
ATOM     15  N   UNL     1       1.749   6.665  20.751  0.00  0.00    +0.000 NA
ATOM     16  C   UNL     1       2.348   5.457  20.641  0.00  0.00    +0.000 A 
ATOM     17 CL   UNL     1       2.019   4.448  22.001  0.00  0.00    +0.000 Cl
ENDBRANCH   6   7
BRANCH   1  22
ATOM     18  C   UNL     1       7.487   5.580  14.093  0.00  0.00    +0.000 C 
ATOM     19  C   UNL     1       6.672   4.989  15.206  0.00  0.00    +0.000 A 
ATOM     20  C   UNL     1       7.159   4.954  16.514  0.00  0.00    +0.000 A 
ATOM     21  C   UNL     1       6.395   4.388  17.541  0.00  0.00    +0.000 A 
ATOM     22  C   UNL     1       5.143   3.830  17.274  0.00  0.00    +0.000 A 
ATOM     23  C   UNL     1       4.643   3.895  15.970  0.00  0.00    +0.000 A 
ATOM     24  C   UNL     1       5.399   4.471  14.943  0.00  0.00    +0.000 A 
ENDBRANCH   1  22
TORSDOF 2
ENDMDL
MODEL 8
REMARK VINA RESULT:      -6.8      4.999      9.011
REMARK  Name = 
REMARK  3 active torsions:
REMARK  status: ('A' for Active; 'I' for Inactive)
REMARK    1  A    between atoms: C_1  and  C_2
REMARK    2  A    between atoms: C_5  and  N_6
REMARK    3  A    between atoms: C_11  and  C_12
REMARK                            x       y       z     vdW  Elec       q    Type
REMARK                         _______ _______ _______ _____ _____    ______ ____
ROOT
ATOM      1  N   UNL     1      -0.892  12.858  20.307  0.00  0.00    +0.000 N 
ATOM      2  C   UNL     1      -0.223  14.039  20.335  0.00  0.00    +0.000 C 
ATOM      3  O   UNL     1      -0.378  15.086  19.749  0.00  0.00    +0.000 OA
ATOM      4  C   UNL     1       0.782  13.489  21.379  0.00  0.00    +0.000 C 
ATOM      5 CL   UNL     1       2.496  13.504  20.827  0.00  0.00    +0.000 Cl
ATOM      6  C   UNL     1      -0.085  12.185  21.338  0.00  0.00    +0.000 C 
ENDROOT
BRANCH   6   7
ATOM      7  C   UNL     1       0.574  10.792  20.927  0.00  0.00    +0.000 A 
ATOM      8  C   UNL     1       1.137  10.569  19.656  0.00  0.00    +0.000 A 
ATOM      9  C   UNL     1       1.640   9.318  19.269  0.00  0.00    +0.000 A 
ATOM     10  C   UNL     1       2.218   9.114  18.004  0.00  0.00    +0.000 A 
ATOM     11  C   UNL     1       2.683   7.853  17.639  0.00  0.00    +0.000 A 
ATOM     12  C   UNL     1       2.556   6.792  18.529  0.00  0.00    +0.000 A 
ATOM     13  C   UNL     1       1.989   7.004  19.789  0.00  0.00    +0.000 A 
ATOM     14  C   UNL     1       1.543   8.259  20.186  0.00  0.00    +0.000 A 
ATOM     15  N   UNL     1       1.038   8.429  21.415  0.00  0.00    +0.000 NA
ATOM     16  C   UNL     1       0.596   9.663  21.751  0.00  0.00    +0.000 A 
ATOM     17 CL   UNL     1       0.008   9.719  23.371  0.00  0.00    +0.000 Cl
ENDBRANCH   6   7
BRANCH   1  22
ATOM     18  C   UNL     1      -5.060  11.181  16.778  0.00  0.00    +0.000 C 
ATOM     19  C   UNL     1      -3.968  11.579  17.726  0.00  0.00    +0.000 A 
ATOM     20  C   UNL     1      -4.262  12.015  19.019  0.00  0.00    +0.000 A 
ATOM     21  C   UNL     1      -3.235  12.397  19.890  0.00  0.00    +0.000 A 
ATOM     22  C   UNL     1      -1.902  12.369  19.477  0.00  0.00    +0.000 A 
ATOM     23  C   UNL     1      -1.607  11.901  18.193  0.00  0.00    +0.000 A 
ATOM     24  C   UNL     1      -2.630  11.507  17.324  0.00  0.00    +0.000 A 
ENDBRANCH   1  22
TORSDOF 2
ENDMDL
MODEL 9
REMARK VINA RESULT:      -6.7      4.976      8.870
REMARK  Name = 
REMARK  3 active torsions:
REMARK  status: ('A' for Active; 'I' for Inactive)
REMARK    1  A    between atoms: C_1  and  C_2
REMARK    2  A    between atoms: C_5  and  N_6
REMARK    3  A    between atoms: C_11  and  C_12
REMARK                            x       y       z     vdW  Elec       q    Type
REMARK                         _______ _______ _______ _____ _____    ______ ____
ROOT
ATOM      1  N   UNL     1      -0.874  12.831  20.150  0.00  0.00    +0.000 N 
ATOM      2  C   UNL     1      -0.210  14.007  20.292  0.00  0.00    +0.000 C 
ATOM      3  O   UNL     1      -0.294  15.072  19.725  0.00  0.00    +0.000 OA
ATOM      4  C   UNL     1       0.668  13.419  21.425  0.00  0.00    +0.000 C 
ATOM      5 CL   UNL     1       2.434  13.441  21.075  0.00  0.00    +0.000 Cl
ATOM      6  C   UNL     1      -0.191  12.121  21.245  0.00  0.00    +0.000 C 
ENDROOT
BRANCH   6   7
ATOM      7  C   UNL     1       0.506  10.738  20.869  0.00  0.00    +0.000 A 
ATOM      8  C   UNL     1       1.069  10.497  19.601  0.00  0.00    +0.000 A 
ATOM      9  C   UNL     1       1.608   9.251  19.246  0.00  0.00    +0.000 A 
ATOM     10  C   UNL     1       2.185   9.029  17.984  0.00  0.00    +0.000 A 
ATOM     11  C   UNL     1       2.685   7.773  17.651  0.00  0.00    +0.000 A 
ATOM     12  C   UNL     1       2.596   6.734  18.571  0.00  0.00    +0.000 A 
ATOM     13  C   UNL     1       2.029   6.964  19.828  0.00  0.00    +0.000 A 
ATOM     14  C   UNL     1       1.547   8.216  20.193  0.00  0.00    +0.000 A 
ATOM     15  N   UNL     1       1.044   8.405  21.420  0.00  0.00    +0.000 NA
ATOM     16  C   UNL     1       0.567   9.634  21.724  0.00  0.00    +0.000 A 
ATOM     17 CL   UNL     1      -0.014   9.718  23.346  0.00  0.00    +0.000 Cl
ENDBRANCH   6   7
BRANCH   1  22
ATOM     18  C   UNL     1      -4.535  10.632  16.355  0.00  0.00    +0.000 C 
ATOM     19  C   UNL     1      -3.578  11.252  17.329  0.00  0.00    +0.000 A 
ATOM     20  C   UNL     1      -2.235  11.441  16.997  0.00  0.00    +0.000 A 
ATOM     21  C   UNL     1      -1.348  12.007  17.920  0.00  0.00    +0.000 A 
ATOM     22  C   UNL     1      -1.783  12.374  19.195  0.00  0.00    +0.000 A 
ATOM     23  C   UNL     1      -3.135  12.214  19.515  0.00  0.00    +0.000 A 
ATOM     24  C   UNL     1      -4.026  11.659  18.591  0.00  0.00    +0.000 A 
ENDBRANCH   1  22
TORSDOF 2
ENDMDL
