MODEL 1
REMARK VINA RESULT:      -9.4      0.000      0.000
REMARK  Name = 
REMARK  5 active torsions:
REMARK  status: ('A' for Active; 'I' for Inactive)
REMARK    1  A    between atoms: C_2  and  C_10
REMARK    2  A    between atoms: N_3  and  C_4
REMARK    3  A    between atoms: C_12  and  C_13
REMARK    4  A    between atoms: C_22  and  C_23
REMARK    5  A    between atoms: C_27  and  C_28
REMARK                            x       y       z     vdW  Elec       q    Type
REMARK                         _______ _______ _______ _____ _____    ______ ____
ROOT
ATOM      1  C   UNL     1      -0.364  12.956  20.703  0.00  0.00    +0.000 A 
ATOM      2  C   UNL     1      -1.044  13.742  21.648  0.00  0.00    +0.000 A 
ATOM      3  C   UNL     1      -1.393  13.175  22.851  0.00  0.00    +0.000 A 
ATOM      4  N   UNL     1      -1.058  11.910  23.163  0.00  0.00    +0.000 NA
ATOM      5  C   UNL     1      -0.388  11.172  22.271  0.00  0.00    +0.000 A 
ATOM      6  C   UNL     1       0.008   9.936  22.724  0.00  0.00    +0.000 A 
ATOM      7  C   UNL     1       0.699   9.046  21.917  0.00  0.00    +0.000 A 
ATOM      8  C   UNL     1       0.980   9.334  20.575  0.00  0.00    +0.000 A 
ATOM      9  C   UNL     1       0.614  10.627  20.122  0.00  0.00    +0.000 A 
ATOM     10  C   UNL     1      -0.045  11.590  20.969  0.00  0.00    +0.000 A 
ENDROOT
BRANCH   8  11
ATOM     11  C   UNL     1       1.713   8.319  19.768  0.00  0.00    +0.000 A 
ATOM     12  C   UNL     1       2.090   8.569  18.431  0.00  0.00    +0.000 A 
ATOM     13  C   UNL     1       2.600   7.564  17.607  0.00  0.00    +0.000 A 
ATOM     14  C   UNL     1       2.788   6.282  18.111  0.00  0.00    +0.000 A 
ATOM     15  C   UNL     1       2.482   5.990  19.448  0.00  0.00    +0.000 A 
ATOM     16  C   UNL     1       1.956   7.028  20.254  0.00  0.00    +0.000 A 
BRANCH  15  17
ATOM     17  C   UNL     1       2.615   4.630  20.005  0.00  0.00    +0.000 A 
ATOM     18  C   UNL     1       3.645   3.774  19.571  0.00  0.00    +0.000 A 
ATOM     19  C   UNL     1       3.871   2.540  20.183  0.00  0.00    +0.000 A 
ATOM     20  C   UNL     1       3.050   2.122  21.223  0.00  0.00    +0.000 A 
ATOM     21  C   UNL     1       1.995   2.929  21.642  0.00  0.00    +0.000 A 
ATOM     22  C   UNL     1       1.780   4.172  21.038  0.00  0.00    +0.000 A 
ENDBRANCH  15  17
ENDBRANCH   8  11
BRANCH   3  23
ATOM     23  C   UNL     1      -2.124  13.874  23.895  0.00  0.00    +0.000 A 
ATOM     24  C   UNL     1      -3.429  13.795  24.351  0.00  0.00    +0.000 A 
ATOM     25  C   UNL     1      -3.557  14.747  25.388  0.00  0.00    +0.000 A 
ATOM     26  C   UNL     1      -2.323  15.340  25.512  0.00  0.00    +0.000 A 
ATOM     27  O   UNL     1      -1.447  14.818  24.613  0.00  0.00    +0.000 OA
ENDBRANCH   3  23
BRANCH   1  29
ATOM     28  O   UNL     1      -0.299  13.448  18.451  0.00  0.00    +0.000 OA
ATOM     29  C   UNL     1       0.147  13.749  19.554  0.00  0.00    +0.000 C 
ATOM     30  N   UNL     1       1.142  14.672  19.803  0.00  0.00    +0.000 N 
ATOM     31  H   UNL     1       1.507  14.731  20.746  0.00  0.00    +0.000 HD
BRANCH  30  32
ATOM     32  C   UNL     1       1.833  15.409  18.803  0.00  0.00    +0.000 A 
ATOM     33  C   UNL     1       2.937  14.932  18.093  0.00  0.00    +0.000 A 
ATOM     34  C   UNL     1       3.586  15.747  17.164  0.00  0.00    +0.000 A 
ATOM     35  C   UNL     1       3.100  17.024  16.959  0.00  0.00    +0.000 A 
ATOM     36  N   UNL     1       2.022  17.522  17.601  0.00  0.00    +0.000 NA
ATOM     37  C   UNL     1       1.419  16.705  18.501  0.00  0.00    +0.000 A 
ENDBRANCH  30  32
ENDBRANCH   1  29
TORSDOF 5
ENDMDL
MODEL 2
REMARK VINA RESULT:      -9.4      1.216      1.587
REMARK  Name = 
REMARK  5 active torsions:
REMARK  status: ('A' for Active; 'I' for Inactive)
REMARK    1  A    between atoms: C_2  and  C_10
REMARK    2  A    between atoms: N_3  and  C_4
REMARK    3  A    between atoms: C_12  and  C_13
REMARK    4  A    between atoms: C_22  and  C_23
REMARK    5  A    between atoms: C_27  and  C_28
REMARK                            x       y       z     vdW  Elec       q    Type
REMARK                         _______ _______ _______ _____ _____    ______ ____
ROOT
ATOM      1  C   UNL     1      -0.509  12.288  20.314  0.00  0.00    +0.000 A 
ATOM      2  C   UNL     1      -1.359  12.909  21.245  0.00  0.00    +0.000 A 
ATOM      3  C   UNL     1      -1.768  12.195  22.347  0.00  0.00    +0.000 A 
ATOM      4  N   UNL     1      -1.338  10.942  22.579  0.00  0.00    +0.000 NA
ATOM      5  C   UNL     1      -0.510  10.362  21.704  0.00  0.00    +0.000 A 
ATOM      6  C   UNL     1      -0.037   9.128  22.085  0.00  0.00    +0.000 A 
ATOM      7  C   UNL     1       0.819   8.391  21.284  0.00  0.00    +0.000 A 
ATOM      8  C   UNL     1       1.204   8.836  20.012  0.00  0.00    +0.000 A 
ATOM      9  C   UNL     1       0.755  10.128  19.639  0.00  0.00    +0.000 A 
ATOM     10  C   UNL     1      -0.081  10.937  20.491  0.00  0.00    +0.000 A 
ENDROOT
BRANCH   8  11
ATOM     11  C   UNL     1       2.114   7.979  19.203  0.00  0.00    +0.000 A 
ATOM     12  C   UNL     1       2.864   8.503  18.128  0.00  0.00    +0.000 A 
ATOM     13  C   UNL     1       3.566   7.680  17.246  0.00  0.00    +0.000 A 
ATOM     14  C   UNL     1       3.573   6.303  17.438  0.00  0.00    +0.000 A 
ATOM     15  C   UNL     1       2.891   5.732  18.521  0.00  0.00    +0.000 A 
ATOM     16  C   UNL     1       2.179   6.592  19.390  0.00  0.00    +0.000 A 
BRANCH  15  17
ATOM     17  C   UNL     1       2.829   4.271  18.727  0.00  0.00    +0.000 A 
ATOM     18  C   UNL     1       1.951   3.717  19.678  0.00  0.00    +0.000 A 
ATOM     19  C   UNL     1       1.778   2.336  19.789  0.00  0.00    +0.000 A 
ATOM     20  C   UNL     1       2.505   1.479  18.973  0.00  0.00    +0.000 A 
ATOM     21  C   UNL     1       3.415   1.999  18.056  0.00  0.00    +0.000 A 
ATOM     22  C   UNL     1       3.575   3.384  17.935  0.00  0.00    +0.000 A 
ENDBRANCH  15  17
ENDBRANCH   8  11
BRANCH   3  23
ATOM     23  C   UNL     1      -2.668  12.716  23.362  0.00  0.00    +0.000 A 
ATOM     24  C   UNL     1      -2.765  13.939  24.003  0.00  0.00    +0.000 A 
ATOM     25  C   UNL     1      -3.842  13.838  24.914  0.00  0.00    +0.000 A 
ATOM     26  C   UNL     1      -4.344  12.567  24.767  0.00  0.00    +0.000 A 
ATOM     27  O   UNL     1      -3.641  11.879  23.829  0.00  0.00    +0.000 OA
ENDBRANCH   3  23
BRANCH   1  29
ATOM     28  O   UNL     1      -0.415  13.123  18.167  0.00  0.00    +0.000 OA
ATOM     29  C   UNL     1       0.031  13.235  19.304  0.00  0.00    +0.000 C 
ATOM     30  N   UNL     1       1.050  14.080  19.697  0.00  0.00    +0.000 N 
ATOM     31  H   UNL     1       1.409  13.980  20.639  0.00  0.00    +0.000 HD
BRANCH  30  32
ATOM     32  C   UNL     1       1.768  14.943  18.826  0.00  0.00    +0.000 A 
ATOM     33  C   UNL     1       2.940  14.589  18.154  0.00  0.00    +0.000 A 
ATOM     34  C   UNL     1       3.607  15.522  17.358  0.00  0.00    +0.000 A 
ATOM     35  C   UNL     1       3.071  16.791  17.244  0.00  0.00    +0.000 A 
ATOM     36  N   UNL     1       1.929  17.173  17.852  0.00  0.00    +0.000 NA
ATOM     37  C   UNL     1       1.309  16.244  18.623  0.00  0.00    +0.000 A 
ENDBRANCH  30  32
ENDBRANCH   1  29
TORSDOF 5
ENDMDL
MODEL 3
REMARK VINA RESULT:      -9.2      1.457      1.640
REMARK  Name = 
REMARK  5 active torsions:
REMARK  status: ('A' for Active; 'I' for Inactive)
REMARK    1  A    between atoms: C_2  and  C_10
REMARK    2  A    between atoms: N_3  and  C_4
REMARK    3  A    between atoms: C_12  and  C_13
REMARK    4  A    between atoms: C_22  and  C_23
REMARK    5  A    between atoms: C_27  and  C_28
REMARK                            x       y       z     vdW  Elec       q    Type
REMARK                         _______ _______ _______ _____ _____    ______ ____
ROOT
ATOM      1  C   UNL     1       0.485  13.423  21.124  0.00  0.00    +0.000 A 
ATOM      2  C   UNL     1      -0.206  14.226  22.047  0.00  0.00    +0.000 A 
ATOM      3  C   UNL     1      -0.963  13.616  23.019  0.00  0.00    +0.000 A 
ATOM      4  N   UNL     1      -1.019  12.278  23.138  0.00  0.00    +0.000 NA
ATOM      5  C   UNL     1      -0.341  11.515  22.274  0.00  0.00    +0.000 A 
ATOM      6  C   UNL     1      -0.368  10.168  22.546  0.00  0.00    +0.000 A 
ATOM      7  C   UNL     1       0.274   9.243  21.739  0.00  0.00    +0.000 A 
ATOM      8  C   UNL     1       0.937   9.625  20.565  0.00  0.00    +0.000 A 
ATOM      9  C   UNL     1       1.006  11.018  20.309  0.00  0.00    +0.000 A 
ATOM     10  C   UNL     1       0.401  11.998  21.177  0.00  0.00    +0.000 A 
ENDROOT
BRANCH   8  11
ATOM     11  C   UNL     1       1.589   8.570  19.740  0.00  0.00    +0.000 A 
ATOM     12  C   UNL     1       2.043   8.831  18.429  0.00  0.00    +0.000 A 
ATOM     13  C   UNL     1       2.476   7.810  17.581  0.00  0.00    +0.000 A 
ATOM     14  C   UNL     1       2.507   6.496  18.035  0.00  0.00    +0.000 A 
ATOM     15  C   UNL     1       2.119   6.187  19.346  0.00  0.00    +0.000 A 
ATOM     16  C   UNL     1       1.675   7.242  20.177  0.00  0.00    +0.000 A 
BRANCH  15  17
ATOM     17  C   UNL     1       2.086   4.798  19.848  0.00  0.00    +0.000 A 
ATOM     18  C   UNL     1       2.234   4.528  21.221  0.00  0.00    +0.000 A 
ATOM     19  C   UNL     1       2.067   3.239  21.730  0.00  0.00    +0.000 A 
ATOM     20  C   UNL     1       1.780   2.186  20.870  0.00  0.00    +0.000 A 
ATOM     21  C   UNL     1       1.674   2.419  19.501  0.00  0.00    +0.000 A 
ATOM     22  C   UNL     1       1.826   3.714  18.995  0.00  0.00    +0.000 A 
ENDBRANCH  15  17
ENDBRANCH   8  11
BRANCH   3  23
ATOM     23  C   UNL     1      -1.746  14.337  24.009  0.00  0.00    +0.000 A 
ATOM     24  C   UNL     1      -3.107  14.504  24.201  0.00  0.00    +0.000 A 
ATOM     25  C   UNL     1      -3.261  15.334  25.335  0.00  0.00    +0.000 A 
ATOM     26  C   UNL     1      -1.989  15.615  25.773  0.00  0.00    +0.000 A 
ATOM     27  O   UNL     1      -1.064  15.015  24.979  0.00  0.00    +0.000 OA
ENDBRANCH   3  23
BRANCH   1  29
ATOM     28  O   UNL     1       0.952  14.746  19.295  0.00  0.00    +0.000 OA
ATOM     29  C   UNL     1       1.433  14.197  20.281  0.00  0.00    +0.000 C 
ATOM     30  N   UNL     1       2.772  14.149  20.612  0.00  0.00    +0.000 N 
ATOM     31  H   UNL     1       3.047  13.552  21.383  0.00  0.00    +0.000 HD
BRANCH  30  32
ATOM     32  C   UNL     1       3.819  14.713  19.835  0.00  0.00    +0.000 A 
ATOM     33  C   UNL     1       4.153  14.303  18.542  0.00  0.00    +0.000 A 
ATOM     34  C   UNL     1       5.233  14.881  17.874  0.00  0.00    +0.000 A 
ATOM     35  C   UNL     1       5.949  15.873  18.518  0.00  0.00    +0.000 A 
ATOM     36  N   UNL     1       5.652  16.321  19.755  0.00  0.00    +0.000 NA
ATOM     37  C   UNL     1       4.599  15.733  20.379  0.00  0.00    +0.000 A 
ENDBRANCH  30  32
ENDBRANCH   1  29
TORSDOF 5
ENDMDL
MODEL 4
REMARK VINA RESULT:      -9.0      0.801      1.102
REMARK  Name = 
REMARK  5 active torsions:
REMARK  status: ('A' for Active; 'I' for Inactive)
REMARK    1  A    between atoms: C_2  and  C_10
REMARK    2  A    between atoms: N_3  and  C_4
REMARK    3  A    between atoms: C_12  and  C_13
REMARK    4  A    between atoms: C_22  and  C_23
REMARK    5  A    between atoms: C_27  and  C_28
REMARK                            x       y       z     vdW  Elec       q    Type
REMARK                         _______ _______ _______ _____ _____    ______ ____
ROOT
ATOM      1  C   UNL     1      -0.584  13.088  20.444  0.00  0.00    +0.000 A 
ATOM      2  C   UNL     1      -1.348  13.870  21.327  0.00  0.00    +0.000 A 
ATOM      3  C   UNL     1      -1.779  13.307  22.505  0.00  0.00    +0.000 A 
ATOM      4  N   UNL     1      -1.448  12.051  22.853  0.00  0.00    +0.000 NA
ATOM      5  C   UNL     1      -0.701  11.317  22.022  0.00  0.00    +0.000 A 
ATOM      6  C   UNL     1      -0.321  10.091  22.515  0.00  0.00    +0.000 A 
ATOM      7  C   UNL     1       0.444   9.206  21.772  0.00  0.00    +0.000 A 
ATOM      8  C   UNL     1       0.823   9.488  20.453  0.00  0.00    +0.000 A 
ATOM      9  C   UNL     1       0.472  10.770  19.961  0.00  0.00    +0.000 A 
ATOM     10  C   UNL     1      -0.265  11.730  20.747  0.00  0.00    +0.000 A 
ENDROOT
BRANCH   8  11
ATOM     11  C   UNL     1       1.631   8.479  19.714  0.00  0.00    +0.000 A 
ATOM     12  C   UNL     1       2.146   8.743  18.426  0.00  0.00    +0.000 A 
ATOM     13  C   UNL     1       2.735   7.745  17.647  0.00  0.00    +0.000 A 
ATOM     14  C   UNL     1       2.864   6.455  18.152  0.00  0.00    +0.000 A 
ATOM     15  C   UNL     1       2.420   6.150  19.447  0.00  0.00    +0.000 A 
ATOM     16  C   UNL     1       1.817   7.181  20.206  0.00  0.00    +0.000 A 
BRANCH  15  17
ATOM     17  C   UNL     1       2.490   4.782  19.998  0.00  0.00    +0.000 A 
ATOM     18  C   UNL     1       3.598   3.957  19.731  0.00  0.00    +0.000 A 
ATOM     19  C   UNL     1       3.747   2.717  20.355  0.00  0.00    +0.000 A 
ATOM     20  C   UNL     1       2.774   2.262  21.235  0.00  0.00    +0.000 A 
ATOM     21  C   UNL     1       1.644   3.039  21.482  0.00  0.00    +0.000 A 
ATOM     22  C   UNL     1       1.504   4.289  20.868  0.00  0.00    +0.000 A 
ENDBRANCH  15  17
ENDBRANCH   8  11
BRANCH   3  23
ATOM     23  C   UNL     1      -2.599  14.002  23.484  0.00  0.00    +0.000 A 
ATOM     24  C   UNL     1      -2.301  14.711  24.635  0.00  0.00    +0.000 A 
ATOM     25  C   UNL     1      -3.533  15.142  25.179  0.00  0.00    +0.000 A 
ATOM     26  C   UNL     1      -4.506  14.681  24.324  0.00  0.00    +0.000 A 
ATOM     27  O   UNL     1      -3.951  13.991  23.293  0.00  0.00    +0.000 OA
ENDBRANCH   3  23
BRANCH   1  29
ATOM     28  O   UNL     1      -0.354  13.563  18.199  0.00  0.00    +0.000 OA
ATOM     29  C   UNL     1      -0.000  13.880  19.330  0.00  0.00    +0.000 C 
ATOM     30  N   UNL     1       0.958  14.823  19.646  0.00  0.00    +0.000 N 
ATOM     31  H   UNL     1       1.247  14.895  20.614  0.00  0.00    +0.000 HD
BRANCH  30  32
ATOM     32  C   UNL     1       1.711  15.562  18.695  0.00  0.00    +0.000 A 
ATOM     33  C   UNL     1       1.354  16.823  18.212  0.00  0.00    +0.000 A 
ATOM     34  C   UNL     1       2.130  17.453  17.238  0.00  0.00    +0.000 A 
ATOM     35  C   UNL     1       3.261  16.804  16.779  0.00  0.00    +0.000 A 
ATOM     36  N   UNL     1       3.662  15.597  17.231  0.00  0.00    +0.000 NA
ATOM     37  C   UNL     1       2.881  15.011  18.174  0.00  0.00    +0.000 A 
ENDBRANCH  30  32
ENDBRANCH   1  29
TORSDOF 5
ENDMDL
MODEL 5
REMARK VINA RESULT:      -9.0      3.050      5.965
REMARK  Name = 
REMARK  5 active torsions:
REMARK  status: ('A' for Active; 'I' for Inactive)
REMARK    1  A    between atoms: C_2  and  C_10
REMARK    2  A    between atoms: N_3  and  C_4
REMARK    3  A    between atoms: C_12  and  C_13
REMARK    4  A    between atoms: C_22  and  C_23
REMARK    5  A    between atoms: C_27  and  C_28
REMARK                            x       y       z     vdW  Elec       q    Type
REMARK                         _______ _______ _______ _____ _____    ______ ____
ROOT
ATOM      1  C   UNL     1      -1.167  13.158  19.838  0.00  0.00    +0.000 A 
ATOM      2  C   UNL     1      -1.183  14.533  19.547  0.00  0.00    +0.000 A 
ATOM      3  C   UNL     1      -0.095  15.088  18.916  0.00  0.00    +0.000 A 
ATOM      4  N   UNL     1       0.955  14.343  18.527  0.00  0.00    +0.000 NA
ATOM      5  C   UNL     1       0.957  13.031  18.783  0.00  0.00    +0.000 A 
ATOM      6  C   UNL     1       2.017  12.338  18.247  0.00  0.00    +0.000 A 
ATOM      7  C   UNL     1       2.171  10.974  18.432  0.00  0.00    +0.000 A 
ATOM      8  C   UNL     1       1.285  10.234  19.227  0.00  0.00    +0.000 A 
ATOM      9  C   UNL     1       0.167  10.938  19.740  0.00  0.00    +0.000 A 
ATOM     10  C   UNL     1      -0.045  12.344  19.499  0.00  0.00    +0.000 A 
ENDROOT
BRANCH   8  11
ATOM     11  C   UNL     1       1.527   8.774  19.392  0.00  0.00    +0.000 A 
ATOM     12  C   UNL     1       1.133   8.086  20.560  0.00  0.00    +0.000 A 
ATOM     13  C   UNL     1       1.524   6.769  20.809  0.00  0.00    +0.000 A 
ATOM     14  C   UNL     1       2.290   6.083  19.873  0.00  0.00    +0.000 A 
ATOM     15  C   UNL     1       2.663   6.699  18.670  0.00  0.00    +0.000 A 
ATOM     16  C   UNL     1       2.261   8.038  18.453  0.00  0.00    +0.000 A 
BRANCH  15  17
ATOM     17  C   UNL     1       3.521   6.024  17.676  0.00  0.00    +0.000 A 
ATOM     18  C   UNL     1       4.434   6.761  16.897  0.00  0.00    +0.000 A 
ATOM     19  C   UNL     1       5.348   6.126  16.054  0.00  0.00    +0.000 A 
ATOM     20  C   UNL     1       5.346   4.741  15.949  0.00  0.00    +0.000 A 
ATOM     21  C   UNL     1       4.423   3.990  16.673  0.00  0.00    +0.000 A 
ATOM     22  C   UNL     1       3.518   4.627  17.529  0.00  0.00    +0.000 A 
ENDBRANCH  15  17
ENDBRANCH   8  11
BRANCH   3  23
ATOM     23  C   UNL     1       0.021  16.500  18.590  0.00  0.00    +0.000 A 
ATOM     24  C   UNL     1      -0.784  17.377  17.885  0.00  0.00    +0.000 A 
ATOM     25  C   UNL     1      -0.128  18.629  17.892  0.00  0.00    +0.000 A 
ATOM     26  C   UNL     1       1.031  18.445  18.608  0.00  0.00    +0.000 A 
ATOM     27  O   UNL     1       1.130  17.159  19.037  0.00  0.00    +0.000 OA
ENDBRANCH   3  23
BRANCH   1  29
ATOM     28  O   UNL     1      -2.486  12.094  21.401  0.00  0.00    +0.000 OA
ATOM     29  C   UNL     1      -2.484  12.654  20.310  0.00  0.00    +0.000 C 
ATOM     30  N   UNL     1      -3.558  12.760  19.449  0.00  0.00    +0.000 N 
ATOM     31  H   UNL     1      -3.386  13.134  18.523  0.00  0.00    +0.000 HD
BRANCH  30  32
ATOM     32  C   UNL     1      -4.844  12.206  19.687  0.00  0.00    +0.000 A 
ATOM     33  C   UNL     1      -5.672  12.561  20.754  0.00  0.00    +0.000 A 
ATOM     34  C   UNL     1      -6.900  11.925  20.938  0.00  0.00    +0.000 A 
ATOM     35  C   UNL     1      -7.277  10.950  20.033  0.00  0.00    +0.000 A 
ATOM     36  N   UNL     1      -6.524  10.589  18.973  0.00  0.00    +0.000 NA
ATOM     37  C   UNL     1      -5.334  11.224  18.827  0.00  0.00    +0.000 A 
ENDBRANCH  30  32
ENDBRANCH   1  29
TORSDOF 5
ENDMDL
MODEL 6
REMARK VINA RESULT:      -9.0      2.436      5.948
REMARK  Name = 
REMARK  5 active torsions:
REMARK  status: ('A' for Active; 'I' for Inactive)
REMARK    1  A    between atoms: C_2  and  C_10
REMARK    2  A    between atoms: N_3  and  C_4
REMARK    3  A    between atoms: C_12  and  C_13
REMARK    4  A    between atoms: C_22  and  C_23
REMARK    5  A    between atoms: C_27  and  C_28
REMARK                            x       y       z     vdW  Elec       q    Type
REMARK                         _______ _______ _______ _____ _____    ______ ____
ROOT
ATOM      1  C   UNL     1      -0.923  13.212  20.015  0.00  0.00    +0.000 A 
ATOM      2  C   UNL     1      -0.964  14.575  19.676  0.00  0.00    +0.000 A 
ATOM      3  C   UNL     1       0.028  15.086  18.872  0.00  0.00    +0.000 A 
ATOM      4  N   UNL     1       1.001  14.308  18.366  0.00  0.00    +0.000 NA
ATOM      5  C   UNL     1       1.023  13.006  18.670  0.00  0.00    +0.000 A 
ATOM      6  C   UNL     1       1.986  12.275  18.015  0.00  0.00    +0.000 A 
ATOM      7  C   UNL     1       2.148  10.916  18.230  0.00  0.00    +0.000 A 
ATOM      8  C   UNL     1       1.378  10.223  19.173  0.00  0.00    +0.000 A 
ATOM      9  C   UNL     1       0.355  10.965  19.814  0.00  0.00    +0.000 A 
ATOM     10  C   UNL     1       0.128  12.365  19.550  0.00  0.00    +0.000 A 
ENDROOT
BRANCH   8  11
ATOM     11  C   UNL     1       1.623   8.766  19.359  0.00  0.00    +0.000 A 
ATOM     12  C   UNL     1       1.258   8.100  20.549  0.00  0.00    +0.000 A 
ATOM     13  C   UNL     1       1.654   6.787  20.813  0.00  0.00    +0.000 A 
ATOM     14  C   UNL     1       2.397   6.084  19.871  0.00  0.00    +0.000 A 
ATOM     15  C   UNL     1       2.740   6.677  18.648  0.00  0.00    +0.000 A 
ATOM     16  C   UNL     1       2.334   8.012  18.416  0.00  0.00    +0.000 A 
BRANCH  15  17
ATOM     17  C   UNL     1       3.573   5.983  17.646  0.00  0.00    +0.000 A 
ATOM     18  C   UNL     1       4.472   6.703  16.837  0.00  0.00    +0.000 A 
ATOM     19  C   UNL     1       5.365   6.051  15.984  0.00  0.00    +0.000 A 
ATOM     20  C   UNL     1       5.354   4.664  15.899  0.00  0.00    +0.000 A 
ATOM     21  C   UNL     1       4.442   3.930  16.654  0.00  0.00    +0.000 A 
ATOM     22  C   UNL     1       3.560   4.584  17.520  0.00  0.00    +0.000 A 
ENDBRANCH  15  17
ENDBRANCH   8  11
BRANCH   3  23
ATOM     23  C   UNL     1       0.113  16.482  18.477  0.00  0.00    +0.000 A 
ATOM     24  C   UNL     1      -0.840  17.459  18.243  0.00  0.00    +0.000 A 
ATOM     25  C   UNL     1      -0.141  18.629  17.868  0.00  0.00    +0.000 A 
ATOM     26  C   UNL     1       1.193  18.301  17.906  0.00  0.00    +0.000 A 
ATOM     27  O   UNL     1       1.359  17.004  18.275  0.00  0.00    +0.000 OA
ENDBRANCH   3  23
BRANCH   1  29
ATOM     28  O   UNL     1      -2.893  12.014  20.035  0.00  0.00    +0.000 OA
ATOM     29  C   UNL     1      -2.163  12.749  20.692  0.00  0.00    +0.000 C 
ATOM     30  N   UNL     1      -2.441  13.261  21.944  0.00  0.00    +0.000 N 
ATOM     31  H   UNL     1      -1.810  13.960  22.319  0.00  0.00    +0.000 HD
BRANCH  30  32
ATOM     32  C   UNL     1      -3.644  13.032  22.664  0.00  0.00    +0.000 A 
ATOM     33  C   UNL     1      -4.900  13.502  22.273  0.00  0.00    +0.000 A 
ATOM     34  C   UNL     1      -6.020  13.273  23.072  0.00  0.00    +0.000 A 
ATOM     35  C   UNL     1      -5.855  12.562  24.246  0.00  0.00    +0.000 A 
ATOM     36  N   UNL     1      -4.669  12.067  24.656  0.00  0.00    +0.000 NA
ATOM     37  C   UNL     1      -3.599  12.313  23.857  0.00  0.00    +0.000 A 
ENDBRANCH  30  32
ENDBRANCH   1  29
TORSDOF 5
ENDMDL
MODEL 7
REMARK VINA RESULT:      -8.9      2.881      5.932
REMARK  Name = 
REMARK  5 active torsions:
REMARK  status: ('A' for Active; 'I' for Inactive)
REMARK    1  A    between atoms: C_2  and  C_10
REMARK    2  A    between atoms: N_3  and  C_4
REMARK    3  A    between atoms: C_12  and  C_13
REMARK    4  A    between atoms: C_22  and  C_23
REMARK    5  A    between atoms: C_27  and  C_28
REMARK                            x       y       z     vdW  Elec       q    Type
REMARK                         _______ _______ _______ _____ _____    ______ ____
ROOT
ATOM      1  C   UNL     1      -0.994  13.211  20.023  0.00  0.00    +0.000 A 
ATOM      2  C   UNL     1      -1.020  14.586  19.731  0.00  0.00    +0.000 A 
ATOM      3  C   UNL     1       0.016  15.128  19.009  0.00  0.00    +0.000 A 
ATOM      4  N   UNL     1       1.022  14.372  18.535  0.00  0.00    +0.000 NA
ATOM      5  C   UNL     1       1.032  13.060  18.793  0.00  0.00    +0.000 A 
ATOM      6  C   UNL     1       2.037  12.356  18.172  0.00  0.00    +0.000 A 
ATOM      7  C   UNL     1       2.192  10.990  18.348  0.00  0.00    +0.000 A 
ATOM      8  C   UNL     1       1.369  10.261  19.217  0.00  0.00    +0.000 A 
ATOM      9  C   UNL     1       0.305  10.977  19.820  0.00  0.00    +0.000 A 
ATOM     10  C   UNL     1       0.088  12.385  19.593  0.00  0.00    +0.000 A 
ENDROOT
BRANCH   8  11
ATOM     11  C   UNL     1       1.610   8.799  19.365  0.00  0.00    +0.000 A 
ATOM     12  C   UNL     1       1.162   8.086  20.498  0.00  0.00    +0.000 A 
ATOM     13  C   UNL     1       1.547   6.766  20.741  0.00  0.00    +0.000 A 
ATOM     14  C   UNL     1       2.362   6.102  19.831  0.00  0.00    +0.000 A 
ATOM     15  C   UNL     1       2.791   6.743  18.660  0.00  0.00    +0.000 A 
ATOM     16  C   UNL     1       2.394   8.085  18.449  0.00  0.00    +0.000 A 
BRANCH  15  17
ATOM     17  C   UNL     1       3.701   6.092  17.697  0.00  0.00    +0.000 A 
ATOM     18  C   UNL     1       3.732   4.690  17.574  0.00  0.00    +0.000 A 
ATOM     19  C   UNL     1       4.481   4.064  16.576  0.00  0.00    +0.000 A 
ATOM     20  C   UNL     1       5.240   4.827  15.699  0.00  0.00    +0.000 A 
ATOM     21  C   UNL     1       5.265   6.214  15.828  0.00  0.00    +0.000 A 
ATOM     22  C   UNL     1       4.501   6.840  16.818  0.00  0.00    +0.000 A 
ENDBRANCH  15  17
ENDBRANCH   8  11
BRANCH   3  23
ATOM     23  C   UNL     1       0.118  16.538  18.670  0.00  0.00    +0.000 A 
ATOM     24  C   UNL     1      -0.479  17.324  17.699  0.00  0.00    +0.000 A 
ATOM     25  C   UNL     1       0.035  18.631  17.859  0.00  0.00    +0.000 A 
ATOM     26  C   UNL     1       0.905  18.568  18.921  0.00  0.00    +0.000 A 
ATOM     27  O   UNL     1       0.962  17.306  19.421  0.00  0.00    +0.000 OA
ENDBRANCH   3  23
BRANCH   1  29
ATOM     28  O   UNL     1      -2.170  11.999  21.592  0.00  0.00    +0.000 OA
ATOM     29  C   UNL     1      -2.271  12.721  20.606  0.00  0.00    +0.000 C 
ATOM     30  N   UNL     1      -3.440  13.026  19.938  0.00  0.00    +0.000 N 
ATOM     31  H   UNL     1      -3.366  13.529  19.061  0.00  0.00    +0.000 HD
BRANCH  30  32
ATOM     32  C   UNL     1      -4.723  12.522  20.280  0.00  0.00    +0.000 A 
ATOM     33  C   UNL     1      -5.565  11.841  19.398  0.00  0.00    +0.000 A 
ATOM     34  C   UNL     1      -6.833  11.427  19.808  0.00  0.00    +0.000 A 
ATOM     35  C   UNL     1      -7.223  11.696  21.106  0.00  0.00    +0.000 A 
ATOM     36  N   UNL     1      -6.438  12.327  22.004  0.00  0.00    +0.000 NA
ATOM     37  C   UNL     1      -5.214  12.721  21.570  0.00  0.00    +0.000 A 
ENDBRANCH  30  32
ENDBRANCH   1  29
TORSDOF 5
ENDMDL
MODEL 8
REMARK VINA RESULT:      -8.9      1.272      1.410
REMARK  Name = 
REMARK  5 active torsions:
REMARK  status: ('A' for Active; 'I' for Inactive)
REMARK    1  A    between atoms: C_2  and  C_10
REMARK    2  A    between atoms: N_3  and  C_4
REMARK    3  A    between atoms: C_12  and  C_13
REMARK    4  A    between atoms: C_22  and  C_23
REMARK    5  A    between atoms: C_27  and  C_28
REMARK                            x       y       z     vdW  Elec       q    Type
REMARK                         _______ _______ _______ _____ _____    ______ ____
ROOT
ATOM      1  C   UNL     1       0.407  13.362  21.061  0.00  0.00    +0.000 A 
ATOM      2  C   UNL     1      -0.299  14.149  21.988  0.00  0.00    +0.000 A 
ATOM      3  C   UNL     1      -1.020  13.520  22.975  0.00  0.00    +0.000 A 
ATOM      4  N   UNL     1      -1.026  12.181  23.105  0.00  0.00    +0.000 NA
ATOM      5  C   UNL     1      -0.334  11.436  22.237  0.00  0.00    +0.000 A 
ATOM      6  C   UNL     1      -0.308  10.091  22.521  0.00  0.00    +0.000 A 
ATOM      7  C   UNL     1       0.355   9.183  21.711  0.00  0.00    +0.000 A 
ATOM      8  C   UNL     1       0.988   9.579  20.525  0.00  0.00    +0.000 A 
ATOM      9  C   UNL     1       1.002  10.971  20.258  0.00  0.00    +0.000 A 
ATOM     10  C   UNL     1       0.375  11.937  21.126  0.00  0.00    +0.000 A 
ENDROOT
BRANCH   8  11
ATOM     11  C   UNL     1       1.665   8.541  19.700  0.00  0.00    +0.000 A 
ATOM     12  C   UNL     1       1.971   8.761  18.339  0.00  0.00    +0.000 A 
ATOM     13  C   UNL     1       2.426   7.735  17.509  0.00  0.00    +0.000 A 
ATOM     14  C   UNL     1       2.630   6.461  18.028  0.00  0.00    +0.000 A 
ATOM     15  C   UNL     1       2.395   6.199  19.385  0.00  0.00    +0.000 A 
ATOM     16  C   UNL     1       1.923   7.257  20.197  0.00  0.00    +0.000 A 
BRANCH  15  17
ATOM     17  C   UNL     1       2.547   4.848  19.961  0.00  0.00    +0.000 A 
ATOM     18  C   UNL     1       3.518   3.960  19.463  0.00  0.00    +0.000 A 
ATOM     19  C   UNL     1       3.769   2.735  20.083  0.00  0.00    +0.000 A 
ATOM     20  C   UNL     1       3.031   2.359  21.198  0.00  0.00    +0.000 A 
ATOM     21  C   UNL     1       2.032   3.199  21.684  0.00  0.00    +0.000 A 
ATOM     22  C   UNL     1       1.792   4.433  21.071  0.00  0.00    +0.000 A 
ENDBRANCH  15  17
ENDBRANCH   8  11
BRANCH   3  23
ATOM     23  C   UNL     1      -1.815  14.220  23.971  0.00  0.00    +0.000 A 
ATOM     24  C   UNL     1      -3.178  14.339  24.181  0.00  0.00    +0.000 A 
ATOM     25  C   UNL     1      -3.345  15.174  25.309  0.00  0.00    +0.000 A 
ATOM     26  C   UNL     1      -2.078  15.504  25.727  0.00  0.00    +0.000 A 
ATOM     27  O   UNL     1      -1.144  14.931  24.924  0.00  0.00    +0.000 OA
ENDBRANCH   3  23
BRANCH   1  29
ATOM     28  O   UNL     1       0.858  14.515  19.116  0.00  0.00    +0.000 OA
ATOM     29  C   UNL     1       1.315  14.163  20.199  0.00  0.00    +0.000 C 
ATOM     30  N   UNL     1       2.611  14.353  20.634  0.00  0.00    +0.000 N 
ATOM     31  H   UNL     1       2.892  13.899  21.495  0.00  0.00    +0.000 HD
BRANCH  30  32
ATOM     32  C   UNL     1       3.639  14.970  19.871  0.00  0.00    +0.000 A 
ATOM     33  C   UNL     1       4.202  16.214  20.166  0.00  0.00    +0.000 A 
ATOM     34  C   UNL     1       5.172  16.766  19.329  0.00  0.00    +0.000 A 
ATOM     35  C   UNL     1       5.567  16.047  18.217  0.00  0.00    +0.000 A 
ATOM     36  N   UNL     1       5.073  14.831  17.903  0.00  0.00    +0.000 NA
ATOM     37  C   UNL     1       4.127  14.326  18.735  0.00  0.00    +0.000 A 
ENDBRANCH  30  32
ENDBRANCH   1  29
TORSDOF 5
ENDMDL
MODEL 9
REMARK VINA RESULT:      -8.8      1.464      1.617
REMARK  Name = 
REMARK  5 active torsions:
REMARK  status: ('A' for Active; 'I' for Inactive)
REMARK    1  A    between atoms: C_2  and  C_10
REMARK    2  A    between atoms: N_3  and  C_4
REMARK    3  A    between atoms: C_12  and  C_13
REMARK    4  A    between atoms: C_22  and  C_23
REMARK    5  A    between atoms: C_27  and  C_28
REMARK                            x       y       z     vdW  Elec       q    Type
REMARK                         _______ _______ _______ _____ _____    ______ ____
ROOT
ATOM      1  C   UNL     1       0.425  13.343  21.100  0.00  0.00    +0.000 A 
ATOM      2  C   UNL     1      -0.273  14.164  22.002  0.00  0.00    +0.000 A 
ATOM      3  C   UNL     1      -1.026  13.572  22.988  0.00  0.00    +0.000 A 
ATOM      4  N   UNL     1      -1.071  12.236  23.140  0.00  0.00    +0.000 NA
ATOM      5  C   UNL     1      -0.386  11.458  22.296  0.00  0.00    +0.000 A 
ATOM      6  C   UNL     1      -0.403  10.117  22.601  0.00  0.00    +0.000 A 
ATOM      7  C   UNL     1       0.248   9.178  21.818  0.00  0.00    +0.000 A 
ATOM      8  C   UNL     1       0.909   9.537  20.635  0.00  0.00    +0.000 A 
ATOM      9  C   UNL     1       0.966  10.923  20.345  0.00  0.00    +0.000 A 
ATOM     10  C   UNL     1       0.353  11.920  21.188  0.00  0.00    +0.000 A 
ENDROOT
BRANCH   8  11
ATOM     11  C   UNL     1       1.570   8.467  19.838  0.00  0.00    +0.000 A 
ATOM     12  C   UNL     1       2.104   8.722  18.556  0.00  0.00    +0.000 A 
ATOM     13  C   UNL     1       2.549   7.694  17.723  0.00  0.00    +0.000 A 
ATOM     14  C   UNL     1       2.512   6.376  18.165  0.00  0.00    +0.000 A 
ATOM     15  C   UNL     1       2.043   6.070  19.451  0.00  0.00    +0.000 A 
ATOM     16  C   UNL     1       1.588   7.133  20.266  0.00  0.00    +0.000 A 
BRANCH  15  17
ATOM     17  C   UNL     1       1.936   4.680  19.937  0.00  0.00    +0.000 A 
ATOM     18  C   UNL     1       1.663   3.626  19.044  0.00  0.00    +0.000 A 
ATOM     19  C   UNL     1       1.696   2.294  19.461  0.00  0.00    +0.000 A 
ATOM     20  C   UNL     1       1.972   1.990  20.788  0.00  0.00    +0.000 A 
ATOM     21  C   UNL     1       2.200   3.016  21.702  0.00  0.00    +0.000 A 
ATOM     22  C   UNL     1       2.183   4.349  21.280  0.00  0.00    +0.000 A 
ENDBRANCH  15  17
ENDBRANCH   8  11
BRANCH   3  23
ATOM     23  C   UNL     1      -1.816  14.310  23.959  0.00  0.00    +0.000 A 
ATOM     24  C   UNL     1      -1.484  15.183  24.981  0.00  0.00    +0.000 A 
ATOM     25  C   UNL     1      -2.696  15.570  25.598  0.00  0.00    +0.000 A 
ATOM     26  C   UNL     1      -3.694  14.921  24.911  0.00  0.00    +0.000 A 
ATOM     27  O   UNL     1      -3.172  14.157  23.915  0.00  0.00    +0.000 OA
ENDBRANCH   3  23
BRANCH   1  29
ATOM     28  O   UNL     1       0.899  14.566  19.204  0.00  0.00    +0.000 OA
ATOM     29  C   UNL     1       1.368  14.104  20.239  0.00  0.00    +0.000 C 
ATOM     30  N   UNL     1       2.696  14.138  20.615  0.00  0.00    +0.000 N 
ATOM     31  H   UNL     1       2.969  13.606  21.433  0.00  0.00    +0.000 HD
BRANCH  30  32
ATOM     32  C   UNL     1       3.744  14.699  19.837  0.00  0.00    +0.000 A 
ATOM     33  C   UNL     1       4.059  14.304  18.535  0.00  0.00    +0.000 A 
ATOM     34  C   UNL     1       5.142  14.876  17.866  0.00  0.00    +0.000 A 
ATOM     35  C   UNL     1       5.879  15.846  18.518  0.00  0.00    +0.000 A 
ATOM     36  N   UNL     1       5.601  16.279  19.765  0.00  0.00    +0.000 NA
ATOM     37  C   UNL     1       4.545  15.698  20.389  0.00  0.00    +0.000 A 
ENDBRANCH  30  32
ENDBRANCH   1  29
TORSDOF 5
ENDMDL
