MODEL 1
REMARK VINA RESULT:      -7.3      0.000      0.000
REMARK  Name = 
REMARK  7 active torsions:
REMARK  status: ('A' for Active; 'I' for Inactive)
REMARK    1  A    between atoms: C_1  and  C_2
REMARK    2  A    between atoms: C_5  and  C_6
REMARK    3  A    between atoms: N_8  and  C_9
REMARK    4  A    between atoms: C_16  and  C_17
REMARK    5  A    between atoms: C_17  and  N_18
REMARK    6  A    between atoms: C_20  and  C_21
REMARK    7  A    between atoms: C_21  and  O_22
REMARK                            x       y       z     vdW  Elec       q    Type
REMARK                         _______ _______ _______ _____ _____    ______ ____
ROOT
ATOM      1  C   UNL     1       2.502   6.610  19.001  0.00  0.00    +0.000 A 
ATOM      2  N   UNL     1       1.880   7.068  20.100  0.00  0.00    +0.000 NA
ATOM      3  N   UNL     1       1.623   8.379  19.870  0.00  0.00    +0.000 N 
ATOM      4  C   UNL     1       2.149   8.780  18.667  0.00  0.00    +0.000 A 
ATOM      5  C   UNL     1       2.741   7.680  18.080  0.00  0.00    +0.000 A 
ENDROOT
BRANCH   1  10
ATOM      6  C   UNL     1       3.892   0.996  18.490  0.00  0.00    +0.000 C 
ATOM      7  C   UNL     1       3.520   2.443  18.626  0.00  0.00    +0.000 A 
ATOM      8  C   UNL     1       4.267   3.287  19.439  0.00  0.00    +0.000 A 
ATOM      9  C   UNL     1       3.943   4.640  19.543  0.00  0.00    +0.000 A 
ATOM     10  C   UNL     1       2.843   5.183  18.875  0.00  0.00    +0.000 A 
ATOM     11  C   UNL     1       2.095   4.331  18.050  0.00  0.00    +0.000 A 
ATOM     12  C   UNL     1       2.430   2.975  17.925  0.00  0.00    +0.000 A 
ENDBRANCH   1  10
BRANCH   3  13
ATOM     13  C   UNL     1       0.897   9.173  20.803  0.00  0.00    +0.000 A 
ATOM     14  C   UNL     1       0.421  10.434  20.423  0.00  0.00    +0.000 A 
ATOM     15  C   UNL     1      -0.299  11.219  21.329  0.00  0.00    +0.000 A 
ATOM     16  C   UNL     1      -0.538  10.756  22.622  0.00  0.00    +0.000 A 
ATOM     17  C   UNL     1      -0.060   9.508  23.012  0.00  0.00    +0.000 A 
ATOM     18  C   UNL     1       0.652   8.714  22.108  0.00  0.00    +0.000 A 
ENDBRANCH   3  13
BRANCH   5  19
ATOM     19  C   UNL     1       3.465   7.677  16.774  0.00  0.00    +0.000 C 
BRANCH  19  20
ATOM     20  N   UNL     1       4.736   6.970  16.836  0.00  0.00    +0.000 N 
ATOM     21  C   UNL     1       5.139   5.846  16.174  0.00  0.00    +0.000 A 
ATOM     22  C   UNL     1       6.328   5.505  16.780  0.00  0.00    +0.000 A 
ATOM     23  N   UNL     1       6.631   6.445  17.728  0.00  0.00    +0.000 NA
ATOM     24  N   UNL     1       5.666   7.354  17.735  0.00  0.00    +0.000 NA
BRANCH  22  25
ATOM     25  C   UNL     1       7.196   4.324  16.557  0.00  0.00    +0.000 C 
BRANCH  25  26
ATOM     26  O   UNL     1       8.122   4.131  17.625  0.00  0.00    +0.000 OA
ATOM     27  H   UNL     1       8.250   3.169  17.705  0.00  0.00    +0.000 HD
ENDBRANCH  25  26
ENDBRANCH  22  25
ENDBRANCH  19  20
ENDBRANCH   5  19
TORSDOF 6
ENDMDL
MODEL 2
REMARK VINA RESULT:      -7.3      0.108      1.337
REMARK  Name = 
REMARK  7 active torsions:
REMARK  status: ('A' for Active; 'I' for Inactive)
REMARK    1  A    between atoms: C_1  and  C_2
REMARK    2  A    between atoms: C_5  and  C_6
REMARK    3  A    between atoms: N_8  and  C_9
REMARK    4  A    between atoms: C_16  and  C_17
REMARK    5  A    between atoms: C_17  and  N_18
REMARK    6  A    between atoms: C_20  and  C_21
REMARK    7  A    between atoms: C_21  and  O_22
REMARK                            x       y       z     vdW  Elec       q    Type
REMARK                         _______ _______ _______ _____ _____    ______ ____
ROOT
ATOM      1  C   UNL     1       2.574   6.585  18.951  0.00  0.00    +0.000 A 
ATOM      2  N   UNL     1       1.948   7.043  20.047  0.00  0.00    +0.000 NA
ATOM      3  N   UNL     1       1.669   8.347  19.806  0.00  0.00    +0.000 N 
ATOM      4  C   UNL     1       2.186   8.746  18.598  0.00  0.00    +0.000 A 
ATOM      5  C   UNL     1       2.795   7.650  18.020  0.00  0.00    +0.000 A 
ENDROOT
BRANCH   1  10
ATOM      6  C   UNL     1       3.964   0.965  18.515  0.00  0.00    +0.000 C 
ATOM      7  C   UNL     1       3.617   2.420  18.624  0.00  0.00    +0.000 A 
ATOM      8  C   UNL     1       2.509   2.930  17.958  0.00  0.00    +0.000 A 
ATOM      9  C   UNL     1       2.166   4.276  18.082  0.00  0.00    +0.000 A 
ATOM     10  C   UNL     1       2.938   5.162  18.837  0.00  0.00    +0.000 A 
ATOM     11  C   UNL     1       4.052   4.645  19.513  0.00  0.00    +0.000 A 
ATOM     12  C   UNL     1       4.388   3.286  19.409  0.00  0.00    +0.000 A 
ENDBRANCH   1  10
BRANCH   3  13
ATOM     13  C   UNL     1       0.933   9.139  20.733  0.00  0.00    +0.000 A 
ATOM     14  C   UNL     1       0.810   8.722  22.063  0.00  0.00    +0.000 A 
ATOM     15  C   UNL     1       0.096   9.495  22.983  0.00  0.00    +0.000 A 
ATOM     16  C   UNL     1      -0.510  10.684  22.578  0.00  0.00    +0.000 A 
ATOM     17  C   UNL     1      -0.402  11.102  21.254  0.00  0.00    +0.000 A 
ATOM     18  C   UNL     1       0.319  10.338  20.333  0.00  0.00    +0.000 A 
ENDBRANCH   3  13
BRANCH   5  19
ATOM     19  C   UNL     1       3.517   7.646  16.712  0.00  0.00    +0.000 C 
BRANCH  19  20
ATOM     20  N   UNL     1       4.799   6.960  16.779  0.00  0.00    +0.000 N 
ATOM     21  C   UNL     1       5.215   5.830  16.135  0.00  0.00    +0.000 A 
ATOM     22  C   UNL     1       6.413   5.519  16.739  0.00  0.00    +0.000 A 
ATOM     23  N   UNL     1       6.708   6.482  17.667  0.00  0.00    +0.000 NA
ATOM     24  N   UNL     1       5.729   7.375  17.664  0.00  0.00    +0.000 NA
BRANCH  22  25
ATOM     25  C   UNL     1       7.298   4.348  16.532  0.00  0.00    +0.000 C 
BRANCH  25  26
ATOM     26  O   UNL     1       8.120   4.090  17.669  0.00  0.00    +0.000 OA
ATOM     27  H   UNL     1       9.027   4.333  17.410  0.00  0.00    +0.000 HD
ENDBRANCH  25  26
ENDBRANCH  22  25
ENDBRANCH  19  20
ENDBRANCH   5  19
TORSDOF 6
ENDMDL
MODEL 3
REMARK VINA RESULT:      -7.1      2.099      3.772
REMARK  Name = 
REMARK  7 active torsions:
REMARK  status: ('A' for Active; 'I' for Inactive)
REMARK    1  A    between atoms: C_1  and  C_2
REMARK    2  A    between atoms: C_5  and  C_6
REMARK    3  A    between atoms: N_8  and  C_9
REMARK    4  A    between atoms: C_16  and  C_17
REMARK    5  A    between atoms: C_17  and  N_18
REMARK    6  A    between atoms: C_20  and  C_21
REMARK    7  A    between atoms: C_21  and  O_22
REMARK                            x       y       z     vdW  Elec       q    Type
REMARK                         _______ _______ _______ _____ _____    ______ ____
ROOT
ATOM      1  C   UNL     1       2.711   6.626  19.511  0.00  0.00    +0.000 A 
ATOM      2  N   UNL     1       2.274   7.869  19.248  0.00  0.00    +0.000 NA
ATOM      3  N   UNL     1       1.350   8.154  20.198  0.00  0.00    +0.000 N 
ATOM      4  C   UNL     1       1.134   7.072  21.015  0.00  0.00    +0.000 A 
ATOM      5  C   UNL     1       1.974   6.058  20.599  0.00  0.00    +0.000 A 
ENDROOT
BRANCH   1  10
ATOM      6  C   UNL     1       6.982   4.251  16.377  0.00  0.00    +0.000 C 
ATOM      7  C   UNL     1       5.887   4.876  17.190  0.00  0.00    +0.000 A 
ATOM      8  C   UNL     1       4.640   5.113  16.623  0.00  0.00    +0.000 A 
ATOM      9  C   UNL     1       3.610   5.664  17.385  0.00  0.00    +0.000 A 
ATOM     10  C   UNL     1       3.802   6.033  18.719  0.00  0.00    +0.000 A 
ATOM     11  C   UNL     1       5.058   5.787  19.290  0.00  0.00    +0.000 A 
ATOM     12  C   UNL     1       6.090   5.212  18.534  0.00  0.00    +0.000 A 
ENDBRANCH   1  10
BRANCH   3  13
ATOM     13  C   UNL     1       0.725   9.431  20.274  0.00  0.00    +0.000 A 
ATOM     14  C   UNL     1       0.661  10.245  19.137  0.00  0.00    +0.000 A 
ATOM     15  C   UNL     1       0.043  11.497  19.199  0.00  0.00    +0.000 A 
ATOM     16  C   UNL     1      -0.504  11.950  20.398  0.00  0.00    +0.000 A 
ATOM     17  C   UNL     1      -0.436  11.153  21.538  0.00  0.00    +0.000 A 
ATOM     18  C   UNL     1       0.172   9.895  21.479  0.00  0.00    +0.000 A 
ENDBRANCH   3  13
BRANCH   5  19
ATOM     19  C   UNL     1       2.042   4.688  21.192  0.00  0.00    +0.000 C 
BRANCH  19  20
ATOM     20  N   UNL     1       2.189   3.646  20.186  0.00  0.00    +0.000 N 
ATOM     21  C   UNL     1       3.254   2.832  19.928  0.00  0.00    +0.000 A 
ATOM     22  C   UNL     1       2.924   2.211  18.744  0.00  0.00    +0.000 A 
ATOM     23  N   UNL     1       1.672   2.613  18.363  0.00  0.00    +0.000 NA
ATOM     24  N   UNL     1       1.218   3.469  19.267  0.00  0.00    +0.000 NA
BRANCH  22  25
ATOM     25  C   UNL     1       3.724   1.280  17.912  0.00  0.00    +0.000 C 
BRANCH  25  26
ATOM     26  O   UNL     1       4.522   0.403  18.707  0.00  0.00    +0.000 OA
ATOM     27  H   UNL     1       3.908  -0.046  19.315  0.00  0.00    +0.000 HD
ENDBRANCH  25  26
ENDBRANCH  22  25
ENDBRANCH  19  20
ENDBRANCH   5  19
TORSDOF 6
ENDMDL
MODEL 4
REMARK VINA RESULT:      -7.0      3.158      7.752
REMARK  Name = 
REMARK  7 active torsions:
REMARK  status: ('A' for Active; 'I' for Inactive)
REMARK    1  A    between atoms: C_1  and  C_2
REMARK    2  A    between atoms: C_5  and  C_6
REMARK    3  A    between atoms: N_8  and  C_9
REMARK    4  A    between atoms: C_16  and  C_17
REMARK    5  A    between atoms: C_17  and  N_18
REMARK    6  A    between atoms: C_20  and  C_21
REMARK    7  A    between atoms: C_21  and  O_22
REMARK                            x       y       z     vdW  Elec       q    Type
REMARK                         _______ _______ _______ _____ _____    ______ ____
ROOT
ATOM      1  C   UNL     1       4.615   6.080  17.275  0.00  0.00    +0.000 A 
ATOM      2  N   UNL     1       4.878   6.081  15.958  0.00  0.00    +0.000 NA
ATOM      3  N   UNL     1       5.766   5.079  15.750  0.00  0.00    +0.000 N 
ATOM      4  C   UNL     1       6.135   4.492  16.935  0.00  0.00    +0.000 A 
ATOM      5  C   UNL     1       5.434   5.117  17.947  0.00  0.00    +0.000 A 
ENDROOT
BRANCH   1  10
ATOM      6  C   UNL     1       0.663   9.714  19.486  0.00  0.00    +0.000 C 
ATOM      7  C   UNL     1       1.675   8.764  18.916  0.00  0.00    +0.000 A 
ATOM      8  C   UNL     1       2.288   9.040  17.700  0.00  0.00    +0.000 A 
ATOM      9  C   UNL     1       3.253   8.176  17.181  0.00  0.00    +0.000 A 
ATOM     10  C   UNL     1       3.605   6.993  17.837  0.00  0.00    +0.000 A 
ATOM     11  C   UNL     1       2.989   6.721  19.066  0.00  0.00    +0.000 A 
ATOM     12  C   UNL     1       2.035   7.598  19.602  0.00  0.00    +0.000 A 
ENDBRANCH   1  10
BRANCH   3  13
ATOM     13  C   UNL     1       6.215   4.738  14.442  0.00  0.00    +0.000 A 
ATOM     14  C   UNL     1       5.513   3.789  13.689  0.00  0.00    +0.000 A 
ATOM     15  C   UNL     1       5.940   3.453  12.401  0.00  0.00    +0.000 A 
ATOM     16  C   UNL     1       7.078   4.051  11.862  0.00  0.00    +0.000 A 
ATOM     17  C   UNL     1       7.789   4.988  12.607  0.00  0.00    +0.000 A 
ATOM     18  C   UNL     1       7.360   5.336  13.891  0.00  0.00    +0.000 A 
ENDBRANCH   3  13
BRANCH   5  19
ATOM     19  C   UNL     1       5.557   4.813  19.405  0.00  0.00    +0.000 C 
BRANCH  19  20
ATOM     20  N   UNL     1       4.570   3.846  19.863  0.00  0.00    +0.000 N 
ATOM     21  C   UNL     1       3.266   4.037  20.220  0.00  0.00    +0.000 A 
ATOM     22  C   UNL     1       2.888   2.835  20.776  0.00  0.00    +0.000 A 
ATOM     23  N   UNL     1       3.932   1.954  20.685  0.00  0.00    +0.000 NA
ATOM     24  N   UNL     1       4.947   2.572  20.098  0.00  0.00    +0.000 NA
BRANCH  22  25
ATOM     25  C   UNL     1       1.612   2.457  21.429  0.00  0.00    +0.000 C 
BRANCH  25  26
ATOM     26  O   UNL     1       0.480   2.973  20.729  0.00  0.00    +0.000 OA
ATOM     27  H   UNL     1      -0.301   2.728  21.257  0.00  0.00    +0.000 HD
ENDBRANCH  25  26
ENDBRANCH  22  25
ENDBRANCH  19  20
ENDBRANCH   5  19
TORSDOF 6
ENDMDL
MODEL 5
REMARK VINA RESULT:      -7.0      3.915      6.596
REMARK  Name = 
REMARK  7 active torsions:
REMARK  status: ('A' for Active; 'I' for Inactive)
REMARK    1  A    between atoms: C_1  and  C_2
REMARK    2  A    between atoms: C_5  and  C_6
REMARK    3  A    between atoms: N_8  and  C_9
REMARK    4  A    between atoms: C_16  and  C_17
REMARK    5  A    between atoms: C_17  and  N_18
REMARK    6  A    between atoms: C_20  and  C_21
REMARK    7  A    between atoms: C_21  and  O_22
REMARK                            x       y       z     vdW  Elec       q    Type
REMARK                         _______ _______ _______ _____ _____    ______ ____
ROOT
ATOM      1  C   UNL     1       7.146   6.271  16.898  0.00  0.00    +0.000 A 
ATOM      2  N   UNL     1       7.480   7.566  16.785  0.00  0.00    +0.000 NA
ATOM      3  N   UNL     1       7.904   7.955  18.012  0.00  0.00    +0.000 N 
ATOM      4  C   UNL     1       7.766   6.940  18.926  0.00  0.00    +0.000 A 
ATOM      5  C   UNL     1       7.262   5.842  18.259  0.00  0.00    +0.000 A 
ENDROOT
BRANCH   1  10
ATOM      6  C   UNL     1       5.515   3.267  12.204  0.00  0.00    +0.000 C 
ATOM      7  C   UNL     1       5.932   4.033  13.425  0.00  0.00    +0.000 A 
ATOM      8  C   UNL     1       7.225   4.531  13.533  0.00  0.00    +0.000 A 
ATOM      9  C   UNL     1       7.607   5.271  14.653  0.00  0.00    +0.000 A 
ATOM     10  C   UNL     1       6.728   5.500  15.714  0.00  0.00    +0.000 A 
ATOM     11  C   UNL     1       5.423   5.001  15.600  0.00  0.00    +0.000 A 
ATOM     12  C   UNL     1       5.028   4.276  14.466  0.00  0.00    +0.000 A 
ENDBRANCH   1  10
BRANCH   3  13
ATOM     13  C   UNL     1       8.414   9.264  18.247  0.00  0.00    +0.000 A 
ATOM     14  C   UNL     1       8.039  10.320  17.407  0.00  0.00    +0.000 A 
ATOM     15  C   UNL     1       8.527  11.610  17.634  0.00  0.00    +0.000 A 
ATOM     16  C   UNL     1       9.401  11.853  18.692  0.00  0.00    +0.000 A 
ATOM     17  C   UNL     1       9.788  10.808  19.527  0.00  0.00    +0.000 A 
ATOM     18  C   UNL     1       9.295   9.517  19.311  0.00  0.00    +0.000 A 
ENDBRANCH   3  13
BRANCH   5  19
ATOM     19  C   UNL     1       6.926   4.526  18.882  0.00  0.00    +0.000 C 
BRANCH  19  20
ATOM     20  N   UNL     1       5.502   4.375  19.143  0.00  0.00    +0.000 N 
ATOM     21  C   UNL     1       4.524   5.326  19.211  0.00  0.00    +0.000 A 
ATOM     22  C   UNL     1       3.429   4.650  19.702  0.00  0.00    +0.000 A 
ATOM     23  N   UNL     1       3.752   3.328  19.855  0.00  0.00    +0.000 NA
ATOM     24  N   UNL     1       5.014   3.164  19.483  0.00  0.00    +0.000 NA
BRANCH  22  25
ATOM     25  C   UNL     1       2.092   5.168  20.077  0.00  0.00    +0.000 C 
BRANCH  25  26
ATOM     26  O   UNL     1       2.179   6.269  20.980  0.00  0.00    +0.000 OA
ATOM     27  H   UNL     1       2.755   6.928  20.552  0.00  0.00    +0.000 HD
ENDBRANCH  25  26
ENDBRANCH  22  25
ENDBRANCH  19  20
ENDBRANCH   5  19
TORSDOF 6
ENDMDL
MODEL 6
REMARK VINA RESULT:      -7.0      2.087      3.731
REMARK  Name = 
REMARK  7 active torsions:
REMARK  status: ('A' for Active; 'I' for Inactive)
REMARK    1  A    between atoms: C_1  and  C_2
REMARK    2  A    between atoms: C_5  and  C_6
REMARK    3  A    between atoms: N_8  and  C_9
REMARK    4  A    between atoms: C_16  and  C_17
REMARK    5  A    between atoms: C_17  and  N_18
REMARK    6  A    between atoms: C_20  and  C_21
REMARK    7  A    between atoms: C_21  and  O_22
REMARK                            x       y       z     vdW  Elec       q    Type
REMARK                         _______ _______ _______ _____ _____    ______ ____
ROOT
ATOM      1  C   UNL     1       2.716   6.704  19.467  0.00  0.00    +0.000 A 
ATOM      2  N   UNL     1       2.338   7.969  19.221  0.00  0.00    +0.000 NA
ATOM      3  N   UNL     1       1.395   8.269  20.146  0.00  0.00    +0.000 N 
ATOM      4  C   UNL     1       1.109   7.179  20.930  0.00  0.00    +0.000 A 
ATOM      5  C   UNL     1       1.921   6.141  20.517  0.00  0.00    +0.000 A 
ENDROOT
BRANCH   1  10
ATOM      6  C   UNL     1       7.051   4.301  16.444  0.00  0.00    +0.000 C 
ATOM      7  C   UNL     1       5.922   4.912  17.221  0.00  0.00    +0.000 A 
ATOM      8  C   UNL     1       6.070   5.185  18.575  0.00  0.00    +0.000 A 
ATOM      9  C   UNL     1       5.034   5.782  19.294  0.00  0.00    +0.000 A 
ATOM     10  C   UNL     1       3.808   6.086  18.696  0.00  0.00    +0.000 A 
ATOM     11  C   UNL     1       3.664   5.815  17.329  0.00  0.00    +0.000 A 
ATOM     12  C   UNL     1       4.711   5.235  16.597  0.00  0.00    +0.000 A 
ENDBRANCH   1  10
BRANCH   3  13
ATOM     13  C   UNL     1       0.819   9.569  20.233  0.00  0.00    +0.000 A 
ATOM     14  C   UNL     1       0.066   9.924  21.359  0.00  0.00    +0.000 A 
ATOM     15  C   UNL     1      -0.497  11.200  21.458  0.00  0.00    +0.000 A 
ATOM     16  C   UNL     1      -0.322  12.124  20.430  0.00  0.00    +0.000 A 
ATOM     17  C   UNL     1       0.417  11.778  19.302  0.00  0.00    +0.000 A 
ATOM     18  C   UNL     1       0.991  10.507  19.202  0.00  0.00    +0.000 A 
ENDBRANCH   3  13
BRANCH   5  19
ATOM     19  C   UNL     1       1.915   4.757  21.078  0.00  0.00    +0.000 C 
BRANCH  19  20
ATOM     20  N   UNL     1       2.088   3.735  20.056  0.00  0.00    +0.000 N 
ATOM     21  C   UNL     1       3.146   2.901  19.831  0.00  0.00    +0.000 A 
ATOM     22  C   UNL     1       2.861   2.315  18.617  0.00  0.00    +0.000 A 
ATOM     23  N   UNL     1       1.639   2.756  18.185  0.00  0.00    +0.000 NA
ATOM     24  N   UNL     1       1.160   3.602  19.086  0.00  0.00    +0.000 NA
BRANCH  22  25
ATOM     25  C   UNL     1       3.680   1.384  17.804  0.00  0.00    +0.000 C 
BRANCH  25  26
ATOM     26  O   UNL     1       4.432   0.484  18.617  0.00  0.00    +0.000 OA
ATOM     27  H   UNL     1       5.364   0.748  18.525  0.00  0.00    +0.000 HD
ENDBRANCH  25  26
ENDBRANCH  22  25
ENDBRANCH  19  20
ENDBRANCH   5  19
TORSDOF 6
ENDMDL
MODEL 7
REMARK VINA RESULT:      -7.0      0.564      1.102
REMARK  Name = 
REMARK  7 active torsions:
REMARK  status: ('A' for Active; 'I' for Inactive)
REMARK    1  A    between atoms: C_1  and  C_2
REMARK    2  A    between atoms: C_5  and  C_6
REMARK    3  A    between atoms: N_8  and  C_9
REMARK    4  A    between atoms: C_16  and  C_17
REMARK    5  A    between atoms: C_17  and  N_18
REMARK    6  A    between atoms: C_20  and  C_21
REMARK    7  A    between atoms: C_21  and  O_22
REMARK                            x       y       z     vdW  Elec       q    Type
REMARK                         _______ _______ _______ _____ _____    ______ ____
ROOT
ATOM      1  C   UNL     1       2.391   6.736  19.036  0.00  0.00    +0.000 A 
ATOM      2  N   UNL     1       1.773   7.170  20.146  0.00  0.00    +0.000 NA
ATOM      3  N   UNL     1       1.514   8.484  19.946  0.00  0.00    +0.000 N 
ATOM      4  C   UNL     1       2.036   8.912  18.750  0.00  0.00    +0.000 A 
ATOM      5  C   UNL     1       2.627   7.825  18.138  0.00  0.00    +0.000 A 
ENDROOT
BRANCH   1  10
ATOM      6  C   UNL     1       3.783   1.135  18.403  0.00  0.00    +0.000 C 
ATOM      7  C   UNL     1       3.410   2.579  18.569  0.00  0.00    +0.000 A 
ATOM      8  C   UNL     1       4.116   3.388  19.451  0.00  0.00    +0.000 A 
ATOM      9  C   UNL     1       3.793   4.739  19.585  0.00  0.00    +0.000 A 
ATOM     10  C   UNL     1       2.733   5.312  18.878  0.00  0.00    +0.000 A 
ATOM     11  C   UNL     1       2.027   4.494  17.985  0.00  0.00    +0.000 A 
ATOM     12  C   UNL     1       2.363   3.141  17.830  0.00  0.00    +0.000 A 
ENDBRANCH   1  10
BRANCH   3  13
ATOM     13  C   UNL     1       0.791   9.259  20.898  0.00  0.00    +0.000 A 
ATOM     14  C   UNL     1       0.547   8.742  22.176  0.00  0.00    +0.000 A 
ATOM     15  C   UNL     1      -0.155   9.497  23.120  0.00  0.00    +0.000 A 
ATOM     16  C   UNL     1      -0.628  10.766  22.791  0.00  0.00    +0.000 A 
ATOM     17  C   UNL     1      -0.398  11.285  21.520  0.00  0.00    +0.000 A 
ATOM     18  C   UNL     1       0.312  10.539  20.575  0.00  0.00    +0.000 A 
ENDBRANCH   3  13
BRANCH   5  19
ATOM     19  C   UNL     1       3.347   7.851  16.829  0.00  0.00    +0.000 C 
BRANCH  19  20
ATOM     20  N   UNL     1       4.579   7.075  16.850  0.00  0.00    +0.000 N 
ATOM     21  C   UNL     1       4.929   5.979  16.114  0.00  0.00    +0.000 A 
ATOM     22  C   UNL     1       6.093   5.536  16.702  0.00  0.00    +0.000 A 
ATOM     23  N   UNL     1       6.437   6.393  17.713  0.00  0.00    +0.000 NA
ATOM     24  N   UNL     1       5.520   7.349  17.776  0.00  0.00    +0.000 NA
BRANCH  22  25
ATOM     25  C   UNL     1       6.901   4.329  16.403  0.00  0.00    +0.000 C 
BRANCH  25  26
ATOM     26  O   UNL     1       6.082   3.193  16.127  0.00  0.00    +0.000 OA
ATOM     27  H   UNL     1       6.647   2.561  15.648  0.00  0.00    +0.000 HD
ENDBRANCH  25  26
ENDBRANCH  22  25
ENDBRANCH  19  20
ENDBRANCH   5  19
TORSDOF 6
ENDMDL
MODEL 8
REMARK VINA RESULT:      -7.0      4.105      7.297
REMARK  Name = 
REMARK  7 active torsions:
REMARK  status: ('A' for Active; 'I' for Inactive)
REMARK    1  A    between atoms: C_1  and  C_2
REMARK    2  A    between atoms: C_5  and  C_6
REMARK    3  A    between atoms: N_8  and  C_9
REMARK    4  A    between atoms: C_16  and  C_17
REMARK    5  A    between atoms: C_17  and  N_18
REMARK    6  A    between atoms: C_20  and  C_21
REMARK    7  A    between atoms: C_21  and  O_22
REMARK                            x       y       z     vdW  Elec       q    Type
REMARK                         _______ _______ _______ _____ _____    ______ ____
ROOT
ATOM      1  C   UNL     1       5.147   4.301  17.269  0.00  0.00    +0.000 A 
ATOM      2  N   UNL     1       4.880   3.972  15.995  0.00  0.00    +0.000 NA
ATOM      3  N   UNL     1       5.978   4.315  15.278  0.00  0.00    +0.000 N 
ATOM      4  C   UNL     1       6.910   4.935  16.072  0.00  0.00    +0.000 A 
ATOM      5  C   UNL     1       6.412   4.967  17.358  0.00  0.00    +0.000 A 
ENDROOT
BRANCH   1  10
ATOM      6  C   UNL     1       1.386   3.056  21.513  0.00  0.00    +0.000 C 
ATOM      7  C   UNL     1       2.358   3.365  20.413  0.00  0.00    +0.000 A 
ATOM      8  C   UNL     1       2.096   4.391  19.513  0.00  0.00    +0.000 A 
ATOM      9  C   UNL     1       3.012   4.702  18.508  0.00  0.00    +0.000 A 
ATOM     10  C   UNL     1       4.193   3.973  18.342  0.00  0.00    +0.000 A 
ATOM     11  C   UNL     1       4.457   2.943  19.254  0.00  0.00    +0.000 A 
ATOM     12  C   UNL     1       3.549   2.642  20.281  0.00  0.00    +0.000 A 
ENDBRANCH   1  10
BRANCH   3  13
ATOM     13  C   UNL     1       6.078   4.037  13.885  0.00  0.00    +0.000 A 
ATOM     14  C   UNL     1       5.024   3.394  13.224  0.00  0.00    +0.000 A 
ATOM     15  C   UNL     1       5.110   3.124  11.855  0.00  0.00    +0.000 A 
ATOM     16  C   UNL     1       6.251   3.483  11.140  0.00  0.00    +0.000 A 
ATOM     17  C   UNL     1       7.308   4.114  11.789  0.00  0.00    +0.000 A 
ATOM     18  C   UNL     1       7.224   4.396  13.156  0.00  0.00    +0.000 A 
ENDBRANCH   3  13
BRANCH   5  19
ATOM     19  C   UNL     1       7.089   5.584  18.538  0.00  0.00    +0.000 C 
BRANCH  19  20
ATOM     20  N   UNL     1       7.601   6.918  18.258  0.00  0.00    +0.000 N 
ATOM     21  C   UNL     1       8.511   7.663  18.952  0.00  0.00    +0.000 A 
ATOM     22  C   UNL     1       8.444   8.908  18.367  0.00  0.00    +0.000 A 
ATOM     23  N   UNL     1       7.560   8.863  17.323  0.00  0.00    +0.000 NA
ATOM     24  N   UNL     1       7.071   7.633  17.245  0.00  0.00    +0.000 NA
BRANCH  22  25
ATOM     25  C   UNL     1       9.132  10.166  18.745  0.00  0.00    +0.000 C 
BRANCH  25  26
ATOM     26  O   UNL     1       9.443  10.208  20.137  0.00  0.00    +0.000 OA
ATOM     27  H   UNL     1      10.187   9.594  20.268  0.00  0.00    +0.000 HD
ENDBRANCH  25  26
ENDBRANCH  22  25
ENDBRANCH  19  20
ENDBRANCH   5  19
TORSDOF 6
ENDMDL
MODEL 9
REMARK VINA RESULT:      -7.0      5.256      7.545
REMARK  Name = 
REMARK  7 active torsions:
REMARK  status: ('A' for Active; 'I' for Inactive)
REMARK    1  A    between atoms: C_1  and  C_2
REMARK    2  A    between atoms: C_5  and  C_6
REMARK    3  A    between atoms: N_8  and  C_9
REMARK    4  A    between atoms: C_16  and  C_17
REMARK    5  A    between atoms: C_17  and  N_18
REMARK    6  A    between atoms: C_20  and  C_21
REMARK    7  A    between atoms: C_21  and  O_22
REMARK                            x       y       z     vdW  Elec       q    Type
REMARK                         _______ _______ _______ _____ _____    ______ ____
ROOT
ATOM      1  C   UNL     1       0.901  10.923  18.850  0.00  0.00    +0.000 A 
ATOM      2  N   UNL     1       1.764  11.927  18.624  0.00  0.00    +0.000 NA
ATOM      3  N   UNL     1       1.020  13.057  18.561  0.00  0.00    +0.000 N 
ATOM      4  C   UNL     1      -0.319  12.772  18.665  0.00  0.00    +0.000 A 
ATOM      5  C   UNL     1      -0.446  11.408  18.832  0.00  0.00    +0.000 A 
ENDROOT
BRANCH   1  10
ATOM      6  C   UNL     1       2.805   5.500  19.677  0.00  0.00    +0.000 C 
ATOM      7  C   UNL     1       2.320   6.906  19.475  0.00  0.00    +0.000 A 
ATOM      8  C   UNL     1       2.492   7.538  18.249  0.00  0.00    +0.000 A 
ATOM      9  C   UNL     1       2.015   8.833  18.047  0.00  0.00    +0.000 A 
ATOM     10  C   UNL     1       1.390   9.551  19.070  0.00  0.00    +0.000 A 
ATOM     11  C   UNL     1       1.213   8.909  20.303  0.00  0.00    +0.000 A 
ATOM     12  C   UNL     1       1.671   7.599  20.504  0.00  0.00    +0.000 A 
ENDBRANCH   1  10
BRANCH   3  13
ATOM     13  C   UNL     1       1.620  14.340  18.406  0.00  0.00    +0.000 A 
ATOM     14  C   UNL     1       0.930  15.487  18.816  0.00  0.00    +0.000 A 
ATOM     15  C   UNL     1       1.513  16.749  18.675  0.00  0.00    +0.000 A 
ATOM     16  C   UNL     1       2.782  16.877  18.113  0.00  0.00    +0.000 A 
ATOM     17  C   UNL     1       3.472  15.743  17.692  0.00  0.00    +0.000 A 
ATOM     18  C   UNL     1       2.898  14.476  17.840  0.00  0.00    +0.000 A 
ENDBRANCH   3  13
BRANCH   5  19
ATOM     19  C   UNL     1      -1.736  10.664  18.953  0.00  0.00    +0.000 C 
BRANCH  19  20
ATOM     20  N   UNL     1      -2.480  10.621  17.702  0.00  0.00    +0.000 N 
ATOM     21  C   UNL     1      -2.216   9.925  16.558  0.00  0.00    +0.000 A 
ATOM     22  C   UNL     1      -3.111  10.432  15.641  0.00  0.00    +0.000 A 
ATOM     23  N   UNL     1      -3.910  11.355  16.261  0.00  0.00    +0.000 NA
ATOM     24  N   UNL     1      -3.535  11.442  17.530  0.00  0.00    +0.000 NA
BRANCH  22  25
ATOM     25  C   UNL     1      -3.250  10.135  14.195  0.00  0.00    +0.000 C 
BRANCH  25  26
ATOM     26  O   UNL     1      -4.590   9.790  13.847  0.00  0.00    +0.000 OA
ATOM     27  H   UNL     1      -4.712   8.863  14.119  0.00  0.00    +0.000 HD
ENDBRANCH  25  26
ENDBRANCH  22  25
ENDBRANCH  19  20
ENDBRANCH   5  19
TORSDOF 6
ENDMDL
