MODEL 1
REMARK VINA RESULT:      -6.6      0.000      0.000
REMARK  Name = 
REMARK  9 active torsions:
REMARK  status: ('A' for Active; 'I' for Inactive)
REMARK    1  A    between atoms: C_1  and  N_2
REMARK    2  A    between atoms: N_2  and  C_10
REMARK    3  A    between atoms: C_3  and  C_5
REMARK    4  A    between atoms: C_13  and  N_14
REMARK    5  A    between atoms: C_15  and  O_17
REMARK    6  A    between atoms: O_17  and  C_18
REMARK    7  A    between atoms: C_18  and  C_19
REMARK    8  A    between atoms: C_18  and  C_20
REMARK    9  A    between atoms: C_18  and  C_21
REMARK                            x       y       z     vdW  Elec       q    Type
REMARK                         _______ _______ _______ _____ _____    ______ ____
ROOT
ATOM      1  C   UNL     1       4.084   5.171  17.159  0.00  0.00    +0.000 C 
ATOM      2  C   UNL     1       2.751   4.996  17.903  0.00  0.00    +0.000 C 
ATOM      3  C   UNL     1       2.631   5.928  19.099  0.00  0.00    +0.000 C 
ATOM      4  C   UNL     1       2.874   7.396  18.723  0.00  0.00    +0.000 C 
ATOM      5  C   UNL     1       4.061   7.664  17.800  0.00  0.00    +0.000 C 
ATOM      6  C   UNL     1       4.232   6.628  16.693  0.00  0.00    +0.000 C 
ENDROOT
BRANCH   1   8
ATOM      7  C   UNL     1       5.255   4.546  19.350  0.00  0.00    +0.000 C 
ATOM      8  N   UNL     1       5.263   4.630  17.894  0.00  0.00    +0.000 N 
ATOM      9  C   UNL     1       6.535   4.487  17.301  0.00  0.00    +0.000 C 
ATOM     10  O   UNL     1       7.552   4.427  17.996  0.00  0.00    +0.000 OA
BRANCH   9  11
ATOM     11  C   UNL     1       6.639   4.455  15.859  0.00  0.00    +0.000 A 
ATOM     12  C   UNL     1       5.965   3.670  14.938  0.00  0.00    +0.000 A 
ATOM     13  C   UNL     1       6.430   4.045  13.662  0.00  0.00    +0.000 A 
ATOM     14  C   UNL     1       7.321   5.072  13.866  0.00  0.00    +0.000 A 
ATOM     15  O   UNL     1       7.448   5.333  15.191  0.00  0.00    +0.000 OA
ENDBRANCH   9  11
ENDBRANCH   1   8
BRANCH   4  16
ATOM     16  N   UNL     1       1.684   7.958  18.127  0.00  0.00    +0.000 N 
ATOM     17  C   UNL     1       1.478   9.301  18.137  0.00  0.00    +0.000 C 
ATOM     18  O   UNL     1       2.277  10.110  18.588  0.00  0.00    +0.000 OA
ATOM     19  H   UNL     1       0.903   7.385  17.833  0.00  0.00    +0.000 HD
BRANCH  17  20
ATOM     20  O   UNL     1       0.284   9.579  17.575  0.00  0.00    +0.000 OA
BRANCH  20  21
ATOM     21  C   UNL     1      -0.675  10.328  18.363  0.00  0.00    +0.000 C 
ATOM     22  C   UNL     1      -0.447  11.839  18.215  0.00  0.00    +0.000 C 
ATOM     23  C   UNL     1      -2.046   9.984  17.766  0.00  0.00    +0.000 C 
ATOM     24  C   UNL     1      -0.657   9.866  19.828  0.00  0.00    +0.000 C 
ENDBRANCH  20  21
ENDBRANCH  17  20
ENDBRANCH   4  16
TORSDOF 5
ENDMDL
MODEL 2
REMARK VINA RESULT:      -6.2      3.654      8.564
REMARK  Name = 
REMARK  9 active torsions:
REMARK  status: ('A' for Active; 'I' for Inactive)
REMARK    1  A    between atoms: C_1  and  N_2
REMARK    2  A    between atoms: N_2  and  C_10
REMARK    3  A    between atoms: C_3  and  C_5
REMARK    4  A    between atoms: C_13  and  N_14
REMARK    5  A    between atoms: C_15  and  O_17
REMARK    6  A    between atoms: O_17  and  C_18
REMARK    7  A    between atoms: C_18  and  C_19
REMARK    8  A    between atoms: C_18  and  C_20
REMARK    9  A    between atoms: C_18  and  C_21
REMARK                            x       y       z     vdW  Elec       q    Type
REMARK                         _______ _______ _______ _____ _____    ______ ____
ROOT
ATOM      1  C   UNL     1       0.293  10.188  19.352  0.00  0.00    +0.000 C 
ATOM      2  C   UNL     1       0.537   9.568  17.967  0.00  0.00    +0.000 C 
ATOM      3  C   UNL     1       1.948   9.019  17.821  0.00  0.00    +0.000 C 
ATOM      4  C   UNL     1       2.315   8.042  18.946  0.00  0.00    +0.000 C 
ATOM      5  C   UNL     1       1.921   8.466  20.359  0.00  0.00    +0.000 C 
ATOM      6  C   UNL     1       0.554   9.140  20.445  0.00  0.00    +0.000 C 
ENDROOT
BRANCH   1   8
ATOM      7  C   UNL     1       2.123  11.869  18.727  0.00  0.00    +0.000 C 
ATOM      8  N   UNL     1       0.987  11.492  19.561  0.00  0.00    +0.000 N 
ATOM      9  C   UNL     1       0.831  12.263  20.732  0.00  0.00    +0.000 C 
ATOM     10  O   UNL     1       1.681  13.095  21.057  0.00  0.00    +0.000 OA
BRANCH   9  11
ATOM     11  C   UNL     1      -0.321  12.034  21.576  0.00  0.00    +0.000 A 
ATOM     12  C   UNL     1      -1.643  12.403  21.391  0.00  0.00    +0.000 A 
ATOM     13  C   UNL     1      -2.361  11.924  22.505  0.00  0.00    +0.000 A 
ATOM     14  C   UNL     1      -1.453  11.246  23.283  0.00  0.00    +0.000 A 
ATOM     15  O   UNL     1      -0.218  11.299  22.725  0.00  0.00    +0.000 OA
ENDBRANCH   9  11
ENDBRANCH   1   8
BRANCH   4  16
ATOM     16  N   UNL     1       1.749   6.740  18.675  0.00  0.00    +0.000 N 
ATOM     17  C   UNL     1       2.549   5.645  18.593  0.00  0.00    +0.000 C 
ATOM     18  O   UNL     1       3.756   5.668  18.786  0.00  0.00    +0.000 OA
ATOM     19  H   UNL     1       0.786   6.618  18.383  0.00  0.00    +0.000 HD
BRANCH  17  20
ATOM     20  O   UNL     1       1.805   4.564  18.283  0.00  0.00    +0.000 OA
BRANCH  20  21
ATOM     21  C   UNL     1       1.697   3.512  19.275  0.00  0.00    +0.000 C 
ATOM     22  C   UNL     1       1.231   4.076  20.625  0.00  0.00    +0.000 C 
ATOM     23  C   UNL     1       0.611   2.567  18.745  0.00  0.00    +0.000 C 
ATOM     24  C   UNL     1       3.011   2.725  19.381  0.00  0.00    +0.000 C 
ENDBRANCH  20  21
ENDBRANCH  17  20
ENDBRANCH   4  16
TORSDOF 5
ENDMDL
MODEL 3
REMARK VINA RESULT:      -6.1      2.464      4.431
REMARK  Name = 
REMARK  9 active torsions:
REMARK  status: ('A' for Active; 'I' for Inactive)
REMARK    1  A    between atoms: C_1  and  N_2
REMARK    2  A    between atoms: N_2  and  C_10
REMARK    3  A    between atoms: C_3  and  C_5
REMARK    4  A    between atoms: C_13  and  N_14
REMARK    5  A    between atoms: C_15  and  O_17
REMARK    6  A    between atoms: O_17  and  C_18
REMARK    7  A    between atoms: C_18  and  C_19
REMARK    8  A    between atoms: C_18  and  C_20
REMARK    9  A    between atoms: C_18  and  C_21
REMARK                            x       y       z     vdW  Elec       q    Type
REMARK                         _______ _______ _______ _____ _____    ______ ____
ROOT
ATOM      1  C   UNL     1       4.241   5.292  18.935  0.00  0.00    +0.000 C 
ATOM      2  C   UNL     1       4.958   6.474  18.264  0.00  0.00    +0.000 C 
ATOM      3  C   UNL     1       4.176   7.028  17.083  0.00  0.00    +0.000 C 
ATOM      4  C   UNL     1       2.731   7.387  17.456  0.00  0.00    +0.000 C 
ATOM      5  C   UNL     1       1.986   6.368  18.315  0.00  0.00    +0.000 C 
ATOM      6  C   UNL     1       2.844   5.730  19.403  0.00  0.00    +0.000 C 
ENDROOT
BRANCH   1   8
ATOM      7  C   UNL     1       4.975   3.981  16.861  0.00  0.00    +0.000 C 
ATOM      8  N   UNL     1       4.264   4.035  18.133  0.00  0.00    +0.000 N 
ATOM      9  C   UNL     1       3.368   2.968  18.357  0.00  0.00    +0.000 C 
ATOM     10  O   UNL     1       3.135   2.144  17.470  0.00  0.00    +0.000 OA
BRANCH   9  11
ATOM     11  C   UNL     1       2.688   2.876  19.630  0.00  0.00    +0.000 A 
ATOM     12  C   UNL     1       1.333   2.911  19.916  0.00  0.00    +0.000 A 
ATOM     13  C   UNL     1       1.207   2.768  21.312  0.00  0.00    +0.000 A 
ATOM     14  C   UNL     1       2.482   2.603  21.797  0.00  0.00    +0.000 A 
ATOM     15  O   UNL     1       3.385   2.658  20.786  0.00  0.00    +0.000 OA
ENDBRANCH   9  11
ENDBRANCH   1   8
BRANCH   4  16
ATOM     16  N   UNL     1       2.696   8.671  18.119  0.00  0.00    +0.000 N 
ATOM     17  C   UNL     1       1.607   9.475  18.004  0.00  0.00    +0.000 C 
ATOM     18  O   UNL     1       0.592   9.165  17.396  0.00  0.00    +0.000 OA
ATOM     19  H   UNL     1       3.516   9.082  18.548  0.00  0.00    +0.000 HD
BRANCH  17  20
ATOM     20  O   UNL     1       1.828  10.631  18.662  0.00  0.00    +0.000 OA
BRANCH  20  21
ATOM     21  C   UNL     1       0.873  11.021  19.681  0.00  0.00    +0.000 C 
ATOM     22  C   UNL     1       0.677   9.898  20.709  0.00  0.00    +0.000 C 
ATOM     23  C   UNL     1       1.508  12.224  20.391  0.00  0.00    +0.000 C 
ATOM     24  C   UNL     1      -0.447  11.480  19.043  0.00  0.00    +0.000 C 
ENDBRANCH  20  21
ENDBRANCH  17  20
ENDBRANCH   4  16
TORSDOF 5
ENDMDL
MODEL 4
REMARK VINA RESULT:      -6.1      4.094      6.750
REMARK  Name = 
REMARK  9 active torsions:
REMARK  status: ('A' for Active; 'I' for Inactive)
REMARK    1  A    between atoms: C_1  and  N_2
REMARK    2  A    between atoms: N_2  and  C_10
REMARK    3  A    between atoms: C_3  and  C_5
REMARK    4  A    between atoms: C_13  and  N_14
REMARK    5  A    between atoms: C_15  and  O_17
REMARK    6  A    between atoms: O_17  and  C_18
REMARK    7  A    between atoms: C_18  and  C_19
REMARK    8  A    between atoms: C_18  and  C_20
REMARK    9  A    between atoms: C_18  and  C_21
REMARK                            x       y       z     vdW  Elec       q    Type
REMARK                         _______ _______ _______ _____ _____    ______ ____
ROOT
ATOM      1  C   UNL     1       4.761   5.461  18.483  0.00  0.00    +0.000 C 
ATOM      2  C   UNL     1       6.036   5.075  19.249  0.00  0.00    +0.000 C 
ATOM      3  C   UNL     1       7.272   5.101  18.363  0.00  0.00    +0.000 C 
ATOM      4  C   UNL     1       7.440   6.441  17.634  0.00  0.00    +0.000 C 
ATOM      5  C   UNL     1       6.176   7.031  17.012  0.00  0.00    +0.000 C 
ATOM      6  C   UNL     1       4.926   6.862  17.871  0.00  0.00    +0.000 C 
ENDROOT
BRANCH   1   8
ATOM      7  C   UNL     1       4.806   4.368  16.166  0.00  0.00    +0.000 C 
ATOM      8  N   UNL     1       4.288   4.417  17.529  0.00  0.00    +0.000 N 
ATOM      9  C   UNL     1       3.121   3.655  17.745  0.00  0.00    +0.000 C 
ATOM     10  O   UNL     1       2.541   3.109  16.804  0.00  0.00    +0.000 OA
BRANCH   9  11
ATOM     11  C   UNL     1       2.583   3.557  19.084  0.00  0.00    +0.000 A 
ATOM     12  C   UNL     1       2.993   2.771  20.149  0.00  0.00    +0.000 A 
ATOM     13  C   UNL     1       2.137   3.066  21.228  0.00  0.00    +0.000 A 
ATOM     14  C   UNL     1       1.287   4.050  20.784  0.00  0.00    +0.000 A 
ATOM     15  O   UNL     1       1.554   4.361  19.491  0.00  0.00    +0.000 OA
ENDBRANCH   9  11
ENDBRANCH   1   8
BRANCH   4  16
ATOM     16  N   UNL     1       8.021   7.419  18.525  0.00  0.00    +0.000 N 
ATOM     17  C   UNL     1       8.363   8.652  18.066  0.00  0.00    +0.000 C 
ATOM     18  O   UNL     1       8.165   9.030  16.920  0.00  0.00    +0.000 OA
ATOM     19  H   UNL     1       8.338   7.183  19.458  0.00  0.00    +0.000 HD
BRANCH  17  20
ATOM     20  O   UNL     1       8.930   9.364  19.061  0.00  0.00    +0.000 OA
BRANCH  20  21
ATOM     21  C   UNL     1       9.268  10.748  18.793  0.00  0.00    +0.000 C 
ATOM     22  C   UNL     1       8.148  11.445  18.007  0.00  0.00    +0.000 C 
ATOM     23  C   UNL     1       9.378  11.412  20.172  0.00  0.00    +0.000 C 
ATOM     24  C   UNL     1      10.634  10.851  18.098  0.00  0.00    +0.000 C 
ENDBRANCH  20  21
ENDBRANCH  17  20
ENDBRANCH   4  16
TORSDOF 5
ENDMDL
MODEL 5
REMARK VINA RESULT:      -6.0      4.090      6.485
REMARK  Name = 
REMARK  9 active torsions:
REMARK  status: ('A' for Active; 'I' for Inactive)
REMARK    1  A    between atoms: C_1  and  N_2
REMARK    2  A    between atoms: N_2  and  C_10
REMARK    3  A    between atoms: C_3  and  C_5
REMARK    4  A    between atoms: C_13  and  N_14
REMARK    5  A    between atoms: C_15  and  O_17
REMARK    6  A    between atoms: O_17  and  C_18
REMARK    7  A    between atoms: C_18  and  C_19
REMARK    8  A    between atoms: C_18  and  C_20
REMARK    9  A    between atoms: C_18  and  C_21
REMARK                            x       y       z     vdW  Elec       q    Type
REMARK                         _______ _______ _______ _____ _____    ______ ____
ROOT
ATOM      1  C   UNL     1       4.648   5.507  17.144  0.00  0.00    +0.000 C 
ATOM      2  C   UNL     1       5.202   6.213  18.391  0.00  0.00    +0.000 C 
ATOM      3  C   UNL     1       6.720   6.149  18.465  0.00  0.00    +0.000 C 
ATOM      4  C   UNL     1       7.389   6.665  17.184  0.00  0.00    +0.000 C 
ATOM      5  C   UNL     1       6.777   6.191  15.868  0.00  0.00    +0.000 C 
ATOM      6  C   UNL     1       5.252   6.137  15.878  0.00  0.00    +0.000 C 
ENDROOT
BRANCH   1   8
ATOM      7  C   UNL     1       5.564   3.288  16.250  0.00  0.00    +0.000 C 
ATOM      8  N   UNL     1       4.736   4.019  17.202  0.00  0.00    +0.000 N 
ATOM      9  C   UNL     1       3.813   3.226  17.915  0.00  0.00    +0.000 C 
ATOM     10  O   UNL     1       3.658   2.035  17.636  0.00  0.00    +0.000 OA
BRANCH   9  11
ATOM     11  C   UNL     1       3.013   3.838  18.953  0.00  0.00    +0.000 A 
ATOM     12  C   UNL     1       1.816   4.529  18.860  0.00  0.00    +0.000 A 
ATOM     13  C   UNL     1       1.458   4.905  20.169  0.00  0.00    +0.000 A 
ATOM     14  C   UNL     1       2.423   4.382  20.995  0.00  0.00    +0.000 A 
ATOM     15  O   UNL     1       3.364   3.727  20.270  0.00  0.00    +0.000 OA
ENDBRANCH   9  11
ENDBRANCH   1   8
BRANCH   4  16
ATOM     16  N   UNL     1       7.421   8.110  17.190  0.00  0.00    +0.000 N 
ATOM     17  C   UNL     1       8.191   8.778  18.089  0.00  0.00    +0.000 C 
ATOM     18  O   UNL     1       8.928   8.229  18.896  0.00  0.00    +0.000 OA
ATOM     19  H   UNL     1       6.769   8.669  16.653  0.00  0.00    +0.000 HD
BRANCH  17  20
ATOM     20  O   UNL     1       8.016  10.106  17.935  0.00  0.00    +0.000 OA
BRANCH  20  21
ATOM     21  C   UNL     1       9.041  10.987  18.460  0.00  0.00    +0.000 C 
ATOM     22  C   UNL     1      10.371  10.784  17.722  0.00  0.00    +0.000 C 
ATOM     23  C   UNL     1       8.539  12.408  18.171  0.00  0.00    +0.000 C 
ATOM     24  C   UNL     1       9.174  10.823  19.981  0.00  0.00    +0.000 C 
ENDBRANCH  20  21
ENDBRANCH  17  20
ENDBRANCH   4  16
TORSDOF 5
ENDMDL
MODEL 6
REMARK VINA RESULT:      -6.0      3.784      8.689
REMARK  Name = 
REMARK  9 active torsions:
REMARK  status: ('A' for Active; 'I' for Inactive)
REMARK    1  A    between atoms: C_1  and  N_2
REMARK    2  A    between atoms: N_2  and  C_10
REMARK    3  A    between atoms: C_3  and  C_5
REMARK    4  A    between atoms: C_13  and  N_14
REMARK    5  A    between atoms: C_15  and  O_17
REMARK    6  A    between atoms: O_17  and  C_18
REMARK    7  A    between atoms: C_18  and  C_19
REMARK    8  A    between atoms: C_18  and  C_20
REMARK    9  A    between atoms: C_18  and  C_21
REMARK                            x       y       z     vdW  Elec       q    Type
REMARK                         _______ _______ _______ _____ _____    ______ ____
ROOT
ATOM      1  C   UNL     1      -0.506   9.991  20.239  0.00  0.00    +0.000 C 
ATOM      2  C   UNL     1      -0.007   9.091  19.098  0.00  0.00    +0.000 C 
ATOM      3  C   UNL     1       1.484   8.806  19.196  0.00  0.00    +0.000 C 
ATOM      4  C   UNL     1       1.882   8.245  20.568  0.00  0.00    +0.000 C 
ATOM      5  C   UNL     1       1.265   8.938  21.782  0.00  0.00    +0.000 C 
ATOM      6  C   UNL     1      -0.196   9.334  21.593  0.00  0.00    +0.000 C 
ENDROOT
BRANCH   1   8
ATOM      7  C   UNL     1       1.110  11.887  20.835  0.00  0.00    +0.000 C 
ATOM      8  N   UNL     1      -0.070  11.413  20.122  0.00  0.00    +0.000 N 
ATOM      9  C   UNL     1      -0.909  12.432  19.622  0.00  0.00    +0.000 C 
ATOM     10  O   UNL     1      -0.696  13.614  19.897  0.00  0.00    +0.000 OA
BRANCH   9  11
ATOM     11  C   UNL     1      -2.053  12.068  18.815  0.00  0.00    +0.000 A 
ATOM     12  C   UNL     1      -2.107  11.598  17.513  0.00  0.00    +0.000 A 
ATOM     13  C   UNL     1      -3.466  11.388  17.211  0.00  0.00    +0.000 A 
ATOM     14  C   UNL     1      -4.165  11.689  18.355  0.00  0.00    +0.000 A 
ATOM     15  O   UNL     1      -3.318  12.093  19.335  0.00  0.00    +0.000 OA
ENDBRANCH   9  11
ENDBRANCH   1   8
BRANCH   4  16
ATOM     16  N   UNL     1       1.577   6.834  20.633  0.00  0.00    +0.000 N 
ATOM     17  C   UNL     1       2.408   5.924  20.060  0.00  0.00    +0.000 C 
ATOM     18  O   UNL     1       3.461   6.214  19.511  0.00  0.00    +0.000 OA
ATOM     19  H   UNL     1       0.682   6.487  20.955  0.00  0.00    +0.000 HD
BRANCH  17  20
ATOM     20  O   UNL     1       1.891   4.687  20.205  0.00  0.00    +0.000 OA
BRANCH  20  21
ATOM     21  C   UNL     1       1.955   3.791  19.066  0.00  0.00    +0.000 C 
ATOM     22  C   UNL     1       3.316   3.084  18.999  0.00  0.00    +0.000 C 
ATOM     23  C   UNL     1       0.872   2.735  19.321  0.00  0.00    +0.000 C 
ATOM     24  C   UNL     1       1.607   4.534  17.768  0.00  0.00    +0.000 C 
ENDBRANCH  20  21
ENDBRANCH  17  20
ENDBRANCH   4  16
TORSDOF 5
ENDMDL
MODEL 7
REMARK VINA RESULT:      -6.0      4.207      6.779
REMARK  Name = 
REMARK  9 active torsions:
REMARK  status: ('A' for Active; 'I' for Inactive)
REMARK    1  A    between atoms: C_1  and  N_2
REMARK    2  A    between atoms: N_2  and  C_10
REMARK    3  A    between atoms: C_3  and  C_5
REMARK    4  A    between atoms: C_13  and  N_14
REMARK    5  A    between atoms: C_15  and  O_17
REMARK    6  A    between atoms: O_17  and  C_18
REMARK    7  A    between atoms: C_18  and  C_19
REMARK    8  A    between atoms: C_18  and  C_20
REMARK    9  A    between atoms: C_18  and  C_21
REMARK                            x       y       z     vdW  Elec       q    Type
REMARK                         _______ _______ _______ _____ _____    ______ ____
ROOT
ATOM      1  C   UNL     1       4.963   5.536  18.595  0.00  0.00    +0.000 C 
ATOM      2  C   UNL     1       6.242   5.176  19.368  0.00  0.00    +0.000 C 
ATOM      3  C   UNL     1       7.482   5.230  18.489  0.00  0.00    +0.000 C 
ATOM      4  C   UNL     1       7.625   6.575  17.763  0.00  0.00    +0.000 C 
ATOM      5  C   UNL     1       6.351   7.138  17.134  0.00  0.00    +0.000 C 
ATOM      6  C   UNL     1       5.101   6.941  17.986  0.00  0.00    +0.000 C 
ENDROOT
BRANCH   1   8
ATOM      7  C   UNL     1       5.059   4.436  16.284  0.00  0.00    +0.000 C 
ATOM      8  N   UNL     1       4.518   4.483  17.638  0.00  0.00    +0.000 N 
ATOM      9  C   UNL     1       3.357   3.708  17.838  0.00  0.00    +0.000 C 
ATOM     10  O   UNL     1       2.798   3.152  16.890  0.00  0.00    +0.000 OA
BRANCH   9  11
ATOM     11  C   UNL     1       2.799   3.608  19.169  0.00  0.00    +0.000 A 
ATOM     12  C   UNL     1       1.649   4.174  19.694  0.00  0.00    +0.000 A 
ATOM     13  C   UNL     1       1.559   3.751  21.034  0.00  0.00    +0.000 A 
ATOM     14  C   UNL     1       2.626   2.909  21.242  0.00  0.00    +0.000 A 
ATOM     15  O   UNL     1       3.377   2.809  20.116  0.00  0.00    +0.000 OA
ENDBRANCH   9  11
ENDBRANCH   1   8
BRANCH   4  16
ATOM     16  N   UNL     1       8.180   7.564  18.658  0.00  0.00    +0.000 N 
ATOM     17  C   UNL     1       8.457   8.818  18.212  0.00  0.00    +0.000 C 
ATOM     18  O   UNL     1       8.219   9.205  17.076  0.00  0.00    +0.000 OA
ATOM     19  H   UNL     1       8.526   7.328  19.580  0.00  0.00    +0.000 HD
BRANCH  17  20
ATOM     20  O   UNL     1       9.011   9.539  19.207  0.00  0.00    +0.000 OA
BRANCH  20  21
ATOM     21  C   UNL     1       9.322  10.930  18.940  0.00  0.00    +0.000 C 
ATOM     22  C   UNL     1       9.416  11.732  20.245  0.00  0.00    +0.000 C 
ATOM     23  C   UNL     1      10.707  10.915  18.280  0.00  0.00    +0.000 C 
ATOM     24  C   UNL     1       8.320  11.531  17.944  0.00  0.00    +0.000 C 
ENDBRANCH  20  21
ENDBRANCH  17  20
ENDBRANCH   4  16
TORSDOF 5
ENDMDL
MODEL 8
REMARK VINA RESULT:      -5.9      2.305      3.811
REMARK  Name = 
REMARK  9 active torsions:
REMARK  status: ('A' for Active; 'I' for Inactive)
REMARK    1  A    between atoms: C_1  and  N_2
REMARK    2  A    between atoms: N_2  and  C_10
REMARK    3  A    between atoms: C_3  and  C_5
REMARK    4  A    between atoms: C_13  and  N_14
REMARK    5  A    between atoms: C_15  and  O_17
REMARK    6  A    between atoms: O_17  and  C_18
REMARK    7  A    between atoms: C_18  and  C_19
REMARK    8  A    between atoms: C_18  and  C_20
REMARK    9  A    between atoms: C_18  and  C_21
REMARK                            x       y       z     vdW  Elec       q    Type
REMARK                         _______ _______ _______ _____ _____    ______ ____
ROOT
ATOM      1  C   UNL     1       3.254   5.255  17.931  0.00  0.00    +0.000 C 
ATOM      2  C   UNL     1       2.043   5.622  18.803  0.00  0.00    +0.000 C 
ATOM      3  C   UNL     1       2.258   6.915  19.574  0.00  0.00    +0.000 C 
ATOM      4  C   UNL     1       2.664   8.079  18.661  0.00  0.00    +0.000 C 
ATOM      5  C   UNL     1       3.719   7.765  17.602  0.00  0.00    +0.000 C 
ATOM      6  C   UNL     1       3.551   6.398  16.947  0.00  0.00    +0.000 C 
ENDROOT
BRANCH   1   8
ATOM      7  C   UNL     1       5.776   5.246  18.378  0.00  0.00    +0.000 C 
ATOM      8  N   UNL     1       4.435   4.777  18.705  0.00  0.00    +0.000 N 
ATOM      9  C   UNL     1       4.394   3.639  19.539  0.00  0.00    +0.000 C 
ATOM     10  O   UNL     1       5.429   3.040  19.840  0.00  0.00    +0.000 OA
BRANCH   9  11
ATOM     11  C   UNL     1       3.113   3.153  20.003  0.00  0.00    +0.000 A 
ATOM     12  C   UNL     1       2.439   3.417  21.183  0.00  0.00    +0.000 A 
ATOM     13  C   UNL     1       1.227   2.701  21.132  0.00  0.00    +0.000 A 
ATOM     14  C   UNL     1       1.201   2.081  19.905  0.00  0.00    +0.000 A 
ATOM     15  O   UNL     1       2.334   2.355  19.211  0.00  0.00    +0.000 OA
ENDBRANCH   9  11
ENDBRANCH   1   8
BRANCH   4  16
ATOM     16  N   UNL     1       1.497   8.627  18.009  0.00  0.00    +0.000 N 
ATOM     17  C   UNL     1       1.123   9.914  18.235  0.00  0.00    +0.000 C 
ATOM     18  O   UNL     1       1.750  10.691  18.941  0.00  0.00    +0.000 OA
ATOM     19  H   UNL     1       0.839   8.049  17.500  0.00  0.00    +0.000 HD
BRANCH  17  20
ATOM     20  O   UNL     1      -0.015  10.178  17.562  0.00  0.00    +0.000 OA
BRANCH  20  21
ATOM     21  C   UNL     1      -1.153  10.656  18.323  0.00  0.00    +0.000 C 
ATOM     22  C   UNL     1      -1.319  12.174  18.167  0.00  0.00    +0.000 C 
ATOM     23  C   UNL     1      -2.375   9.969  17.698  0.00  0.00    +0.000 C 
ATOM     24  C   UNL     1      -1.051  10.217  19.791  0.00  0.00    +0.000 C 
ENDBRANCH  20  21
ENDBRANCH  17  20
ENDBRANCH   4  16
TORSDOF 5
ENDMDL
MODEL 9
REMARK VINA RESULT:      -5.9      3.986      5.232
REMARK  Name = 
REMARK  9 active torsions:
REMARK  status: ('A' for Active; 'I' for Inactive)
REMARK    1  A    between atoms: C_1  and  N_2
REMARK    2  A    between atoms: N_2  and  C_10
REMARK    3  A    between atoms: C_3  and  C_5
REMARK    4  A    between atoms: C_13  and  N_14
REMARK    5  A    between atoms: C_15  and  O_17
REMARK    6  A    between atoms: O_17  and  C_18
REMARK    7  A    between atoms: C_18  and  C_19
REMARK    8  A    between atoms: C_18  and  C_20
REMARK    9  A    between atoms: C_18  and  C_21
REMARK                            x       y       z     vdW  Elec       q    Type
REMARK                         _______ _______ _______ _____ _____    ______ ____
ROOT
ATOM      1  C   UNL     1       5.493   4.823  14.949  0.00  0.00    +0.000 C 
ATOM      2  C   UNL     1       5.403   3.699  15.993  0.00  0.00    +0.000 C 
ATOM      3  C   UNL     1       6.166   4.031  17.266  0.00  0.00    +0.000 C 
ATOM      4  C   UNL     1       5.751   5.383  17.860  0.00  0.00    +0.000 C 
ATOM      5  C   UNL     1       5.600   6.535  16.868  0.00  0.00    +0.000 C 
ATOM      6  C   UNL     1       4.954   6.132  15.546  0.00  0.00    +0.000 C 
ENDROOT
BRANCH   1   8
ATOM      7  C   UNL     1       7.878   5.758  14.899  0.00  0.00    +0.000 C 
ATOM      8  N   UNL     1       6.831   4.939  14.299  0.00  0.00    +0.000 N 
ATOM      9  C   UNL     1       7.065   4.569  12.958  0.00  0.00    +0.000 C 
ATOM     10  O   UNL     1       8.026   5.027  12.336  0.00  0.00    +0.000 OA
BRANCH   9  11
ATOM     11  C   UNL     1       6.136   3.675  12.303  0.00  0.00    +0.000 A 
ATOM     12  C   UNL     1       4.811   3.875  11.950  0.00  0.00    +0.000 A 
ATOM     13  C   UNL     1       4.371   2.692  11.326  0.00  0.00    +0.000 A 
ATOM     14  C   UNL     1       5.459   1.854  11.283  0.00  0.00    +0.000 A 
ATOM     15  O   UNL     1       6.535   2.443  11.864  0.00  0.00    +0.000 OA
ENDBRANCH   9  11
ENDBRANCH   1   8
BRANCH   4  16
ATOM     16  N   UNL     1       4.519   5.241  18.601  0.00  0.00    +0.000 N 
ATOM     17  C   UNL     1       4.334   4.183  19.434  0.00  0.00    +0.000 C 
ATOM     18  O   UNL     1       5.184   3.331  19.651  0.00  0.00    +0.000 OA
ATOM     19  H   UNL     1       3.705   5.814  18.415  0.00  0.00    +0.000 HD
BRANCH  17  20
ATOM     20  O   UNL     1       3.098   4.239  19.969  0.00  0.00    +0.000 OA
BRANCH  20  21
ATOM     21  C   UNL     1       2.022   3.583  19.252  0.00  0.00    +0.000 C 
ATOM     22  C   UNL     1       2.309   2.084  19.083  0.00  0.00    +0.000 C 
ATOM     23  C   UNL     1       0.784   3.742  20.144  0.00  0.00    +0.000 C 
ATOM     24  C   UNL     1       1.747   4.289  17.916  0.00  0.00    +0.000 C 
ENDBRANCH  20  21
ENDBRANCH  17  20
ENDBRANCH   4  16
TORSDOF 5
ENDMDL
