MODEL 1
REMARK VINA RESULT:      -7.4      0.000      0.000
REMARK  Name = 
REMARK  4 active torsions:
REMARK  status: ('A' for Active; 'I' for Inactive)
REMARK    1  A    between atoms: C_2  and  C_3
REMARK    2  A    between atoms: C_2  and  C_17
REMARK    3  A    between atoms: C_4  and  C_5
REMARK    4  A    between atoms: C_8  and  N_9
REMARK                            x       y       z     vdW  Elec       q    Type
REMARK                         _______ _______ _______ _____ _____    ______ ____
ROOT
ATOM      1  C   UNL     1       8.588  10.153  18.295  0.00  0.00    +0.000 A 
ATOM      2  C   UNL     1       8.581  11.422  17.714  0.00  0.00    +0.000 A 
ATOM      3  C   UNL     1       9.173  12.509  18.371  0.00  0.00    +0.000 A 
ATOM      4  C   UNL     1       9.765  12.373  19.634  0.00  0.00    +0.000 A 
ATOM      5  C   UNL     1       9.774  11.092  20.198  0.00  0.00    +0.000 A 
ATOM      6  C   UNL     1       9.187  10.000  19.547  0.00  0.00    +0.000 A 
ENDROOT
BRANCH   4   7
ATOM      7  N   UNL     1      10.231  13.489  20.308  0.00  0.00    +0.000 N 
ATOM      8  C   UNL     1       9.884  13.699  21.713  0.00  0.00    +0.000 C 
ATOM      9  C   UNL     1       9.684  15.198  21.928  0.00  0.00    +0.000 C 
ATOM     10  C   UNL     1      10.918  15.989  21.503  0.00  0.00    +0.000 C 
ATOM     11  C   UNL     1      11.355  15.635  20.079  0.00  0.00    +0.000 C 
ATOM     12  C   UNL     1      11.476  14.125  19.871  0.00  0.00    +0.000 C 
ENDBRANCH   4   7
BRANCH   1  14
ATOM     13  C   UNL     1       7.940   7.781  18.044  0.00  0.00    +0.000 C 
ATOM     14  C   UNL     1       7.932   9.043  17.589  0.00  0.00    +0.000 C 
BRANCH  13  16
ATOM     15  O   UNL     1       7.832   6.319  16.206  0.00  0.00    +0.000 OA
ATOM     16  C   UNL     1       7.313   6.668  17.266  0.00  0.00    +0.000 C 
BRANCH  16  17
ATOM     17  C   UNL     1       6.123   6.000  17.790  0.00  0.00    +0.000 A 
ATOM     18  C   UNL     1       5.975   5.482  19.066  0.00  0.00    +0.000 A 
ATOM     19  C   UNL     1       4.690   4.900  19.286  0.00  0.00    +0.000 A 
ATOM     20  C   UNL     1       3.915   4.985  18.160  0.00  0.00    +0.000 A 
ATOM     21  I   UNL     1       1.993   4.274  18.032  0.00  0.00    +0.000 I 
ATOM     22  S   UNL     1       4.699   5.739  16.866  0.00  0.00    +0.000 S 
ENDBRANCH  16  17
ENDBRANCH  13  16
ENDBRANCH   1  14
TORSDOF 4
ENDMDL
MODEL 2
REMARK VINA RESULT:      -7.4      0.999      1.160
REMARK  Name = 
REMARK  4 active torsions:
REMARK  status: ('A' for Active; 'I' for Inactive)
REMARK    1  A    between atoms: C_2  and  C_3
REMARK    2  A    between atoms: C_2  and  C_17
REMARK    3  A    between atoms: C_4  and  C_5
REMARK    4  A    between atoms: C_8  and  N_9
REMARK                            x       y       z     vdW  Elec       q    Type
REMARK                         _______ _______ _______ _____ _____    ______ ____
ROOT
ATOM      1  C   UNL     1       8.506   9.852  18.186  0.00  0.00    +0.000 A 
ATOM      2  C   UNL     1       8.430  11.096  17.559  0.00  0.00    +0.000 A 
ATOM      3  C   UNL     1       9.127  12.197  18.075  0.00  0.00    +0.000 A 
ATOM      4  C   UNL     1       9.898  12.100  19.241  0.00  0.00    +0.000 A 
ATOM      5  C   UNL     1       9.973  10.843  19.851  0.00  0.00    +0.000 A 
ATOM      6  C   UNL     1       9.282   9.738  19.342  0.00  0.00    +0.000 A 
ENDROOT
BRANCH   4   7
ATOM      7  N   UNL     1      10.473  13.233  19.792  0.00  0.00    +0.000 N 
ATOM      8  C   UNL     1      10.209  13.593  21.184  0.00  0.00    +0.000 C 
ATOM      9  C   UNL     1      10.126  15.115  21.269  0.00  0.00    +0.000 C 
ATOM     10  C   UNL     1      11.394  15.770  20.724  0.00  0.00    +0.000 C 
ATOM     11  C   UNL     1      11.738  15.260  19.322  0.00  0.00    +0.000 C 
ATOM     12  C   UNL     1      11.740  13.732  19.249  0.00  0.00    +0.000 C 
ENDBRANCH   4   7
BRANCH   1  14
ATOM     13  C   UNL     1       7.866   7.468  18.073  0.00  0.00    +0.000 C 
ATOM     14  C   UNL     1       7.738   8.728  17.632  0.00  0.00    +0.000 C 
BRANCH  13  16
ATOM     15  O   UNL     1       7.681   5.637  16.610  0.00  0.00    +0.000 OA
ATOM     16  C   UNL     1       7.111   6.341  17.443  0.00  0.00    +0.000 C 
BRANCH  16  17
ATOM     17  C   UNL     1       5.731   6.079  17.847  0.00  0.00    +0.000 A 
ATOM     18  C   UNL     1       4.593   6.524  17.194  0.00  0.00    +0.000 A 
ATOM     19  C   UNL     1       3.386   6.094  17.824  0.00  0.00    +0.000 A 
ATOM     20  C   UNL     1       3.655   5.351  18.943  0.00  0.00    +0.000 A 
ATOM     21  I   UNL     1       2.212   4.533  20.153  0.00  0.00    +0.000 I 
ATOM     22  S   UNL     1       5.308   5.170  19.241  0.00  0.00    +0.000 S 
ENDBRANCH  16  17
ENDBRANCH  13  16
ENDBRANCH   1  14
TORSDOF 4
ENDMDL
MODEL 3
REMARK VINA RESULT:      -7.3      4.691      9.567
REMARK  Name = 
REMARK  4 active torsions:
REMARK  status: ('A' for Active; 'I' for Inactive)
REMARK    1  A    between atoms: C_2  and  C_3
REMARK    2  A    between atoms: C_2  and  C_17
REMARK    3  A    between atoms: C_4  and  C_5
REMARK    4  A    between atoms: C_8  and  N_9
REMARK                            x       y       z     vdW  Elec       q    Type
REMARK                         _______ _______ _______ _____ _____    ______ ____
ROOT
ATOM      1  C   UNL     1       7.435   7.532  17.745  0.00  0.00    +0.000 A 
ATOM      2  C   UNL     1       7.750   6.420  18.528  0.00  0.00    +0.000 A 
ATOM      3  C   UNL     1       6.869   5.334  18.610  0.00  0.00    +0.000 A 
ATOM      4  C   UNL     1       5.639   5.331  17.937  0.00  0.00    +0.000 A 
ATOM      5  C   UNL     1       5.343   6.447  17.148  0.00  0.00    +0.000 A 
ATOM      6  C   UNL     1       6.218   7.536  17.058  0.00  0.00    +0.000 A 
ENDROOT
BRANCH   4   7
ATOM      7  N   UNL     1       4.739   4.297  18.137  0.00  0.00    +0.000 N 
ATOM      8  C   UNL     1       4.140   3.610  16.994  0.00  0.00    +0.000 C 
ATOM      9  C   UNL     1       2.696   3.269  17.356  0.00  0.00    +0.000 C 
ATOM     10  C   UNL     1       2.625   2.445  18.640  0.00  0.00    +0.000 C 
ATOM     11  C   UNL     1       3.394   3.112  19.784  0.00  0.00    +0.000 C 
ATOM     12  C   UNL     1       4.812   3.510  19.370  0.00  0.00    +0.000 C 
ENDBRANCH   4   7
BRANCH   1  14
ATOM     13  C   UNL     1       8.543   9.504  18.739  0.00  0.00    +0.000 C 
ATOM     14  C   UNL     1       8.370   8.664  17.707  0.00  0.00    +0.000 C 
BRANCH  13  16
ATOM     15  O   UNL     1      10.130  10.828  17.617  0.00  0.00    +0.000 OA
ATOM     16  C   UNL     1       9.460  10.682  18.639  0.00  0.00    +0.000 C 
BRANCH  16  17
ATOM     17  C   UNL     1       9.520  11.647  19.736  0.00  0.00    +0.000 A 
ATOM     18  C   UNL     1       9.296  11.373  21.075  0.00  0.00    +0.000 A 
ATOM     19  C   UNL     1       9.440  12.521  21.911  0.00  0.00    +0.000 A 
ATOM     20  C   UNL     1       9.753  13.630  21.169  0.00  0.00    +0.000 A 
ATOM     21  I   UNL     1      10.051  15.498  21.967  0.00  0.00    +0.000 I 
ATOM     22  S   UNL     1       9.871  13.313  19.514  0.00  0.00    +0.000 S 
ENDBRANCH  16  17
ENDBRANCH  13  16
ENDBRANCH   1  14
TORSDOF 4
ENDMDL
MODEL 4
REMARK VINA RESULT:      -7.3      7.143      8.078
REMARK  Name = 
REMARK  4 active torsions:
REMARK  status: ('A' for Active; 'I' for Inactive)
REMARK    1  A    between atoms: C_2  and  C_3
REMARK    2  A    between atoms: C_2  and  C_17
REMARK    3  A    between atoms: C_4  and  C_5
REMARK    4  A    between atoms: C_8  and  N_9
REMARK                            x       y       z     vdW  Elec       q    Type
REMARK                         _______ _______ _______ _____ _____    ______ ____
ROOT
ATOM      1  C   UNL     1       2.527   7.284  18.895  0.00  0.00    +0.000 A 
ATOM      2  C   UNL     1       2.258   8.258  17.933  0.00  0.00    +0.000 A 
ATOM      3  C   UNL     1       1.482   9.380  18.253  0.00  0.00    +0.000 A 
ATOM      4  C   UNL     1       0.931   9.554  19.530  0.00  0.00    +0.000 A 
ATOM      5  C   UNL     1       1.220   8.575  20.487  0.00  0.00    +0.000 A 
ATOM      6  C   UNL     1       1.996   7.452  20.176  0.00  0.00    +0.000 A 
ENDROOT
BRANCH   4   7
ATOM      7  N   UNL     1       0.069  10.609  19.779  0.00  0.00    +0.000 N 
ATOM      8  C   UNL     1       0.265  11.462  20.950  0.00  0.00    +0.000 C 
ATOM      9  C   UNL     1      -1.112  11.845  21.489  0.00  0.00    +0.000 C 
ATOM     10  C   UNL     1      -1.962  12.513  20.411  0.00  0.00    +0.000 C 
ATOM     11  C   UNL     1      -2.025  11.671  19.134  0.00  0.00    +0.000 C 
ATOM     12  C   UNL     1      -0.636  11.239  18.660  0.00  0.00    +0.000 C 
ENDBRANCH   4   7
BRANCH   1  14
ATOM     13  C   UNL     1       4.227   5.543  19.326  0.00  0.00    +0.000 C 
ATOM     14  C   UNL     1       3.320   6.107  18.514  0.00  0.00    +0.000 C 
BRANCH  13  16
ATOM     15  O   UNL     1       5.196   3.424  19.637  0.00  0.00    +0.000 OA
ATOM     16  C   UNL     1       5.059   4.382  18.878  0.00  0.00    +0.000 C 
BRANCH  16  17
ATOM     17  C   UNL     1       5.661   4.395  17.546  0.00  0.00    +0.000 A 
ATOM     18  C   UNL     1       6.942   4.821  17.236  0.00  0.00    +0.000 A 
ATOM     19  C   UNL     1       7.248   4.700  15.846  0.00  0.00    +0.000 A 
ATOM     20  C   UNL     1       6.178   4.201  15.151  0.00  0.00    +0.000 A 
ATOM     21  I   UNL     1       6.180   3.866  13.126  0.00  0.00    +0.000 I 
ATOM     22  S   UNL     1       4.836   3.885  16.129  0.00  0.00    +0.000 S 
ENDBRANCH  16  17
ENDBRANCH  13  16
ENDBRANCH   1  14
TORSDOF 4
ENDMDL
MODEL 5
REMARK VINA RESULT:      -7.2      7.135      8.022
REMARK  Name = 
REMARK  4 active torsions:
REMARK  status: ('A' for Active; 'I' for Inactive)
REMARK    1  A    between atoms: C_2  and  C_3
REMARK    2  A    between atoms: C_2  and  C_17
REMARK    3  A    between atoms: C_4  and  C_5
REMARK    4  A    between atoms: C_8  and  N_9
REMARK                            x       y       z     vdW  Elec       q    Type
REMARK                         _______ _______ _______ _____ _____    ______ ____
ROOT
ATOM      1  C   UNL     1       2.623   7.381  18.705  0.00  0.00    +0.000 A 
ATOM      2  C   UNL     1       2.338   8.357  17.750  0.00  0.00    +0.000 A 
ATOM      3  C   UNL     1       1.510   9.442  18.066  0.00  0.00    +0.000 A 
ATOM      4  C   UNL     1       0.922   9.577  19.331  0.00  0.00    +0.000 A 
ATOM      5  C   UNL     1       1.227   8.596  20.282  0.00  0.00    +0.000 A 
ATOM      6  C   UNL     1       2.055   7.510  19.975  0.00  0.00    +0.000 A 
ENDROOT
BRANCH   4   7
ATOM      7  N   UNL     1       0.013  10.593  19.573  0.00  0.00    +0.000 N 
ATOM      8  C   UNL     1      -1.197  10.708  18.761  0.00  0.00    +0.000 C 
ATOM      9  C   UNL     1      -1.487  12.194  18.557  0.00  0.00    +0.000 C 
ATOM     10  C   UNL     1      -1.604  12.924  19.893  0.00  0.00    +0.000 C 
ATOM     11  C   UNL     1      -0.392  12.661  20.791  0.00  0.00    +0.000 C 
ATOM     12  C   UNL     1      -0.080  11.169  20.917  0.00  0.00    +0.000 C 
ENDBRANCH   4   7
BRANCH   1  14
ATOM     13  C   UNL     1       4.261   5.598  19.201  0.00  0.00    +0.000 C 
ATOM     14  C   UNL     1       3.471   6.242  18.328  0.00  0.00    +0.000 C 
BRANCH  13  16
ATOM     15  O   UNL     1       5.384   3.562  19.551  0.00  0.00    +0.000 OA
ATOM     16  C   UNL     1       5.156   4.481  18.765  0.00  0.00    +0.000 C 
BRANCH  16  17
ATOM     17  C   UNL     1       5.714   4.487  17.414  0.00  0.00    +0.000 A 
ATOM     18  C   UNL     1       6.938   5.016  17.040  0.00  0.00    +0.000 A 
ATOM     19  C   UNL     1       7.212   4.858  15.648  0.00  0.00    +0.000 A 
ATOM     20  C   UNL     1       6.175   4.228  15.014  0.00  0.00    +0.000 A 
ATOM     21  I   UNL     1       6.148   3.797  13.007  0.00  0.00    +0.000 I 
ATOM     22  S   UNL     1       4.900   3.833  16.051  0.00  0.00    +0.000 S 
ENDBRANCH  16  17
ENDBRANCH  13  16
ENDBRANCH   1  14
TORSDOF 4
ENDMDL
MODEL 6
REMARK VINA RESULT:      -7.2      4.714      9.602
REMARK  Name = 
REMARK  4 active torsions:
REMARK  status: ('A' for Active; 'I' for Inactive)
REMARK    1  A    between atoms: C_2  and  C_3
REMARK    2  A    between atoms: C_2  and  C_17
REMARK    3  A    between atoms: C_4  and  C_5
REMARK    4  A    between atoms: C_8  and  N_9
REMARK                            x       y       z     vdW  Elec       q    Type
REMARK                         _______ _______ _______ _____ _____    ______ ____
ROOT
ATOM      1  C   UNL     1       7.413   7.525  17.915  0.00  0.00    +0.000 A 
ATOM      2  C   UNL     1       6.189   7.544  17.246  0.00  0.00    +0.000 A 
ATOM      3  C   UNL     1       5.303   6.463  17.352  0.00  0.00    +0.000 A 
ATOM      4  C   UNL     1       5.617   5.323  18.104  0.00  0.00    +0.000 A 
ATOM      5  C   UNL     1       6.843   5.325  18.779  0.00  0.00    +0.000 A 
ATOM      6  C   UNL     1       7.733   6.401  18.681  0.00  0.00    +0.000 A 
ENDROOT
BRANCH   4   7
ATOM      7  N   UNL     1       4.775   4.224  18.089  0.00  0.00    +0.000 N 
ATOM      8  C   UNL     1       4.251   3.714  16.823  0.00  0.00    +0.000 C 
ATOM      9  C   UNL     1       2.820   3.239  17.064  0.00  0.00    +0.000 C 
ATOM     10  C   UNL     1       2.762   2.202  18.184  0.00  0.00    +0.000 C 
ATOM     11  C   UNL     1       3.456   2.701  19.454  0.00  0.00    +0.000 C 
ATOM     12  C   UNL     1       4.859   3.240  19.170  0.00  0.00    +0.000 C 
ENDBRANCH   4   7
BRANCH   1  14
ATOM     13  C   UNL     1       8.669   9.473  18.770  0.00  0.00    +0.000 C 
ATOM     14  C   UNL     1       8.328   8.663  17.757  0.00  0.00    +0.000 C 
BRANCH  13  16
ATOM     15  O   UNL     1      10.161  10.762  17.489  0.00  0.00    +0.000 OA
ATOM     16  C   UNL     1       9.557  10.659  18.556  0.00  0.00    +0.000 C 
BRANCH  16  17
ATOM     17  C   UNL     1       9.664  11.680  19.597  0.00  0.00    +0.000 A 
ATOM     18  C   UNL     1       9.529  11.471  20.959  0.00  0.00    +0.000 A 
ATOM     19  C   UNL     1       9.700  12.664  21.725  0.00  0.00    +0.000 A 
ATOM     20  C   UNL     1       9.943  13.738  20.911  0.00  0.00    +0.000 A 
ATOM     21  I   UNL     1      10.249  15.650  21.593  0.00  0.00    +0.000 I 
ATOM     22  S   UNL     1       9.964  13.339  19.269  0.00  0.00    +0.000 S 
ENDBRANCH  16  17
ENDBRANCH  13  16
ENDBRANCH   1  14
TORSDOF 4
ENDMDL
MODEL 7
REMARK VINA RESULT:      -7.2      1.301      1.844
REMARK  Name = 
REMARK  4 active torsions:
REMARK  status: ('A' for Active; 'I' for Inactive)
REMARK    1  A    between atoms: C_2  and  C_3
REMARK    2  A    between atoms: C_2  and  C_17
REMARK    3  A    between atoms: C_4  and  C_5
REMARK    4  A    between atoms: C_8  and  N_9
REMARK                            x       y       z     vdW  Elec       q    Type
REMARK                         _______ _______ _______ _____ _____    ______ ____
ROOT
ATOM      1  C   UNL     1       8.764  10.007  18.449  0.00  0.00    +0.000 A 
ATOM      2  C   UNL     1       9.553  10.246  19.574  0.00  0.00    +0.000 A 
ATOM      3  C   UNL     1       9.977  11.545  19.884  0.00  0.00    +0.000 A 
ATOM      4  C   UNL     1       9.651  12.640  19.072  0.00  0.00    +0.000 A 
ATOM      5  C   UNL     1       8.849  12.386  17.954  0.00  0.00    +0.000 A 
ATOM      6  C   UNL     1       8.419  11.091  17.638  0.00  0.00    +0.000 A 
ENDROOT
BRANCH   4   7
ATOM      7  N   UNL     1      10.186  13.888  19.338  0.00  0.00    +0.000 N 
ATOM      8  C   UNL     1       9.313  15.054  19.465  0.00  0.00    +0.000 C 
ATOM      9  C   UNL     1      10.039  16.253  18.858  0.00  0.00    +0.000 C 
ATOM     10  C   UNL     1      11.402  16.466  19.512  0.00  0.00    +0.000 C 
ATOM     11  C   UNL     1      12.240  15.185  19.506  0.00  0.00    +0.000 C 
ATOM     12  C   UNL     1      11.463  13.985  20.051  0.00  0.00    +0.000 C 
ENDBRANCH   4   7
BRANCH   1  14
ATOM     13  C   UNL     1       7.239   8.325  17.473  0.00  0.00    +0.000 C 
ATOM     14  C   UNL     1       8.363   8.627  18.140  0.00  0.00    +0.000 C 
BRANCH  13  16
ATOM     15  O   UNL     1       7.608   6.162  16.627  0.00  0.00    +0.000 OA
ATOM     16  C   UNL     1       6.835   6.905  17.231  0.00  0.00    +0.000 C 
BRANCH  16  17
ATOM     17  C   UNL     1       5.553   6.421  17.741  0.00  0.00    +0.000 A 
ATOM     18  C   UNL     1       4.301   6.798  17.286  0.00  0.00    +0.000 A 
ATOM     19  C   UNL     1       3.236   6.142  17.974  0.00  0.00    +0.000 A 
ATOM     20  C   UNL     1       3.723   5.301  18.940  0.00  0.00    +0.000 A 
ATOM     21  I   UNL     1       2.541   4.157  20.169  0.00  0.00    +0.000 I 
ATOM     22  S   UNL     1       5.410   5.293  19.028  0.00  0.00    +0.000 S 
ENDBRANCH  16  17
ENDBRANCH  13  16
ENDBRANCH   1  14
TORSDOF 4
ENDMDL
MODEL 8
REMARK VINA RESULT:      -7.2      4.670      9.575
REMARK  Name = 
REMARK  4 active torsions:
REMARK  status: ('A' for Active; 'I' for Inactive)
REMARK    1  A    between atoms: C_2  and  C_3
REMARK    2  A    between atoms: C_2  and  C_17
REMARK    3  A    between atoms: C_4  and  C_5
REMARK    4  A    between atoms: C_8  and  N_9
REMARK                            x       y       z     vdW  Elec       q    Type
REMARK                         _______ _______ _______ _____ _____    ______ ____
ROOT
ATOM      1  C   UNL     1       7.417   7.454  17.795  0.00  0.00    +0.000 A 
ATOM      2  C   UNL     1       7.757   6.401  18.645  0.00  0.00    +0.000 A 
ATOM      3  C   UNL     1       6.911   5.292  18.778  0.00  0.00    +0.000 A 
ATOM      4  C   UNL     1       5.692   5.208  18.091  0.00  0.00    +0.000 A 
ATOM      5  C   UNL     1       5.372   6.267  17.234  0.00  0.00    +0.000 A 
ATOM      6  C   UNL     1       6.212   7.377  17.093  0.00  0.00    +0.000 A 
ENDROOT
BRANCH   4   7
ATOM      7  N   UNL     1       4.824   4.158  18.338  0.00  0.00    +0.000 N 
ATOM      8  C   UNL     1       4.525   3.756  19.711  0.00  0.00    +0.000 C 
ATOM      9  C   UNL     1       4.385   2.235  19.735  0.00  0.00    +0.000 C 
ATOM     10  C   UNL     1       3.328   1.760  18.741  0.00  0.00    +0.000 C 
ATOM     11  C   UNL     1       3.575   2.323  17.339  0.00  0.00    +0.000 C 
ATOM     12  C   UNL     1       3.786   3.838  17.355  0.00  0.00    +0.000 C 
ENDBRANCH   4   7
BRANCH   1  14
ATOM     13  C   UNL     1       8.601   9.401  18.752  0.00  0.00    +0.000 C 
ATOM     14  C   UNL     1       8.315   8.613  17.704  0.00  0.00    +0.000 C 
BRANCH  13  16
ATOM     15  O   UNL     1      10.116  10.752  17.567  0.00  0.00    +0.000 OA
ATOM     16  C   UNL     1       9.472  10.608  18.605  0.00  0.00    +0.000 C 
BRANCH  16  17
ATOM     17  C   UNL     1       9.517  11.602  19.676  0.00  0.00    +0.000 A 
ATOM     18  C   UNL     1       9.443  11.341  21.034  0.00  0.00    +0.000 A 
ATOM     19  C   UNL     1       9.527  12.520  21.834  0.00  0.00    +0.000 A 
ATOM     20  C   UNL     1       9.646  13.637  21.049  0.00  0.00    +0.000 A 
ATOM     21  I   UNL     1       9.798  15.547  21.786  0.00  0.00    +0.000 I 
ATOM     22  S   UNL     1       9.655  13.291  19.395  0.00  0.00    +0.000 S 
ENDBRANCH  16  17
ENDBRANCH  13  16
ENDBRANCH   1  14
TORSDOF 4
ENDMDL
MODEL 9
REMARK VINA RESULT:      -7.2      1.115      1.663
REMARK  Name = 
REMARK  4 active torsions:
REMARK  status: ('A' for Active; 'I' for Inactive)
REMARK    1  A    between atoms: C_2  and  C_3
REMARK    2  A    between atoms: C_2  and  C_17
REMARK    3  A    between atoms: C_4  and  C_5
REMARK    4  A    between atoms: C_8  and  N_9
REMARK                            x       y       z     vdW  Elec       q    Type
REMARK                         _______ _______ _______ _____ _____    ______ ____
ROOT
ATOM      1  C   UNL     1       8.666   9.756  18.411  0.00  0.00    +0.000 A 
ATOM      2  C   UNL     1       9.401  10.015  19.568  0.00  0.00    +0.000 A 
ATOM      3  C   UNL     1       9.814  11.319  19.872  0.00  0.00    +0.000 A 
ATOM      4  C   UNL     1       9.532  12.398  19.023  0.00  0.00    +0.000 A 
ATOM      5  C   UNL     1       8.784  12.124  17.872  0.00  0.00    +0.000 A 
ATOM      6  C   UNL     1       8.366  10.825  17.562  0.00  0.00    +0.000 A 
ENDROOT
BRANCH   4   7
ATOM      7  N   UNL     1      10.059  13.651  19.290  0.00  0.00    +0.000 N 
ATOM      8  C   UNL     1      10.844  13.878  20.502  0.00  0.00    +0.000 C 
ATOM      9  C   UNL     1      10.524  15.281  21.013  0.00  0.00    +0.000 C 
ATOM     10  C   UNL     1      10.783  16.335  19.939  0.00  0.00    +0.000 C 
ATOM     11  C   UNL     1      10.074  15.993  18.626  0.00  0.00    +0.000 C 
ATOM     12  C   UNL     1      10.354  14.558  18.177  0.00  0.00    +0.000 C 
ENDBRANCH   4   7
BRANCH   1  14
ATOM     13  C   UNL     1       7.150   8.056  17.453  0.00  0.00    +0.000 C 
ATOM     14  C   UNL     1       8.275   8.372  18.110  0.00  0.00    +0.000 C 
BRANCH  13  16
ATOM     15  O   UNL     1       7.612   5.834  16.840  0.00  0.00    +0.000 OA
ATOM     16  C   UNL     1       6.756   6.632  17.220  0.00  0.00    +0.000 C 
BRANCH  16  17
ATOM     17  C   UNL     1       5.380   6.210  17.477  0.00  0.00    +0.000 A 
ATOM     18  C   UNL     1       4.270   7.037  17.522  0.00  0.00    +0.000 A 
ATOM     19  C   UNL     1       3.057   6.330  17.781  0.00  0.00    +0.000 A 
ATOM     20  C   UNL     1       3.297   4.990  17.939  0.00  0.00    +0.000 A 
ATOM     21  I   UNL     1       1.837   3.600  18.327  0.00  0.00    +0.000 I 
ATOM     22  S   UNL     1       4.930   4.582  17.785  0.00  0.00    +0.000 S 
ENDBRANCH  16  17
ENDBRANCH  13  16
ENDBRANCH   1  14
TORSDOF 4
ENDMDL
