MODEL 1
REMARK VINA RESULT:      -7.0      0.000      0.000
REMARK  Name = 
REMARK  7 active torsions:
REMARK  status: ('A' for Active; 'I' for Inactive)
REMARK    1  A    between atoms: C_1  and  O_2
REMARK    2  A    between atoms: O_2  and  C_3
REMARK    3  A    between atoms: C_7  and  C_8
REMARK    4  A    between atoms: C_8  and  C_9
REMARK    5  A    between atoms: C_21  and  O_22
REMARK    6  A    between atoms: C_23  and  O_24
REMARK    7  A    between atoms: O_24  and  C_25
REMARK                            x       y       z     vdW  Elec       q    Type
REMARK                         _______ _______ _______ _____ _____    ______ ____
ROOT
ATOM      1  C   UNL     1       1.279   8.567  20.003  0.00  0.00    +0.000 C 
ATOM      2  O   UNL     1       0.532   8.628  20.988  0.00  0.00    +0.000 OA
ATOM      3  N   UNL     1       2.108   7.471  19.801  0.00  0.00    +0.000 N 
ATOM      4  C   UNL     1       2.036   6.363  20.745  0.00  0.00    +0.000 C 
ATOM      5  C   UNL     1       1.336   5.189  20.073  0.00  0.00    +0.000 C 
ATOM      6  C   UNL     1       2.140   4.718  18.840  0.00  0.00    +0.000 C 
ATOM      7  C   UNL     1       2.349   5.932  17.886  0.00  0.00    +0.000 C 
ATOM      8  C   UNL     1       2.902   7.170  18.610  0.00  0.00    +0.000 C 
ATOM      9  O   UNL     1       3.454   4.239  19.202  0.00  0.00    +0.000 OA
ATOM     10  C   UNL     1       3.462   3.101  20.072  0.00  0.00    +0.000 C 
ATOM     11  C   UNL     1       2.714   1.914  19.481  0.00  0.00    +0.000 C 
ATOM     12  C   UNL     1       1.339   2.299  18.943  0.00  0.00    +0.000 C 
ATOM     13  C   UNL     1       1.409   3.567  18.090  0.00  0.00    +0.000 C 
ENDROOT
BRANCH  13  14
ATOM     14  O   UNL     1       2.112   3.239  16.884  0.00  0.00    +0.000 OA
ATOM     15  H   UNL     1       3.018   2.988  17.150  0.00  0.00    +0.000 HD
ENDBRANCH  13  14
BRANCH   1  16
ATOM     16  C   UNL     1       1.283   9.731  19.017  0.00  0.00    +0.000 C 
BRANCH  16  21
ATOM     17  C   UNL     1      -1.922  11.829  19.358  0.00  0.00    +0.000 A 
ATOM     18  C   UNL     1      -2.679  11.308  18.303  0.00  0.00    +0.000 A 
ATOM     19  C   UNL     1      -2.151  10.322  17.476  0.00  0.00    +0.000 A 
ATOM     20  C   UNL     1      -0.875   9.821  17.725  0.00  0.00    +0.000 A 
ATOM     21  C   UNL     1      -0.091  10.326  18.780  0.00  0.00    +0.000 A 
ATOM     22  C   UNL     1      -0.596  11.400  19.539  0.00  0.00    +0.000 A 
BRANCH  17  24
ATOM     23  C   UNL     1      -3.966  12.695  20.179  0.00  0.00    +0.000 C 
ATOM     24  O   UNL     1      -2.549  12.816  20.075  0.00  0.00    +0.000 OA
ENDBRANCH  17  24
BRANCH  22  25
ATOM     25  O   UNL     1       0.267  11.968  20.449  0.00  0.00    +0.000 OA
ATOM     26  C   UNL     1       0.875  13.187  20.011  0.00  0.00    +0.000 C 
ENDBRANCH  22  25
ENDBRANCH  16  21
ENDBRANCH   1  16
TORSDOF 5
ENDMDL
MODEL 2
REMARK VINA RESULT:      -6.7      2.009      8.369
REMARK  Name = 
REMARK  7 active torsions:
REMARK  status: ('A' for Active; 'I' for Inactive)
REMARK    1  A    between atoms: C_1  and  O_2
REMARK    2  A    between atoms: O_2  and  C_3
REMARK    3  A    between atoms: C_7  and  C_8
REMARK    4  A    between atoms: C_8  and  C_9
REMARK    5  A    between atoms: C_21  and  O_22
REMARK    6  A    between atoms: C_23  and  O_24
REMARK    7  A    between atoms: O_24  and  C_25
REMARK                            x       y       z     vdW  Elec       q    Type
REMARK                         _______ _______ _______ _____ _____    ______ ____
ROOT
ATOM      1  C   UNL     1       2.022   7.785  19.407  0.00  0.00    +0.000 C 
ATOM      2  O   UNL     1       1.851   7.287  20.528  0.00  0.00    +0.000 OA
ATOM      3  N   UNL     1       1.324   8.920  19.016  0.00  0.00    +0.000 N 
ATOM      4  C   UNL     1       0.427   9.549  19.977  0.00  0.00    +0.000 C 
ATOM      5  C   UNL     1       1.058  10.847  20.463  0.00  0.00    +0.000 C 
ATOM      6  C   UNL     1       1.258  11.823  19.281  0.00  0.00    +0.000 C 
ATOM      7  C   UNL     1       2.097  11.110  18.179  0.00  0.00    +0.000 C 
ATOM      8  C   UNL     1       1.543   9.723  17.813  0.00  0.00    +0.000 C 
ATOM      9  O   UNL     1       0.001  12.199  18.674  0.00  0.00    +0.000 OA
ATOM     10  C   UNL     1      -0.905  12.890  19.541  0.00  0.00    +0.000 C 
ATOM     11  C   UNL     1      -0.301  14.165  20.114  0.00  0.00    +0.000 C 
ATOM     12  C   UNL     1       1.094  13.942  20.691  0.00  0.00    +0.000 C 
ATOM     13  C   UNL     1       1.970  13.129  19.735  0.00  0.00    +0.000 C 
ENDROOT
BRANCH  13  14
ATOM     14  O   UNL     1       2.254  13.958  18.599  0.00  0.00    +0.000 OA
ATOM     15  H   UNL     1       1.650  14.723  18.656  0.00  0.00    +0.000 HD
ENDBRANCH  13  14
BRANCH   1  16
ATOM     16  C   UNL     1       3.007   7.117  18.454  0.00  0.00    +0.000 C 
BRANCH  16  21
ATOM     17  C   UNL     1       3.917   3.420  18.996  0.00  0.00    +0.000 A 
ATOM     18  C   UNL     1       2.791   2.799  18.446  0.00  0.00    +0.000 A 
ATOM     19  C   UNL     1       1.742   3.561  17.940  0.00  0.00    +0.000 A 
ATOM     20  C   UNL     1       1.832   4.951  17.945  0.00  0.00    +0.000 A 
ATOM     21  C   UNL     1       2.954   5.602  18.492  0.00  0.00    +0.000 A 
ATOM     22  C   UNL     1       3.956   4.821  19.099  0.00  0.00    +0.000 A 
BRANCH  17  24
ATOM     23  C   UNL     1       4.506   1.872  20.687  0.00  0.00    +0.000 C 
ATOM     24  O   UNL     1       4.862   2.555  19.486  0.00  0.00    +0.000 OA
ENDBRANCH  17  24
BRANCH  22  25
ATOM     25  O   UNL     1       4.950   5.505  19.764  0.00  0.00    +0.000 OA
ATOM     26  C   UNL     1       6.226   5.477  19.116  0.00  0.00    +0.000 C 
ENDBRANCH  22  25
ENDBRANCH  16  21
ENDBRANCH   1  16
TORSDOF 5
ENDMDL
MODEL 3
REMARK VINA RESULT:      -6.6      0.970      1.890
REMARK  Name = 
REMARK  7 active torsions:
REMARK  status: ('A' for Active; 'I' for Inactive)
REMARK    1  A    between atoms: C_1  and  O_2
REMARK    2  A    between atoms: O_2  and  C_3
REMARK    3  A    between atoms: C_7  and  C_8
REMARK    4  A    between atoms: C_8  and  C_9
REMARK    5  A    between atoms: C_21  and  O_22
REMARK    6  A    between atoms: C_23  and  O_24
REMARK    7  A    between atoms: O_24  and  C_25
REMARK                            x       y       z     vdW  Elec       q    Type
REMARK                         _______ _______ _______ _____ _____    ______ ____
ROOT
ATOM      1  C   UNL     1       1.293   8.427  20.143  0.00  0.00    +0.000 C 
ATOM      2  O   UNL     1       0.627   8.431  21.187  0.00  0.00    +0.000 OA
ATOM      3  N   UNL     1       2.152   7.377  19.848  0.00  0.00    +0.000 N 
ATOM      4  C   UNL     1       2.210   6.248  20.767  0.00  0.00    +0.000 C 
ATOM      5  C   UNL     1       1.514   5.055  20.126  0.00  0.00    +0.000 C 
ATOM      6  C   UNL     1       2.235   4.650  18.820  0.00  0.00    +0.000 C 
ATOM      7  C   UNL     1       2.308   5.892  17.882  0.00  0.00    +0.000 C 
ATOM      8  C   UNL     1       2.860   7.140  18.589  0.00  0.00    +0.000 C 
ATOM      9  O   UNL     1       3.596   4.228  19.063  0.00  0.00    +0.000 OA
ATOM     10  C   UNL     1       3.729   3.075  19.901  0.00  0.00    +0.000 C 
ATOM     11  C   UNL     1       2.992   1.864  19.344  0.00  0.00    +0.000 C 
ATOM     12  C   UNL     1       1.561   2.192  18.928  0.00  0.00    +0.000 C 
ATOM     13  C   UNL     1       1.501   3.480  18.104  0.00  0.00    +0.000 C 
ENDROOT
BRANCH  13  14
ATOM     14  O   UNL     1       2.117   3.212  16.837  0.00  0.00    +0.000 OA
ATOM     15  H   UNL     1       2.871   3.828  16.759  0.00  0.00    +0.000 HD
ENDBRANCH  13  14
BRANCH   1  16
ATOM     16  C   UNL     1       1.160   9.610  19.189  0.00  0.00    +0.000 C 
BRANCH  16  21
ATOM     17  C   UNL     1      -1.732  12.046  19.888  0.00  0.00    +0.000 A 
ATOM     18  C   UNL     1      -1.111  12.927  20.780  0.00  0.00    +0.000 A 
ATOM     19  C   UNL     1       0.207  12.719  21.174  0.00  0.00    +0.000 A 
ATOM     20  C   UNL     1       0.925  11.648  20.646  0.00  0.00    +0.000 A 
ATOM     21  C   UNL     1       0.325  10.746  19.747  0.00  0.00    +0.000 A 
ATOM     22  C   UNL     1      -1.040  10.906  19.444  0.00  0.00    +0.000 A 
BRANCH  17  24
ATOM     23  C   UNL     1      -3.719  13.121  20.595  0.00  0.00    +0.000 C 
ATOM     24  O   UNL     1      -3.040  12.348  19.607  0.00  0.00    +0.000 OA
ENDBRANCH  17  24
BRANCH  22  25
ATOM     25  O   UNL     1      -1.624   9.910  18.693  0.00  0.00    +0.000 OA
ATOM     26  C   UNL     1      -1.852  10.254  17.322  0.00  0.00    +0.000 C 
ENDBRANCH  22  25
ENDBRANCH  16  21
ENDBRANCH   1  16
TORSDOF 5
ENDMDL
MODEL 4
REMARK VINA RESULT:      -6.6      2.005      8.089
REMARK  Name = 
REMARK  7 active torsions:
REMARK  status: ('A' for Active; 'I' for Inactive)
REMARK    1  A    between atoms: C_1  and  O_2
REMARK    2  A    between atoms: O_2  and  C_3
REMARK    3  A    between atoms: C_7  and  C_8
REMARK    4  A    between atoms: C_8  and  C_9
REMARK    5  A    between atoms: C_21  and  O_22
REMARK    6  A    between atoms: C_23  and  O_24
REMARK    7  A    between atoms: O_24  and  C_25
REMARK                            x       y       z     vdW  Elec       q    Type
REMARK                         _______ _______ _______ _____ _____    ______ ____
ROOT
ATOM      1  C   UNL     1       1.041   9.079  21.721  0.00  0.00    +0.000 C 
ATOM      2  O   UNL     1       1.995   9.330  22.470  0.00  0.00    +0.000 OA
ATOM      3  N   UNL     1       0.116  10.061  21.389  0.00  0.00    +0.000 N 
ATOM      4  C   UNL     1       0.326  11.412  21.894  0.00  0.00    +0.000 C 
ATOM      5  C   UNL     1       0.774  12.304  20.744  0.00  0.00    +0.000 C 
ATOM      6  C   UNL     1      -0.319  12.363  19.653  0.00  0.00    +0.000 C 
ATOM      7  C   UNL     1      -0.657  10.910  19.204  0.00  0.00    +0.000 C 
ATOM      8  C   UNL     1      -0.947   9.974  20.388  0.00  0.00    +0.000 C 
ATOM      9  O   UNL     1      -1.546  12.945  20.148  0.00  0.00    +0.000 OA
ATOM     10  C   UNL     1      -1.432  14.301  20.594  0.00  0.00    +0.000 C 
ATOM     11  C   UNL     1      -0.920  15.230  19.503  0.00  0.00    +0.000 C 
ATOM     12  C   UNL     1       0.319  14.681  18.802  0.00  0.00    +0.000 C 
ATOM     13  C   UNL     1       0.142  13.207  18.430  0.00  0.00    +0.000 C 
ENDROOT
BRANCH  13  14
ATOM     14  O   UNL     1      -0.837  13.139  17.385  0.00  0.00    +0.000 OA
ATOM     15  H   UNL     1      -0.348  13.209  16.542  0.00  0.00    +0.000 HD
ENDBRANCH  13  14
BRANCH   1  16
ATOM     16  C   UNL     1       0.892   7.662  21.179  0.00  0.00    +0.000 C 
BRANCH  16  21
ATOM     17  C   UNL     1       3.414   5.945  18.839  0.00  0.00    +0.000 A 
ATOM     18  C   UNL     1       3.557   6.930  17.855  0.00  0.00    +0.000 A 
ATOM     19  C   UNL     1       2.827   8.112  17.929  0.00  0.00    +0.000 A 
ATOM     20  C   UNL     1       1.977   8.333  19.010  0.00  0.00    +0.000 A 
ATOM     21  C   UNL     1       1.814   7.360  20.015  0.00  0.00    +0.000 A 
ATOM     22  C   UNL     1       2.476   6.125  19.869  0.00  0.00    +0.000 A 
BRANCH  17  24
ATOM     23  C   UNL     1       3.811   4.044  17.487  0.00  0.00    +0.000 C 
ATOM     24  O   UNL     1       4.167   4.818  18.630  0.00  0.00    +0.000 OA
ENDBRANCH  17  24
BRANCH  22  25
ATOM     25  O   UNL     1       2.159   5.147  20.786  0.00  0.00    +0.000 OA
ATOM     26  C   UNL     1       1.192   4.195  20.330  0.00  0.00    +0.000 C 
ENDBRANCH  22  25
ENDBRANCH  16  21
ENDBRANCH   1  16
TORSDOF 5
ENDMDL
MODEL 5
REMARK VINA RESULT:      -6.6      1.908      8.306
REMARK  Name = 
REMARK  7 active torsions:
REMARK  status: ('A' for Active; 'I' for Inactive)
REMARK    1  A    between atoms: C_1  and  O_2
REMARK    2  A    between atoms: O_2  and  C_3
REMARK    3  A    between atoms: C_7  and  C_8
REMARK    4  A    between atoms: C_8  and  C_9
REMARK    5  A    between atoms: C_21  and  O_22
REMARK    6  A    between atoms: C_23  and  O_24
REMARK    7  A    between atoms: O_24  and  C_25
REMARK                            x       y       z     vdW  Elec       q    Type
REMARK                         _______ _______ _______ _____ _____    ______ ____
ROOT
ATOM      1  C   UNL     1       1.782   7.994  20.048  0.00  0.00    +0.000 C 
ATOM      2  O   UNL     1       1.560   7.804  21.251  0.00  0.00    +0.000 OA
ATOM      3  N   UNL     1       1.186   9.049  19.369  0.00  0.00    +0.000 N 
ATOM      4  C   UNL     1       0.336   9.965  20.118  0.00  0.00    +0.000 C 
ATOM      5  C   UNL     1       1.070  11.289  20.288  0.00  0.00    +0.000 C 
ATOM      6  C   UNL     1       1.361  11.923  18.909  0.00  0.00    +0.000 C 
ATOM      7  C   UNL     1       2.148  10.894  18.042  0.00  0.00    +0.000 C 
ATOM      8  C   UNL     1       1.483   9.509  18.012  0.00  0.00    +0.000 C 
ATOM      9  O   UNL     1       0.147  12.234  18.190  0.00  0.00    +0.000 OA
ATOM     10  C   UNL     1      -0.706  13.188  18.833  0.00  0.00    +0.000 C 
ATOM     11  C   UNL     1      -0.003  14.513  19.092  0.00  0.00    +0.000 C 
ATOM     12  C   UNL     1       1.364  14.331  19.748  0.00  0.00    +0.000 C 
ATOM     13  C   UNL     1       2.177  13.240  19.048  0.00  0.00    +0.000 C 
ENDROOT
BRANCH  13  14
ATOM     14  O   UNL     1       2.540  13.736  17.753  0.00  0.00    +0.000 OA
ATOM     15  H   UNL     1       3.368  13.282  17.504  0.00  0.00    +0.000 HD
ENDBRANCH  13  14
BRANCH   1  16
ATOM     16  C   UNL     1       2.717   7.035  19.318  0.00  0.00    +0.000 C 
BRANCH  16  21
ATOM     17  C   UNL     1       2.219   3.288  18.611  0.00  0.00    +0.000 A 
ATOM     18  C   UNL     1       1.419   2.929  19.701  0.00  0.00    +0.000 A 
ATOM     19  C   UNL     1       1.076   3.872  20.665  0.00  0.00    +0.000 A 
ATOM     20  C   UNL     1       1.498   5.192  20.521  0.00  0.00    +0.000 A 
ATOM     21  C   UNL     1       2.303   5.581  19.434  0.00  0.00    +0.000 A 
ATOM     22  C   UNL     1       2.733   4.593  18.528  0.00  0.00    +0.000 A 
BRANCH  17  24
ATOM     23  C   UNL     1       3.550   1.379  18.177  0.00  0.00    +0.000 C 
ATOM     24  O   UNL     1       2.509   2.258  17.753  0.00  0.00    +0.000 OA
ENDBRANCH  17  24
BRANCH  22  25
ATOM     25  O   UNL     1       3.650   4.988  17.578  0.00  0.00    +0.000 OA
ATOM     26  C   UNL     1       5.013   4.715  17.918  0.00  0.00    +0.000 C 
ENDBRANCH  22  25
ENDBRANCH  16  21
ENDBRANCH   1  16
TORSDOF 5
ENDMDL
MODEL 6
REMARK VINA RESULT:      -6.6      2.574      3.394
REMARK  Name = 
REMARK  7 active torsions:
REMARK  status: ('A' for Active; 'I' for Inactive)
REMARK    1  A    between atoms: C_1  and  O_2
REMARK    2  A    between atoms: O_2  and  C_3
REMARK    3  A    between atoms: C_7  and  C_8
REMARK    4  A    between atoms: C_8  and  C_9
REMARK    5  A    between atoms: C_21  and  O_22
REMARK    6  A    between atoms: C_23  and  O_24
REMARK    7  A    between atoms: O_24  and  C_25
REMARK                            x       y       z     vdW  Elec       q    Type
REMARK                         _______ _______ _______ _____ _____    ______ ____
ROOT
ATOM      1  C   UNL     1       2.093   8.624  18.689  0.00  0.00    +0.000 C 
ATOM      2  O   UNL     1       2.451   9.711  18.217  0.00  0.00    +0.000 OA
ATOM      3  N   UNL     1       2.492   7.427  18.109  0.00  0.00    +0.000 N 
ATOM      4  C   UNL     1       3.392   7.476  16.965  0.00  0.00    +0.000 C 
ATOM      5  C   UNL     1       4.776   7.019  17.407  0.00  0.00    +0.000 C 
ATOM      6  C   UNL     1       4.724   5.560  17.915  0.00  0.00    +0.000 C 
ATOM      7  C   UNL     1       3.656   5.462  19.046  0.00  0.00    +0.000 C 
ATOM      8  C   UNL     1       2.306   6.078  18.646  0.00  0.00    +0.000 C 
ATOM      9  O   UNL     1       4.318   4.641  16.876  0.00  0.00    +0.000 OA
ATOM     10  C   UNL     1       5.198   4.580  15.748  0.00  0.00    +0.000 C 
ATOM     11  C   UNL     1       6.618   4.194  16.139  0.00  0.00    +0.000 C 
ATOM     12  C   UNL     1       7.142   5.012  17.317  0.00  0.00    +0.000 C 
ATOM     13  C   UNL     1       6.109   5.091  18.444  0.00  0.00    +0.000 C 
ENDROOT
BRANCH  13  14
ATOM     14  O   UNL     1       6.000   3.784  19.023  0.00  0.00    +0.000 OA
ATOM     15  H   UNL     1       6.658   3.223  18.568  0.00  0.00    +0.000 HD
ENDBRANCH  13  14
BRANCH   1  16
ATOM     16  C   UNL     1       1.189   8.625  19.918  0.00  0.00    +0.000 C 
BRANCH  16  21
ATOM     17  C   UNL     1      -0.922  11.587  21.165  0.00  0.00    +0.000 A 
ATOM     18  C   UNL     1      -1.585  11.940  19.984  0.00  0.00    +0.000 A 
ATOM     19  C   UNL     1      -1.330  11.255  18.800  0.00  0.00    +0.000 A 
ATOM     20  C   UNL     1      -0.437  10.186  18.799  0.00  0.00    +0.000 A 
ATOM     21  C   UNL     1       0.244   9.809  19.972  0.00  0.00    +0.000 A 
ATOM     22  C   UNL     1       0.058  10.580  21.135  0.00  0.00    +0.000 A 
BRANCH  17  24
ATOM     23  C   UNL     1      -2.561  12.183  22.765  0.00  0.00    +0.000 C 
ATOM     24  O   UNL     1      -1.243  12.361  22.251  0.00  0.00    +0.000 OA
ENDBRANCH  17  24
BRANCH  22  25
ATOM     25  O   UNL     1       0.865  10.277  22.210  0.00  0.00    +0.000 OA
ATOM     26  C   UNL     1       0.233   9.491  23.225  0.00  0.00    +0.000 C 
ENDBRANCH  22  25
ENDBRANCH  16  21
ENDBRANCH   1  16
TORSDOF 5
ENDMDL
MODEL 7
REMARK VINA RESULT:      -6.4      1.625      8.274
REMARK  Name = 
REMARK  7 active torsions:
REMARK  status: ('A' for Active; 'I' for Inactive)
REMARK    1  A    between atoms: C_1  and  O_2
REMARK    2  A    between atoms: O_2  and  C_3
REMARK    3  A    between atoms: C_7  and  C_8
REMARK    4  A    between atoms: C_8  and  C_9
REMARK    5  A    between atoms: C_21  and  O_22
REMARK    6  A    between atoms: C_23  and  O_24
REMARK    7  A    between atoms: O_24  and  C_25
REMARK                            x       y       z     vdW  Elec       q    Type
REMARK                         _______ _______ _______ _____ _____    ______ ____
ROOT
ATOM      1  C   UNL     1       1.990   7.083  19.410  0.00  0.00    +0.000 C 
ATOM      2  O   UNL     1       2.226   6.644  18.276  0.00  0.00    +0.000 OA
ATOM      3  N   UNL     1       1.844   8.447  19.630  0.00  0.00    +0.000 N 
ATOM      4  C   UNL     1       1.916   9.347  18.487  0.00  0.00    +0.000 C 
ATOM      5  C   UNL     1       0.517   9.866  18.180  0.00  0.00    +0.000 C 
ATOM      6  C   UNL     1      -0.038  10.661  19.384  0.00  0.00    +0.000 C 
ATOM      7  C   UNL     1       0.014   9.754  20.649  0.00  0.00    +0.000 C 
ATOM      8  C   UNL     1       1.390   9.101  20.858  0.00  0.00    +0.000 C 
ATOM      9  O   UNL     1       0.762  11.830  19.673  0.00  0.00    +0.000 OA
ATOM     10  C   UNL     1       0.818  12.797  18.619  0.00  0.00    +0.000 C 
ATOM     11  C   UNL     1      -0.562  13.302  18.220  0.00  0.00    +0.000 C 
ATOM     12  C   UNL     1      -1.557  12.167  17.995  0.00  0.00    +0.000 C 
ATOM     13  C   UNL     1      -1.495  11.139  19.127  0.00  0.00    +0.000 C 
ENDROOT
BRANCH  13  14
ATOM     14  O   UNL     1      -2.026  11.761  20.305  0.00  0.00    +0.000 OA
ATOM     15  H   UNL     1      -1.647  11.282  21.067  0.00  0.00    +0.000 HD
ENDBRANCH  13  14
BRANCH   1  16
ATOM     16  C   UNL     1       1.876   6.096  20.566  0.00  0.00    +0.000 C 
BRANCH  16  21
ATOM     17  C   UNL     1       3.195   2.667  19.430  0.00  0.00    +0.000 A 
ATOM     18  C   UNL     1       1.990   1.976  19.260  0.00  0.00    +0.000 A 
ATOM     19  C   UNL     1       0.776   2.596  19.541  0.00  0.00    +0.000 A 
ATOM     20  C   UNL     1       0.759   3.926  19.955  0.00  0.00    +0.000 A 
ATOM     21  C   UNL     1       1.955   4.646  20.133  0.00  0.00    +0.000 A 
ATOM     22  C   UNL     1       3.179   3.972  19.951  0.00  0.00    +0.000 A 
BRANCH  17  24
ATOM     23  C   UNL     1       4.930   1.292  20.266  0.00  0.00    +0.000 C 
ATOM     24  O   UNL     1       4.318   1.932  19.148  0.00  0.00    +0.000 OA
ENDBRANCH  17  24
BRANCH  22  25
ATOM     25  O   UNL     1       4.319   4.665  20.295  0.00  0.00    +0.000 OA
ATOM     26  C   UNL     1       5.124   5.072  19.184  0.00  0.00    +0.000 C 
ENDBRANCH  22  25
ENDBRANCH  16  21
ENDBRANCH   1  16
TORSDOF 5
ENDMDL
MODEL 8
REMARK VINA RESULT:      -6.4      2.320      3.094
REMARK  Name = 
REMARK  7 active torsions:
REMARK  status: ('A' for Active; 'I' for Inactive)
REMARK    1  A    between atoms: C_1  and  O_2
REMARK    2  A    between atoms: O_2  and  C_3
REMARK    3  A    between atoms: C_7  and  C_8
REMARK    4  A    between atoms: C_8  and  C_9
REMARK    5  A    between atoms: C_21  and  O_22
REMARK    6  A    between atoms: C_23  and  O_24
REMARK    7  A    between atoms: O_24  and  C_25
REMARK                            x       y       z     vdW  Elec       q    Type
REMARK                         _______ _______ _______ _____ _____    ______ ____
ROOT
ATOM      1  C   UNL     1       2.128   8.930  18.219  0.00  0.00    +0.000 C 
ATOM      2  O   UNL     1       2.508   9.940  17.611  0.00  0.00    +0.000 OA
ATOM      3  N   UNL     1       2.571   7.666  17.852  0.00  0.00    +0.000 N 
ATOM      4  C   UNL     1       3.543   7.558  16.772  0.00  0.00    +0.000 C 
ATOM      5  C   UNL     1       4.899   7.194  17.364  0.00  0.00    +0.000 C 
ATOM      6  C   UNL     1       4.823   5.828  18.082  0.00  0.00    +0.000 C 
ATOM      7  C   UNL     1       3.686   5.883  19.145  0.00  0.00    +0.000 C 
ATOM      8  C   UNL     1       2.360   6.411  18.573  0.00  0.00    +0.000 C 
ATOM      9  O   UNL     1       4.491   4.757  17.169  0.00  0.00    +0.000 OA
ATOM     10  C   UNL     1       5.442   4.542  16.121  0.00  0.00    +0.000 C 
ATOM     11  C   UNL     1       6.836   4.242  16.654  0.00  0.00    +0.000 C 
ATOM     12  C   UNL     1       7.278   5.235  17.726  0.00  0.00    +0.000 C 
ATOM     13  C   UNL     1       6.174   5.465  18.761  0.00  0.00    +0.000 C 
ENDROOT
BRANCH  13  14
ATOM     14  O   UNL     1       6.037   4.258  19.522  0.00  0.00    +0.000 OA
ATOM     15  H   UNL     1       6.630   3.601  19.109  0.00  0.00    +0.000 HD
ENDBRANCH  13  14
BRANCH   1  16
ATOM     16  C   UNL     1       1.147   9.101  19.374  0.00  0.00    +0.000 C 
BRANCH  16  21
ATOM     17  C   UNL     1      -1.473  11.910  19.555  0.00  0.00    +0.000 A 
ATOM     18  C   UNL     1      -2.224  11.629  18.409  0.00  0.00    +0.000 A 
ATOM     19  C   UNL     1      -1.871  10.573  17.574  0.00  0.00    +0.000 A 
ATOM     20  C   UNL     1      -0.785   9.765  17.905  0.00  0.00    +0.000 A 
ATOM     21  C   UNL     1      -0.011  10.024  19.053  0.00  0.00    +0.000 A 
ATOM     22  C   UNL     1      -0.315  11.161  19.826  0.00  0.00    +0.000 A 
BRANCH  17  24
ATOM     23  C   UNL     1      -3.306  13.016  20.564  0.00  0.00    +0.000 C 
ATOM     24  O   UNL     1      -1.910  12.994  20.271  0.00  0.00    +0.000 OA
ENDBRANCH  17  24
BRANCH  22  25
ATOM     25  O   UNL     1       0.565  11.466  20.841  0.00  0.00    +0.000 OA
ATOM     26  C   UNL     1       1.484  12.520  20.534  0.00  0.00    +0.000 C 
ENDBRANCH  22  25
ENDBRANCH  16  21
ENDBRANCH   1  16
TORSDOF 5
ENDMDL
MODEL 9
REMARK VINA RESULT:      -6.3      5.579      8.618
REMARK  Name = 
REMARK  7 active torsions:
REMARK  status: ('A' for Active; 'I' for Inactive)
REMARK    1  A    between atoms: C_1  and  O_2
REMARK    2  A    between atoms: O_2  and  C_3
REMARK    3  A    between atoms: C_7  and  C_8
REMARK    4  A    between atoms: C_8  and  C_9
REMARK    5  A    between atoms: C_21  and  O_22
REMARK    6  A    between atoms: C_23  and  O_24
REMARK    7  A    between atoms: O_24  and  C_25
REMARK                            x       y       z     vdW  Elec       q    Type
REMARK                         _______ _______ _______ _____ _____    ______ ____
ROOT
ATOM      1  C   UNL     1       6.059   5.967  16.604  0.00  0.00    +0.000 C 
ATOM      2  O   UNL     1       5.591   6.942  16.001  0.00  0.00    +0.000 OA
ATOM      3  N   UNL     1       5.465   5.494  17.768  0.00  0.00    +0.000 N 
ATOM      4  C   UNL     1       4.242   6.135  18.232  0.00  0.00    +0.000 C 
ATOM      5  C   UNL     1       3.068   5.199  17.978  0.00  0.00    +0.000 C 
ATOM      6  C   UNL     1       3.250   3.882  18.766  0.00  0.00    +0.000 C 
ATOM      7  C   UNL     1       4.625   3.257  18.384  0.00  0.00    +0.000 C 
ATOM      8  C   UNL     1       5.785   4.260  18.486  0.00  0.00    +0.000 C 
ATOM      9  O   UNL     1       3.274   4.106  20.194  0.00  0.00    +0.000 OA
ATOM     10  C   UNL     1       2.073   4.667  20.736  0.00  0.00    +0.000 C 
ATOM     11  C   UNL     1       0.850   3.806  20.451  0.00  0.00    +0.000 C 
ATOM     12  C   UNL     1       0.758   3.388  18.986  0.00  0.00    +0.000 C 
ATOM     13  C   UNL     1       2.103   2.876  18.467  0.00  0.00    +0.000 C 
ENDROOT
BRANCH  13  14
ATOM     14  O   UNL     1       2.364   1.621  19.110  0.00  0.00    +0.000 OA
ATOM     15  H   UNL     1       3.251   1.696  19.512  0.00  0.00    +0.000 HD
ENDBRANCH  13  14
BRANCH   1  16
ATOM     16  C   UNL     1       7.313   5.300  16.050  0.00  0.00    +0.000 C 
BRANCH  16  21
ATOM     17  C   UNL     1       6.440   3.600  12.713  0.00  0.00    +0.000 A 
ATOM     18  C   UNL     1       7.176   4.392  11.826  0.00  0.00    +0.000 A 
ATOM     19  C   UNL     1       7.914   5.476  12.293  0.00  0.00    +0.000 A 
ATOM     20  C   UNL     1       7.951   5.749  13.658  0.00  0.00    +0.000 A 
ATOM     21  C   UNL     1       7.220   4.969  14.574  0.00  0.00    +0.000 A 
ATOM     22  C   UNL     1       6.392   3.945  14.075  0.00  0.00    +0.000 A 
BRANCH  17  24
ATOM     23  C   UNL     1       4.569   2.986  11.400  0.00  0.00    +0.000 C 
ATOM     24  O   UNL     1       5.734   2.585  12.120  0.00  0.00    +0.000 OA
ENDBRANCH  17  24
BRANCH  22  25
ATOM     25  O   UNL     1       5.573   3.318  14.988  0.00  0.00    +0.000 OA
ATOM     26  C   UNL     1       4.215   3.768  14.975  0.00  0.00    +0.000 C 
ENDBRANCH  22  25
ENDBRANCH  16  21
ENDBRANCH   1  16
TORSDOF 5
ENDMDL
