MODEL 1
REMARK VINA RESULT:      -6.4      0.000      0.000
REMARK  Name = 
REMARK  6 active torsions:
REMARK  status: ('A' for Active; 'I' for Inactive)
REMARK    1  A    between atoms: S_2  and  C_4
REMARK    2  A    between atoms: S_2  and  N_11
REMARK    3  A    between atoms: C_4  and  C_5
REMARK    4  A    between atoms: C_5  and  N_6
REMARK    5  A    between atoms: N_11  and  C_12
REMARK    6  A    between atoms: C_12  and  C_13
REMARK                            x       y       z     vdW  Elec       q    Type
REMARK                         _______ _______ _______ _____ _____    ______ ____
ROOT
ATOM      1  O   UNL     1       6.542   4.317  18.350  0.00  0.00    +0.000 OA
ATOM      2  S   UNL     1       5.302   4.595  17.659  0.00  0.00    +0.000 S 
ATOM      3  O   UNL     1       5.255   4.795  16.225  0.00  0.00    +0.000 OA
ENDROOT
BRANCH   2   4
ATOM      4  N   UNL     1       4.541   5.915  18.371  0.00  0.00    +0.000 NA
ATOM      5  H   UNL     1       5.068   6.381  19.106  0.00  0.00    +0.000 HD
BRANCH   4   6
ATOM      6  C   UNL     1       3.756   6.816  17.517  0.00  0.00    +0.000 C 
BRANCH   6   7
ATOM      7  C   UNL     1       2.746   7.638  18.277  0.00  0.00    +0.000 A 
ATOM      8  C   UNL     1       2.196   8.800  17.715  0.00  0.00    +0.000 A 
ATOM      9  C   UNL     1       1.327   9.603  18.458  0.00  0.00    +0.000 A 
ATOM     10  C   UNL     1       1.004   9.246  19.766  0.00  0.00    +0.000 A 
ATOM     11 BR   UNL     1      -0.149  10.345  20.783  0.00  0.00    +0.000 Br
ATOM     12  C   UNL     1       1.537   8.093  20.336  0.00  0.00    +0.000 A 
ATOM     13  C   UNL     1       2.400   7.289  19.591  0.00  0.00    +0.000 A 
ENDBRANCH   6   7
ENDBRANCH   4   6
ENDBRANCH   2   4
BRANCH   2  14
ATOM     14  C   UNL     1       4.203   3.253  18.063  0.00  0.00    +0.000 C 
BRANCH  14  15
ATOM     15  C   UNL     1       3.921   3.175  19.556  0.00  0.00    +0.000 C 
BRANCH  15  16
ATOM     16  N   UNL     1       2.808   4.056  19.972  0.00  0.00    +0.000 NA
ATOM     17  C   UNL     1       2.418   3.862  21.382  0.00  0.00    +0.000 C 
ATOM     18  C   UNL     1       1.442   2.705  21.364  0.00  0.00    +0.000 C 
ATOM     19  C   UNL     1       0.634   2.986  20.115  0.00  0.00    +0.000 C 
ATOM     20  C   UNL     1       1.587   3.744  19.195  0.00  0.00    +0.000 C 
ENDBRANCH  15  16
ENDBRANCH  14  15
ENDBRANCH   2  14
TORSDOF 6
ENDMDL
MODEL 2
REMARK VINA RESULT:      -6.3      1.206      1.631
REMARK  Name = 
REMARK  6 active torsions:
REMARK  status: ('A' for Active; 'I' for Inactive)
REMARK    1  A    between atoms: S_2  and  C_4
REMARK    2  A    between atoms: S_2  and  N_11
REMARK    3  A    between atoms: C_4  and  C_5
REMARK    4  A    between atoms: C_5  and  N_6
REMARK    5  A    between atoms: N_11  and  C_12
REMARK    6  A    between atoms: C_12  and  C_13
REMARK                            x       y       z     vdW  Elec       q    Type
REMARK                         _______ _______ _______ _____ _____    ______ ____
ROOT
ATOM      1  O   UNL     1       5.437   4.277  19.290  0.00  0.00    +0.000 OA
ATOM      2  S   UNL     1       4.870   4.474  17.974  0.00  0.00    +0.000 S 
ATOM      3  O   UNL     1       5.684   4.867  16.842  0.00  0.00    +0.000 OA
ENDROOT
BRANCH   2   4
ATOM      4  N   UNL     1       3.589   5.560  18.066  0.00  0.00    +0.000 NA
ATOM      5  H   UNL     1       2.765   5.315  17.521  0.00  0.00    +0.000 HD
BRANCH   4   6
ATOM      6  C   UNL     1       3.300   6.194  19.359  0.00  0.00    +0.000 C 
BRANCH   6   7
ATOM      7  C   UNL     1       2.386   7.389  19.252  0.00  0.00    +0.000 A 
ATOM      8  C   UNL     1       2.243   8.077  18.038  0.00  0.00    +0.000 A 
ATOM      9  C   UNL     1       1.462   9.234  17.968  0.00  0.00    +0.000 A 
ATOM     10  C   UNL     1       0.820   9.706  19.111  0.00  0.00    +0.000 A 
ATOM     11 BR   UNL     1      -0.214  11.285  19.026  0.00  0.00    +0.000 Br
ATOM     12  C   UNL     1       0.947   9.030  20.322  0.00  0.00    +0.000 A 
ATOM     13  C   UNL     1       1.723   7.872  20.390  0.00  0.00    +0.000 A 
ENDBRANCH   6   7
ENDBRANCH   4   6
ENDBRANCH   2   4
BRANCH   2  14
ATOM     14  C   UNL     1       4.051   2.948  17.558  0.00  0.00    +0.000 C 
BRANCH  14  15
ATOM     15  C   UNL     1       2.537   3.102  17.526  0.00  0.00    +0.000 C 
BRANCH  15  16
ATOM     16  N   UNL     1       1.854   2.223  18.499  0.00  0.00    +0.000 NA
ATOM     17  C   UNL     1       0.537   2.741  18.916  0.00  0.00    +0.000 C 
ATOM     18  C   UNL     1       0.832   3.700  20.050  0.00  0.00    +0.000 C 
ATOM     19  C   UNL     1       1.925   2.976  20.806  0.00  0.00    +0.000 C 
ATOM     20  C   UNL     1       2.639   2.135  19.751  0.00  0.00    +0.000 C 
ENDBRANCH  15  16
ENDBRANCH  14  15
ENDBRANCH   2  14
TORSDOF 6
ENDMDL
MODEL 3
REMARK VINA RESULT:      -6.3      0.779      1.211
REMARK  Name = 
REMARK  6 active torsions:
REMARK  status: ('A' for Active; 'I' for Inactive)
REMARK    1  A    between atoms: S_2  and  C_4
REMARK    2  A    between atoms: S_2  and  N_11
REMARK    3  A    between atoms: C_4  and  C_5
REMARK    4  A    between atoms: C_5  and  N_6
REMARK    5  A    between atoms: N_11  and  C_12
REMARK    6  A    between atoms: C_12  and  C_13
REMARK                            x       y       z     vdW  Elec       q    Type
REMARK                         _______ _______ _______ _____ _____    ______ ____
ROOT
ATOM      1  O   UNL     1       6.264   4.249  18.753  0.00  0.00    +0.000 OA
ATOM      2  S   UNL     1       4.988   4.179  18.077  0.00  0.00    +0.000 S 
ATOM      3  O   UNL     1       4.885   4.221  16.632  0.00  0.00    +0.000 OA
ENDROOT
BRANCH   2   4
ATOM      4  N   UNL     1       3.959   5.363  18.684  0.00  0.00    +0.000 NA
ATOM      5  H   UNL     1       4.121   5.630  19.652  0.00  0.00    +0.000 HD
BRANCH   4   6
ATOM      6  C   UNL     1       3.567   6.470  17.802  0.00  0.00    +0.000 C 
BRANCH   6   7
ATOM      7  C   UNL     1       2.618   7.447  18.448  0.00  0.00    +0.000 A 
ATOM      8  C   UNL     1       2.135   8.556  17.738  0.00  0.00    +0.000 A 
ATOM      9  C   UNL     1       1.325   9.504  18.369  0.00  0.00    +0.000 A 
ATOM     10  C   UNL     1       0.993   9.345  19.713  0.00  0.00    +0.000 A 
ATOM     11 BR   UNL     1      -0.079  10.638  20.577  0.00  0.00    +0.000 Br
ATOM     12  C   UNL     1       1.460   8.246  20.430  0.00  0.00    +0.000 A 
ATOM     13  C   UNL     1       2.264   7.298  19.797  0.00  0.00    +0.000 A 
ENDBRANCH   6   7
ENDBRANCH   4   6
ENDBRANCH   2   4
BRANCH   2  14
ATOM     14  C   UNL     1       4.216   2.675  18.639  0.00  0.00    +0.000 C 
BRANCH  14  15
ATOM     15  C   UNL     1       3.863   2.731  20.118  0.00  0.00    +0.000 C 
BRANCH  15  16
ATOM     16  N   UNL     1       2.476   2.299  20.390  0.00  0.00    +0.000 NA
ATOM     17  C   UNL     1       1.641   2.248  19.175  0.00  0.00    +0.000 C 
ATOM     18  C   UNL     1       1.123   3.658  18.994  0.00  0.00    +0.000 C 
ATOM     19  C   UNL     1       0.821   4.074  20.418  0.00  0.00    +0.000 C 
ATOM     20  C   UNL     1       1.798   3.274  21.275  0.00  0.00    +0.000 C 
ENDBRANCH  15  16
ENDBRANCH  14  15
ENDBRANCH   2  14
TORSDOF 6
ENDMDL
MODEL 4
REMARK VINA RESULT:      -6.2      1.087      1.805
REMARK  Name = 
REMARK  6 active torsions:
REMARK  status: ('A' for Active; 'I' for Inactive)
REMARK    1  A    between atoms: S_2  and  C_4
REMARK    2  A    between atoms: S_2  and  N_11
REMARK    3  A    between atoms: C_4  and  C_5
REMARK    4  A    between atoms: C_5  and  N_6
REMARK    5  A    between atoms: N_11  and  C_12
REMARK    6  A    between atoms: C_12  and  C_13
REMARK                            x       y       z     vdW  Elec       q    Type
REMARK                         _______ _______ _______ _____ _____    ______ ____
ROOT
ATOM      1  O   UNL     1       5.839   5.148  18.738  0.00  0.00    +0.000 OA
ATOM      2  S   UNL     1       4.900   4.852  17.678  0.00  0.00    +0.000 S 
ATOM      3  O   UNL     1       5.282   4.906  16.281  0.00  0.00    +0.000 OA
ENDROOT
BRANCH   2   4
ATOM      4  N   UNL     1       3.527   5.806  17.856  0.00  0.00    +0.000 NA
ATOM      5  H   UNL     1       2.728   5.536  17.287  0.00  0.00    +0.000 HD
BRANCH   4   6
ATOM      6  C   UNL     1       3.184   6.298  19.196  0.00  0.00    +0.000 C 
BRANCH   6   7
ATOM      7  C   UNL     1       2.352   7.555  19.182  0.00  0.00    +0.000 A 
ATOM      8  C   UNL     1       1.696   7.996  20.341  0.00  0.00    +0.000 A 
ATOM      9  C   UNL     1       0.858   9.114  20.299  0.00  0.00    +0.000 A 
ATOM     10  C   UNL     1       0.674   9.795  19.098  0.00  0.00    +0.000 A 
ATOM     11 BR   UNL     1      -0.480  11.290  19.031  0.00  0.00    +0.000 Br
ATOM     12  C   UNL     1       1.323   9.374  17.940  0.00  0.00    +0.000 A 
ATOM     13  C   UNL     1       2.164   8.261  17.984  0.00  0.00    +0.000 A 
ENDBRANCH   6   7
ENDBRANCH   4   6
ENDBRANCH   2   4
BRANCH   2  14
ATOM     14  C   UNL     1       4.278   3.217  18.015  0.00  0.00    +0.000 C 
BRANCH  14  15
ATOM     15  C   UNL     1       2.761   3.150  17.914  0.00  0.00    +0.000 C 
BRANCH  15  16
ATOM     16  N   UNL     1       2.152   2.361  19.006  0.00  0.00    +0.000 NA
ATOM     17  C   UNL     1       0.754   2.744  19.281  0.00  0.00    +0.000 C 
ATOM     18  C   UNL     1       0.847   3.915  20.236  0.00  0.00    +0.000 C 
ATOM     19  C   UNL     1       1.985   3.500  21.143  0.00  0.00    +0.000 C 
ATOM     20  C   UNL     1       2.869   2.605  20.279  0.00  0.00    +0.000 C 
ENDBRANCH  15  16
ENDBRANCH  14  15
ENDBRANCH   2  14
TORSDOF 6
ENDMDL
MODEL 5
REMARK VINA RESULT:      -6.1      1.291      1.872
REMARK  Name = 
REMARK  6 active torsions:
REMARK  status: ('A' for Active; 'I' for Inactive)
REMARK    1  A    between atoms: S_2  and  C_4
REMARK    2  A    between atoms: S_2  and  N_11
REMARK    3  A    between atoms: C_4  and  C_5
REMARK    4  A    between atoms: C_5  and  N_6
REMARK    5  A    between atoms: N_11  and  C_12
REMARK    6  A    between atoms: C_12  and  C_13
REMARK                            x       y       z     vdW  Elec       q    Type
REMARK                         _______ _______ _______ _____ _____    ______ ____
ROOT
ATOM      1  O   UNL     1       4.908   3.694  18.694  0.00  0.00    +0.000 OA
ATOM      2  S   UNL     1       4.192   3.999  17.475  0.00  0.00    +0.000 S 
ATOM      3  O   UNL     1       4.810   3.861  16.171  0.00  0.00    +0.000 OA
ENDROOT
BRANCH   2   4
ATOM      4  N   UNL     1       3.560   5.555  17.564  0.00  0.00    +0.000 NA
ATOM      5  H   UNL     1       2.705   5.711  17.037  0.00  0.00    +0.000 HD
BRANCH   4   6
ATOM      6  C   UNL     1       3.625   6.265  18.848  0.00  0.00    +0.000 C 
BRANCH   6   7
ATOM      7  C   UNL     1       2.701   7.454  18.925  0.00  0.00    +0.000 A 
ATOM      8  C   UNL     1       1.998   7.742  20.105  0.00  0.00    +0.000 A 
ATOM      9  C   UNL     1       1.079   8.794  20.143  0.00  0.00    +0.000 A 
ATOM     10  C   UNL     1       0.861   9.563  19.002  0.00  0.00    +0.000 A 
ATOM     11 BR   UNL     1      -0.402  10.968  19.042  0.00  0.00    +0.000 Br
ATOM     12  C   UNL     1       1.555   9.294  17.825  0.00  0.00    +0.000 A 
ATOM     13  C   UNL     1       2.477   8.247  17.790  0.00  0.00    +0.000 A 
ENDBRANCH   6   7
ENDBRANCH   4   6
ENDBRANCH   2   4
BRANCH   2  14
ATOM     14  C   UNL     1       2.727   2.986  17.499  0.00  0.00    +0.000 C 
BRANCH  14  15
ATOM     15  C   UNL     1       1.523   3.736  18.051  0.00  0.00    +0.000 C 
BRANCH  15  16
ATOM     16  N   UNL     1       0.967   3.105  19.267  0.00  0.00    +0.000 NA
ATOM     17  C   UNL     1       0.780   4.060  20.376  0.00  0.00    +0.000 C 
ATOM     18  C   UNL     1       2.122   4.124  21.072  0.00  0.00    +0.000 C 
ATOM     19  C   UNL     1       2.569   2.679  21.041  0.00  0.00    +0.000 C 
ATOM     20  C   UNL     1       1.909   2.092  19.796  0.00  0.00    +0.000 C 
ENDBRANCH  15  16
ENDBRANCH  14  15
ENDBRANCH   2  14
TORSDOF 6
ENDMDL
MODEL 6
REMARK VINA RESULT:      -6.1      1.382      1.796
REMARK  Name = 
REMARK  6 active torsions:
REMARK  status: ('A' for Active; 'I' for Inactive)
REMARK    1  A    between atoms: S_2  and  C_4
REMARK    2  A    between atoms: S_2  and  N_11
REMARK    3  A    between atoms: C_4  and  C_5
REMARK    4  A    between atoms: C_5  and  N_6
REMARK    5  A    between atoms: N_11  and  C_12
REMARK    6  A    between atoms: C_12  and  C_13
REMARK                            x       y       z     vdW  Elec       q    Type
REMARK                         _______ _______ _______ _____ _____    ______ ____
ROOT
ATOM      1  O   UNL     1       4.894   5.143  19.022  0.00  0.00    +0.000 OA
ATOM      2  S   UNL     1       4.139   5.341  17.804  0.00  0.00    +0.000 S 
ATOM      3  O   UNL     1       4.724   5.967  16.636  0.00  0.00    +0.000 OA
ENDROOT
BRANCH   2   4
ATOM      4  N   UNL     1       2.714   6.163  18.150  0.00  0.00    +0.000 NA
ATOM      5  H   UNL     1       2.161   5.781  18.913  0.00  0.00    +0.000 HD
BRANCH   4   6
ATOM      6  C   UNL     1       2.714   7.630  18.070  0.00  0.00    +0.000 C 
BRANCH   6   7
ATOM      7  C   UNL     1       1.861   8.290  19.123  0.00  0.00    +0.000 A 
ATOM      8  C   UNL     1       1.221   9.512  18.867  0.00  0.00    +0.000 A 
ATOM      9  C   UNL     1       0.503  10.160  19.876  0.00  0.00    +0.000 A 
ATOM     10  C   UNL     1       0.421   9.588  21.143  0.00  0.00    +0.000 A 
ATOM     11 BR   UNL     1      -0.526  10.476  22.517  0.00  0.00    +0.000 Br
ATOM     12  C   UNL     1       1.046   8.373  21.411  0.00  0.00    +0.000 A 
ATOM     13  C   UNL     1       1.758   7.724  20.402  0.00  0.00    +0.000 A 
ENDBRANCH   6   7
ENDBRANCH   4   6
ENDBRANCH   2   4
BRANCH   2  14
ATOM     14  C   UNL     1       3.547   3.730  17.326  0.00  0.00    +0.000 C 
BRANCH  14  15
ATOM     15  C   UNL     1       2.045   3.591  17.524  0.00  0.00    +0.000 C 
BRANCH  15  16
ATOM     16  N   UNL     1       1.695   2.569  18.532  0.00  0.00    +0.000 NA
ATOM     17  C   UNL     1       0.733   3.059  19.538  0.00  0.00    +0.000 C 
ATOM     18  C   UNL     1       1.579   3.746  20.588  0.00  0.00    +0.000 C 
ATOM     19  C   UNL     1       2.775   2.826  20.691  0.00  0.00    +0.000 C 
ATOM     20  C   UNL     1       2.894   2.183  19.311  0.00  0.00    +0.000 C 
ENDBRANCH  15  16
ENDBRANCH  14  15
ENDBRANCH   2  14
TORSDOF 6
ENDMDL
MODEL 7
REMARK VINA RESULT:      -6.0      2.510      4.072
REMARK  Name = 
REMARK  6 active torsions:
REMARK  status: ('A' for Active; 'I' for Inactive)
REMARK    1  A    between atoms: S_2  and  C_4
REMARK    2  A    between atoms: S_2  and  N_11
REMARK    3  A    between atoms: C_4  and  C_5
REMARK    4  A    between atoms: C_5  and  N_6
REMARK    5  A    between atoms: N_11  and  C_12
REMARK    6  A    between atoms: C_12  and  C_13
REMARK                            x       y       z     vdW  Elec       q    Type
REMARK                         _______ _______ _______ _____ _____    ______ ____
ROOT
ATOM      1  O   UNL     1       1.257   3.204  17.863  0.00  0.00    +0.000 OA
ATOM      2  S   UNL     1       1.948   3.236  19.134  0.00  0.00    +0.000 S 
ATOM      3  O   UNL     1       1.739   2.218  20.143  0.00  0.00    +0.000 OA
ENDROOT
BRANCH   2   4
ATOM      4  N   UNL     1       1.704   4.727  19.873  0.00  0.00    +0.000 NA
ATOM      5  H   UNL     1       1.227   4.699  20.771  0.00  0.00    +0.000 HD
BRANCH   4   6
ATOM      6  C   UNL     1       2.765   5.739  19.775  0.00  0.00    +0.000 C 
BRANCH   6   7
ATOM      7  C   UNL     1       2.242   7.141  19.584  0.00  0.00    +0.000 A 
ATOM      8  C   UNL     1       1.521   7.784  20.602  0.00  0.00    +0.000 A 
ATOM      9  C   UNL     1       0.967   9.048  20.386  0.00  0.00    +0.000 A 
ATOM     10  C   UNL     1       1.134   9.676  19.153  0.00  0.00    +0.000 A 
ATOM     11 BR   UNL     1       0.362  11.374  18.850  0.00  0.00    +0.000 Br
ATOM     12  C   UNL     1       1.852   9.053  18.136  0.00  0.00    +0.000 A 
ATOM     13  C   UNL     1       2.409   7.793  18.354  0.00  0.00    +0.000 A 
ENDBRANCH   6   7
ENDBRANCH   4   6
ENDBRANCH   2   4
BRANCH   2  14
ATOM     14  C   UNL     1       3.686   3.278  18.747  0.00  0.00    +0.000 C 
BRANCH  14  15
ATOM     15  C   UNL     1       3.938   3.584  17.278  0.00  0.00    +0.000 C 
BRANCH  15  16
ATOM     16  N   UNL     1       5.320   4.040  17.019  0.00  0.00    +0.000 NA
ATOM     17  C   UNL     1       5.543   5.447  17.404  0.00  0.00    +0.000 C 
ATOM     18  C   UNL     1       5.095   6.258  16.208  0.00  0.00    +0.000 C 
ATOM     19  C   UNL     1       5.604   5.430  15.049  0.00  0.00    +0.000 C 
ATOM     20  C   UNL     1       5.614   3.995  15.568  0.00  0.00    +0.000 C 
ENDBRANCH  15  16
ENDBRANCH  14  15
ENDBRANCH   2  14
TORSDOF 6
ENDMDL
MODEL 8
REMARK VINA RESULT:      -6.0      2.352      4.080
REMARK  Name = 
REMARK  6 active torsions:
REMARK  status: ('A' for Active; 'I' for Inactive)
REMARK    1  A    between atoms: S_2  and  C_4
REMARK    2  A    between atoms: S_2  and  N_11
REMARK    3  A    between atoms: C_4  and  C_5
REMARK    4  A    between atoms: C_5  and  N_6
REMARK    5  A    between atoms: N_11  and  C_12
REMARK    6  A    between atoms: C_12  and  C_13
REMARK                            x       y       z     vdW  Elec       q    Type
REMARK                         _______ _______ _______ _____ _____    ______ ____
ROOT
ATOM      1  O   UNL     1       2.301   3.173  16.908  0.00  0.00    +0.000 OA
ATOM      2  S   UNL     1       3.248   3.902  17.723  0.00  0.00    +0.000 S 
ATOM      3  O   UNL     1       3.638   3.440  19.040  0.00  0.00    +0.000 OA
ENDROOT
BRANCH   2   4
ATOM      4  N   UNL     1       2.745   5.499  17.884  0.00  0.00    +0.000 NA
ATOM      5  H   UNL     1       2.042   5.807  17.216  0.00  0.00    +0.000 HD
BRANCH   4   6
ATOM      6  C   UNL     1       2.586   6.050  19.236  0.00  0.00    +0.000 C 
BRANCH   6   7
ATOM      7  C   UNL     1       2.075   7.469  19.251  0.00  0.00    +0.000 A 
ATOM      8  C   UNL     1       1.544   8.029  20.423  0.00  0.00    +0.000 A 
ATOM      9  C   UNL     1       0.994   9.313  20.408  0.00  0.00    +0.000 A 
ATOM     10  C   UNL     1       0.973  10.042  19.222  0.00  0.00    +0.000 A 
ATOM     11 BR   UNL     1       0.204  11.768  19.192  0.00  0.00    +0.000 Br
ATOM     12  C   UNL     1       1.502   9.503  18.052  0.00  0.00    +0.000 A 
ATOM     13  C   UNL     1       2.056   8.223  18.069  0.00  0.00    +0.000 A 
ENDBRANCH   6   7
ENDBRANCH   4   6
ENDBRANCH   2   4
BRANCH   2  14
ATOM     14  C   UNL     1       4.724   4.062  16.738  0.00  0.00    +0.000 C 
BRANCH  14  15
ATOM     15  C   UNL     1       5.961   4.293  17.594  0.00  0.00    +0.000 C 
BRANCH  15  16
ATOM     16  N   UNL     1       5.909   5.570  18.337  0.00  0.00    +0.000 NA
ATOM     17  C   UNL     1       5.999   6.751  17.457  0.00  0.00    +0.000 C 
ATOM     18  C   UNL     1       7.481   6.977  17.252  0.00  0.00    +0.000 C 
ATOM     19  C   UNL     1       8.043   6.691  18.627  0.00  0.00    +0.000 C 
ATOM     20  C   UNL     1       7.074   5.685  19.244  0.00  0.00    +0.000 C 
ENDBRANCH  15  16
ENDBRANCH  14  15
ENDBRANCH   2  14
TORSDOF 6
ENDMDL
MODEL 9
REMARK VINA RESULT:      -6.0      4.511      6.316
REMARK  Name = 
REMARK  6 active torsions:
REMARK  status: ('A' for Active; 'I' for Inactive)
REMARK    1  A    between atoms: S_2  and  C_4
REMARK    2  A    between atoms: S_2  and  N_11
REMARK    3  A    between atoms: C_4  and  C_5
REMARK    4  A    between atoms: C_5  and  N_6
REMARK    5  A    between atoms: N_11  and  C_12
REMARK    6  A    between atoms: C_12  and  C_13
REMARK                            x       y       z     vdW  Elec       q    Type
REMARK                         _______ _______ _______ _____ _____    ______ ____
ROOT
ATOM      1  O   UNL     1       5.513   3.733  16.215  0.00  0.00    +0.000 OA
ATOM      2  S   UNL     1       6.593   4.641  15.892  0.00  0.00    +0.000 S 
ATOM      3  O   UNL     1       7.889   4.543  16.531  0.00  0.00    +0.000 OA
ENDROOT
BRANCH   2   4
ATOM      4  N   UNL     1       6.069   6.229  16.068  0.00  0.00    +0.000 NA
ATOM      5  H   UNL     1       5.383   6.543  15.386  0.00  0.00    +0.000 HD
BRANCH   4   6
ATOM      6  C   UNL     1       5.866   6.753  17.425  0.00  0.00    +0.000 C 
BRANCH   6   7
ATOM      7  C   UNL     1       4.697   6.127  18.143  0.00  0.00    +0.000 A 
ATOM      8  C   UNL     1       4.898   5.299  19.257  0.00  0.00    +0.000 A 
ATOM      9  C   UNL     1       3.818   4.654  19.865  0.00  0.00    +0.000 A 
ATOM     10  C   UNL     1       2.532   4.835  19.361  0.00  0.00    +0.000 A 
ATOM     11 BR   UNL     1       1.072   3.942  20.163  0.00  0.00    +0.000 Br
ATOM     12  C   UNL     1       2.314   5.659  18.259  0.00  0.00    +0.000 A 
ATOM     13  C   UNL     1       3.393   6.307  17.657  0.00  0.00    +0.000 A 
ENDBRANCH   6   7
ENDBRANCH   4   6
ENDBRANCH   2   4
BRANCH   2  14
ATOM     14  C   UNL     1       6.836   4.509  14.132  0.00  0.00    +0.000 C 
BRANCH  14  15
ATOM     15  C   UNL     1       5.791   3.618  13.476  0.00  0.00    +0.000 C 
BRANCH  15  16
ATOM     16  N   UNL     1       5.889   3.617  12.001  0.00  0.00    +0.000 NA
ATOM     17  C   UNL     1       5.048   2.583  11.369  0.00  0.00    +0.000 C 
ATOM     18  C   UNL     1       5.890   1.326  11.386  0.00  0.00    +0.000 C 
ATOM     19  C   UNL     1       7.267   1.858  11.052  0.00  0.00    +0.000 C 
ATOM     20  C   UNL     1       7.270   3.291  11.577  0.00  0.00    +0.000 C 
ENDBRANCH  15  16
ENDBRANCH  14  15
ENDBRANCH   2  14
TORSDOF 6
ENDMDL
