MODEL 1
REMARK VINA RESULT:      -8.1      0.000      0.000
REMARK  Name = 
REMARK  5 active torsions:
REMARK  status: ('A' for Active; 'I' for Inactive)
REMARK    1  A    between atoms: C_2  and  C_16
REMARK    2  A    between atoms: N_3  and  C_4
REMARK    3  A    between atoms: C_4  and  C_5
REMARK    4  A    between atoms: C_9  and  O_10
REMARK    5  A    between atoms: O_10  and  C_11
REMARK                            x       y       z     vdW  Elec       q    Type
REMARK                         _______ _______ _______ _____ _____    ______ ____
ROOT
ATOM      1  O   UNL     1       3.538   6.129  19.898  0.00  0.00    +0.000 OA
ATOM      2  C   UNL     1       3.020   6.487  18.844  0.00  0.00    +0.000 C 
ATOM      3  N   UNL     1       2.977   5.687  17.728  0.00  0.00    +0.000 N 
ATOM      4  H   UNL     1       2.601   6.065  16.869  0.00  0.00    +0.000 HD
ENDROOT
BRANCH   2   5
ATOM      5  C   UNL     1       2.352   7.780  18.702  0.00  0.00    +0.000 A 
ATOM      6  C   UNL     1       2.431   8.553  17.552  0.00  0.00    +0.000 A 
ATOM      7  N   UNL     1       1.719   9.704  17.740  0.00  0.00    +0.000 N 
ATOM      8  C   UNL     1       1.139   9.702  18.986  0.00  0.00    +0.000 A 
ATOM      9  C   UNL     1       0.315  10.656  19.597  0.00  0.00    +0.000 A 
ATOM     10  C   UNL     1      -0.164  10.387  20.885  0.00  0.00    +0.000 A 
ATOM     11  C   UNL     1       0.175   9.206  21.534  0.00  0.00    +0.000 A 
ATOM     12  C   UNL     1       1.002   8.276  20.911  0.00  0.00    +0.000 A 
ATOM     13  F   UNL     1       1.320   7.158  21.578  0.00  0.00    +0.000 F 
ATOM     14  C   UNL     1       1.511   8.506  19.612  0.00  0.00    +0.000 A 
ATOM     15  H   UNL     1       1.620  10.447  17.059  0.00  0.00    +0.000 HD
ENDBRANCH   2   5
BRANCH   3  16
ATOM     16  C   UNL     1       3.617   4.400  17.661  0.00  0.00    +0.000 C 
BRANCH  16  17
ATOM     17  C   UNL     1       5.005   4.502  17.090  0.00  0.00    +0.000 A 
ATOM     18  C   UNL     1       6.110   4.593  17.939  0.00  0.00    +0.000 A 
ATOM     19  C   UNL     1       7.376   4.652  17.379  0.00  0.00    +0.000 A 
ATOM     20  N   UNL     1       7.616   4.625  16.053  0.00  0.00    +0.000 NA
ATOM     21  C   UNL     1       6.534   4.565  15.248  0.00  0.00    +0.000 A 
ATOM     22  C   UNL     1       5.227   4.520  15.708  0.00  0.00    +0.000 A 
BRANCH  21  23
ATOM     23  O   UNL     1       6.719   4.534  13.876  0.00  0.00    +0.000 OA
BRANCH  23  24
ATOM     24  C   UNL     1       6.171   3.382  13.196  0.00  0.00    +0.000 C 
ATOM     25  C   UNL     1       4.854   3.611  12.406  0.00  0.00    +0.000 C 
ATOM     26  C   UNL     1       5.424   2.704  11.302  0.00  0.00    +0.000 C 
ATOM     27  C   UNL     1       6.827   3.053  11.828  0.00  0.00    +0.000 C 
ENDBRANCH  23  24
ENDBRANCH  21  23
ENDBRANCH  16  17
ENDBRANCH   3  16
TORSDOF 5
ENDMDL
MODEL 2
REMARK VINA RESULT:      -8.1      3.402      8.095
REMARK  Name = 
REMARK  5 active torsions:
REMARK  status: ('A' for Active; 'I' for Inactive)
REMARK    1  A    between atoms: C_2  and  C_16
REMARK    2  A    between atoms: N_3  and  C_4
REMARK    3  A    between atoms: C_4  and  C_5
REMARK    4  A    between atoms: C_9  and  O_10
REMARK    5  A    between atoms: O_10  and  C_11
REMARK                            x       y       z     vdW  Elec       q    Type
REMARK                         _______ _______ _______ _____ _____    ______ ____
ROOT
ATOM      1  O   UNL     1       4.843   7.096  16.788  0.00  0.00    +0.000 OA
ATOM      2  C   UNL     1       4.127   6.596  17.651  0.00  0.00    +0.000 C 
ATOM      3  N   UNL     1       3.032   7.240  18.172  0.00  0.00    +0.000 N 
ATOM      4  H   UNL     1       2.525   6.807  18.931  0.00  0.00    +0.000 HD
ENDROOT
BRANCH   2   5
ATOM      5  C   UNL     1       4.347   5.242  18.160  0.00  0.00    +0.000 A 
ATOM      6  C   UNL     1       5.571   4.804  18.644  0.00  0.00    +0.000 A 
ATOM      7  N   UNL     1       5.456   3.497  19.025  0.00  0.00    +0.000 N 
ATOM      8  C   UNL     1       4.167   3.061  18.832  0.00  0.00    +0.000 A 
ATOM      9  C   UNL     1       3.591   1.810  19.094  0.00  0.00    +0.000 A 
ATOM     10  C   UNL     1       2.228   1.641  18.819  0.00  0.00    +0.000 A 
ATOM     11  C   UNL     1       1.476   2.687  18.298  0.00  0.00    +0.000 A 
ATOM     12  C   UNL     1       2.072   3.917  18.037  0.00  0.00    +0.000 A 
ATOM     13  F   UNL     1       1.316   4.894  17.516  0.00  0.00    +0.000 F 
ATOM     14  C   UNL     1       3.445   4.133  18.297  0.00  0.00    +0.000 A 
ATOM     15  H   UNL     1       6.205   2.932  19.406  0.00  0.00    +0.000 HD
ENDBRANCH   2   5
BRANCH   3  16
ATOM     16  C   UNL     1       2.681   8.593  17.827  0.00  0.00    +0.000 C 
BRANCH  16  17
ATOM     17  C   UNL     1       1.520   9.088  18.645  0.00  0.00    +0.000 A 
ATOM     18  C   UNL     1       1.493   8.882  20.026  0.00  0.00    +0.000 A 
ATOM     19  C   UNL     1       0.424   9.381  20.753  0.00  0.00    +0.000 A 
ATOM     20  N   UNL     1      -0.603  10.064  20.209  0.00  0.00    +0.000 NA
ATOM     21  C   UNL     1      -0.573  10.230  18.871  0.00  0.00    +0.000 A 
ATOM     22  C   UNL     1       0.440   9.754  18.053  0.00  0.00    +0.000 A 
BRANCH  21  23
ATOM     23  O   UNL     1      -1.602  10.924  18.257  0.00  0.00    +0.000 OA
BRANCH  23  24
ATOM     24  C   UNL     1      -2.056  10.385  16.994  0.00  0.00    +0.000 C 
ATOM     25  C   UNL     1      -3.425   9.653  17.010  0.00  0.00    +0.000 C 
ATOM     26  C   UNL     1      -3.735  10.323  15.660  0.00  0.00    +0.000 C 
ATOM     27  C   UNL     1      -2.719  11.414  16.041  0.00  0.00    +0.000 C 
ENDBRANCH  23  24
ENDBRANCH  21  23
ENDBRANCH  16  17
ENDBRANCH   3  16
TORSDOF 5
ENDMDL
MODEL 3
REMARK VINA RESULT:      -7.9      3.818      6.057
REMARK  Name = 
REMARK  5 active torsions:
REMARK  status: ('A' for Active; 'I' for Inactive)
REMARK    1  A    between atoms: C_2  and  C_16
REMARK    2  A    between atoms: N_3  and  C_4
REMARK    3  A    between atoms: C_4  and  C_5
REMARK    4  A    between atoms: C_9  and  O_10
REMARK    5  A    between atoms: O_10  and  C_11
REMARK                            x       y       z     vdW  Elec       q    Type
REMARK                         _______ _______ _______ _____ _____    ______ ____
ROOT
ATOM      1  O   UNL     1       0.464  11.809  20.170  0.00  0.00    +0.000 OA
ATOM      2  C   UNL     1      -0.435  11.003  19.945  0.00  0.00    +0.000 C 
ATOM      3  N   UNL     1      -0.353   9.680  20.302  0.00  0.00    +0.000 N 
ATOM      4  H   UNL     1      -1.095   9.051  20.026  0.00  0.00    +0.000 HD
ENDROOT
BRANCH   2   5
ATOM      5  C   UNL     1      -1.699  11.398  19.323  0.00  0.00    +0.000 A 
ATOM      6  C   UNL     1      -2.566  12.322  19.889  0.00  0.00    +0.000 A 
ATOM      7  N   UNL     1      -3.659  12.459  19.080  0.00  0.00    +0.000 N 
ATOM      8  C   UNL     1      -3.525  11.663  17.967  0.00  0.00    +0.000 A 
ATOM      9  C   UNL     1      -4.383  11.495  16.872  0.00  0.00    +0.000 A 
ATOM     10  C   UNL     1      -3.985  10.625  15.849  0.00  0.00    +0.000 A 
ATOM     11  C   UNL     1      -2.774   9.947  15.927  0.00  0.00    +0.000 A 
ATOM     12  C   UNL     1      -1.943  10.123  17.030  0.00  0.00    +0.000 A 
ATOM     13  F   UNL     1      -0.792   9.436  17.075  0.00  0.00    +0.000 F 
ATOM     14  C   UNL     1      -2.304  10.990  18.086  0.00  0.00    +0.000 A 
ATOM     15  H   UNL     1      -4.449  13.065  19.263  0.00  0.00    +0.000 HD
ENDBRANCH   2   5
BRANCH   3  16
ATOM     16  C   UNL     1       0.827   9.097  20.884  0.00  0.00    +0.000 C 
BRANCH  16  17
ATOM     17  C   UNL     1       1.620   8.323  19.867  0.00  0.00    +0.000 A 
ATOM     18  C   UNL     1       1.933   8.898  18.633  0.00  0.00    +0.000 A 
ATOM     19  C   UNL     1       2.692   8.169  17.732  0.00  0.00    +0.000 A 
ATOM     20  N   UNL     1       3.159   6.927  17.971  0.00  0.00    +0.000 NA
ATOM     21  C   UNL     1       2.824   6.378  19.157  0.00  0.00    +0.000 A 
ATOM     22  C   UNL     1       2.054   7.016  20.118  0.00  0.00    +0.000 A 
BRANCH  21  23
ATOM     23  O   UNL     1       3.275   5.104  19.459  0.00  0.00    +0.000 OA
BRANCH  23  24
ATOM     24  C   UNL     1       3.245   4.154  18.369  0.00  0.00    +0.000 C 
ATOM     25  C   UNL     1       3.602   2.686  18.725  0.00  0.00    +0.000 C 
ATOM     26  C   UNL     1       2.471   2.241  17.782  0.00  0.00    +0.000 C 
ATOM     27  C   UNL     1       1.834   3.626  17.997  0.00  0.00    +0.000 C 
ENDBRANCH  23  24
ENDBRANCH  21  23
ENDBRANCH  16  17
ENDBRANCH   3  16
TORSDOF 5
ENDMDL
MODEL 4
REMARK VINA RESULT:      -7.9      1.027      1.142
REMARK  Name = 
REMARK  5 active torsions:
REMARK  status: ('A' for Active; 'I' for Inactive)
REMARK    1  A    between atoms: C_2  and  C_16
REMARK    2  A    between atoms: N_3  and  C_4
REMARK    3  A    between atoms: C_4  and  C_5
REMARK    4  A    between atoms: C_9  and  O_10
REMARK    5  A    between atoms: O_10  and  C_11
REMARK                            x       y       z     vdW  Elec       q    Type
REMARK                         _______ _______ _______ _____ _____    ______ ____
ROOT
ATOM      1  O   UNL     1       1.898   5.849  17.986  0.00  0.00    +0.000 OA
ATOM      2  C   UNL     1       2.496   6.728  18.599  0.00  0.00    +0.000 C 
ATOM      3  N   UNL     1       3.700   6.512  19.223  0.00  0.00    +0.000 N 
ATOM      4  H   UNL     1       4.107   7.256  19.773  0.00  0.00    +0.000 HD
ENDROOT
BRANCH   2   5
ATOM      5  C   UNL     1       2.001   8.103  18.673  0.00  0.00    +0.000 A 
ATOM      6  C   UNL     1       2.073   8.993  17.610  0.00  0.00    +0.000 A 
ATOM      7  N   UNL     1       1.547  10.192  17.998  0.00  0.00    +0.000 N 
ATOM      8  C   UNL     1       1.097  10.113  19.294  0.00  0.00    +0.000 A 
ATOM      9  C   UNL     1       0.477  11.083  20.093  0.00  0.00    +0.000 A 
ATOM     10  C   UNL     1       0.094  10.723  21.391  0.00  0.00    +0.000 A 
ATOM     11  C   UNL     1       0.329   9.439  21.869  0.00  0.00    +0.000 A 
ATOM     12  C   UNL     1       0.956   8.495  21.060  0.00  0.00    +0.000 A 
ATOM     13  F   UNL     1       1.182   7.273  21.565  0.00  0.00    +0.000 F 
ATOM     14  C   UNL     1       1.361   8.814  19.744  0.00  0.00    +0.000 A 
ATOM     15  H   UNL     1       1.485  11.018  17.416  0.00  0.00    +0.000 HD
ENDBRANCH   2   5
BRANCH   3  16
ATOM     16  C   UNL     1       4.323   5.216  19.297  0.00  0.00    +0.000 C 
BRANCH  16  17
ATOM     17  C   UNL     1       5.378   5.049  18.239  0.00  0.00    +0.000 A 
ATOM     18  C   UNL     1       6.712   4.850  18.601  0.00  0.00    +0.000 A 
ATOM     19  C   UNL     1       7.653   4.667  17.600  0.00  0.00    +0.000 A 
ATOM     20  N   UNL     1       7.362   4.664  16.283  0.00  0.00    +0.000 NA
ATOM     21  C   UNL     1       6.073   4.885  15.953  0.00  0.00    +0.000 A 
ATOM     22  C   UNL     1       5.061   5.097  16.876  0.00  0.00    +0.000 A 
BRANCH  21  23
ATOM     23  O   UNL     1       5.715   4.894  14.615  0.00  0.00    +0.000 OA
BRANCH  23  24
ATOM     24  C   UNL     1       6.489   4.027  13.754  0.00  0.00    +0.000 C 
ATOM     25  C   UNL     1       5.724   3.370  12.573  0.00  0.00    +0.000 C 
ATOM     26  C   UNL     1       6.963   3.631  11.699  0.00  0.00    +0.000 C 
ATOM     27  C   UNL     1       7.338   4.757  12.679  0.00  0.00    +0.000 C 
ENDBRANCH  23  24
ENDBRANCH  21  23
ENDBRANCH  16  17
ENDBRANCH   3  16
TORSDOF 5
ENDMDL
MODEL 5
REMARK VINA RESULT:      -7.8      3.139      8.073
REMARK  Name = 
REMARK  5 active torsions:
REMARK  status: ('A' for Active; 'I' for Inactive)
REMARK    1  A    between atoms: C_2  and  C_16
REMARK    2  A    between atoms: N_3  and  C_4
REMARK    3  A    between atoms: C_4  and  C_5
REMARK    4  A    between atoms: C_9  and  O_10
REMARK    5  A    between atoms: O_10  and  C_11
REMARK                            x       y       z     vdW  Elec       q    Type
REMARK                         _______ _______ _______ _____ _____    ______ ____
ROOT
ATOM      1  O   UNL     1       4.519   7.039  17.349  0.00  0.00    +0.000 OA
ATOM      2  C   UNL     1       3.462   6.548  17.736  0.00  0.00    +0.000 C 
ATOM      3  N   UNL     1       2.329   7.295  17.946  0.00  0.00    +0.000 N 
ATOM      4  H   UNL     1       1.511   6.845  18.333  0.00  0.00    +0.000 HD
ENDROOT
BRANCH   2   5
ATOM      5  C   UNL     1       3.302   5.110  17.953  0.00  0.00    +0.000 A 
ATOM      6  C   UNL     1       3.797   4.151  17.080  0.00  0.00    +0.000 A 
ATOM      7  N   UNL     1       3.471   2.911  17.550  0.00  0.00    +0.000 N 
ATOM      8  C   UNL     1       2.790   3.021  18.740  0.00  0.00    +0.000 A 
ATOM      9  C   UNL     1       2.280   2.023  19.581  0.00  0.00    +0.000 A 
ATOM     10  C   UNL     1       1.640   2.419  20.762  0.00  0.00    +0.000 A 
ATOM     11  C   UNL     1       1.516   3.766  21.083  0.00  0.00    +0.000 A 
ATOM     12  C   UNL     1       2.023   4.740  20.227  0.00  0.00    +0.000 A 
ATOM     13  F   UNL     1       1.865   6.028  20.564  0.00  0.00    +0.000 F 
ATOM     14  C   UNL     1       2.674   4.387  19.023  0.00  0.00    +0.000 A 
ATOM     15  H   UNL     1       3.703   2.035  17.098  0.00  0.00    +0.000 HD
ENDBRANCH   2   5
BRANCH   3  16
ATOM     16  C   UNL     1       2.303   8.729  17.827  0.00  0.00    +0.000 C 
BRANCH  16  17
ATOM     17  C   UNL     1       1.253   9.338  18.714  0.00  0.00    +0.000 A 
ATOM     18  C   UNL     1       1.371   9.256  20.104  0.00  0.00    +0.000 A 
ATOM     19  C   UNL     1       0.402   9.857  20.891  0.00  0.00    +0.000 A 
ATOM     20  N   UNL     1      -0.659  10.528  20.399  0.00  0.00    +0.000 NA
ATOM     21  C   UNL     1      -0.771  10.573  19.055  0.00  0.00    +0.000 A 
ATOM     22  C   UNL     1       0.134   9.990  18.182  0.00  0.00    +0.000 A 
BRANCH  21  23
ATOM     23  O   UNL     1      -1.841  11.248  18.493  0.00  0.00    +0.000 OA
BRANCH  23  24
ATOM     24  C   UNL     1      -2.585  10.519  17.491  0.00  0.00    +0.000 C 
ATOM     25  C   UNL     1      -4.126  10.712  17.501  0.00  0.00    +0.000 C 
ATOM     26  C   UNL     1      -4.076  10.740  15.963  0.00  0.00    +0.000 C 
ATOM     27  C   UNL     1      -2.604  11.171  16.083  0.00  0.00    +0.000 C 
ENDBRANCH  23  24
ENDBRANCH  21  23
ENDBRANCH  16  17
ENDBRANCH   3  16
TORSDOF 5
ENDMDL
MODEL 6
REMARK VINA RESULT:      -7.7      3.636      8.330
REMARK  Name = 
REMARK  5 active torsions:
REMARK  status: ('A' for Active; 'I' for Inactive)
REMARK    1  A    between atoms: C_2  and  C_16
REMARK    2  A    between atoms: N_3  and  C_4
REMARK    3  A    between atoms: C_4  and  C_5
REMARK    4  A    between atoms: C_9  and  O_10
REMARK    5  A    between atoms: O_10  and  C_11
REMARK                            x       y       z     vdW  Elec       q    Type
REMARK                         _______ _______ _______ _____ _____    ______ ____
ROOT
ATOM      1  O   UNL     1       1.686   6.868  21.271  0.00  0.00    +0.000 OA
ATOM      2  C   UNL     1       1.878   7.249  20.120  0.00  0.00    +0.000 C 
ATOM      3  N   UNL     1       1.589   8.525  19.702  0.00  0.00    +0.000 N 
ATOM      4  H   UNL     1       1.701   8.758  18.725  0.00  0.00    +0.000 HD
ENDROOT
BRANCH   2   5
ATOM      5  C   UNL     1       2.484   6.390  19.104  0.00  0.00    +0.000 A 
ATOM      6  C   UNL     1       3.459   6.832  18.220  0.00  0.00    +0.000 A 
ATOM      7  N   UNL     1       3.805   5.803  17.390  0.00  0.00    +0.000 N 
ATOM      8  C   UNL     1       3.100   4.671  17.722  0.00  0.00    +0.000 A 
ATOM      9  C   UNL     1       3.142   3.387  17.160  0.00  0.00    +0.000 A 
ATOM     10  C   UNL     1       2.321   2.397  17.715  0.00  0.00    +0.000 A 
ATOM     11  C   UNL     1       1.490   2.687  18.790  0.00  0.00    +0.000 A 
ATOM     12  C   UNL     1       1.459   3.972  19.326  0.00  0.00    +0.000 A 
ATOM     13  F   UNL     1       0.629   4.215  20.350  0.00  0.00    +0.000 F 
ATOM     14  C   UNL     1       2.268   5.003  18.797  0.00  0.00    +0.000 A 
ATOM     15  H   UNL     1       4.489   5.859  16.645  0.00  0.00    +0.000 HD
ENDBRANCH   2   5
BRANCH   3  16
ATOM     16  C   UNL     1       0.949   9.500  20.546  0.00  0.00    +0.000 C 
BRANCH  16  17
ATOM     17  C   UNL     1       0.366  10.629  19.742  0.00  0.00    +0.000 A 
ATOM     18  C   UNL     1       1.116  11.783  19.503  0.00  0.00    +0.000 A 
ATOM     19  C   UNL     1       0.560  12.790  18.730  0.00  0.00    +0.000 A 
ATOM     20  N   UNL     1      -0.672  12.728  18.184  0.00  0.00    +0.000 NA
ATOM     21  C   UNL     1      -1.391  11.618  18.449  0.00  0.00    +0.000 A 
ATOM     22  C   UNL     1      -0.933  10.564  19.224  0.00  0.00    +0.000 A 
BRANCH  21  23
ATOM     23  O   UNL     1      -2.663  11.499  17.915  0.00  0.00    +0.000 OA
BRANCH  23  24
ATOM     24  C   UNL     1      -2.726  11.307  16.483  0.00  0.00    +0.000 C 
ATOM     25  C   UNL     1      -2.418   9.875  15.967  0.00  0.00    +0.000 C 
ATOM     26  C   UNL     1      -3.565  10.054  14.957  0.00  0.00    +0.000 C 
ATOM     27  C   UNL     1      -4.155  11.109  15.910  0.00  0.00    +0.000 C 
ENDBRANCH  23  24
ENDBRANCH  21  23
ENDBRANCH  16  17
ENDBRANCH   3  16
TORSDOF 5
ENDMDL
MODEL 7
REMARK VINA RESULT:      -7.6      2.290      4.099
REMARK  Name = 
REMARK  5 active torsions:
REMARK  status: ('A' for Active; 'I' for Inactive)
REMARK    1  A    between atoms: C_2  and  C_16
REMARK    2  A    between atoms: N_3  and  C_4
REMARK    3  A    between atoms: C_4  and  C_5
REMARK    4  A    between atoms: C_9  and  O_10
REMARK    5  A    between atoms: O_10  and  C_11
REMARK                            x       y       z     vdW  Elec       q    Type
REMARK                         _______ _______ _______ _____ _____    ______ ____
ROOT
ATOM      1  O   UNL     1       2.361  11.246  18.085  0.00  0.00    +0.000 OA
ATOM      2  C   UNL     1       1.443  10.581  18.555  0.00  0.00    +0.000 C 
ATOM      3  N   UNL     1       1.367   9.216  18.418  0.00  0.00    +0.000 N 
ATOM      4  H   UNL     1       0.550   8.734  18.764  0.00  0.00    +0.000 HD
ENDROOT
BRANCH   2   5
ATOM      5  C   UNL     1       0.374  11.180  19.354  0.00  0.00    +0.000 A 
ATOM      6  C   UNL     1      -0.479  12.161  18.867  0.00  0.00    +0.000 A 
ATOM      7  N   UNL     1      -1.349  12.524  19.855  0.00  0.00    +0.000 N 
ATOM      8  C   UNL     1      -1.113  11.783  20.988  0.00  0.00    +0.000 A 
ATOM      9  C   UNL     1      -1.765  11.802  22.229  0.00  0.00    +0.000 A 
ATOM     10  C   UNL     1      -1.328  10.910  23.217  0.00  0.00    +0.000 A 
ATOM     11  C   UNL     1      -0.276  10.037  22.969  0.00  0.00    +0.000 A 
ATOM     12  C   UNL     1       0.362  10.043  21.732  0.00  0.00    +0.000 A 
ATOM     13  F   UNL     1       1.384   9.198  21.539  0.00  0.00    +0.000 F 
ATOM     14  C   UNL     1      -0.043  10.926  20.705  0.00  0.00    +0.000 A 
ATOM     15  H   UNL     1      -2.072  13.228  19.767  0.00  0.00    +0.000 HD
ENDBRANCH   2   5
BRANCH   3  16
ATOM     16  C   UNL     1       2.302   8.456  17.630  0.00  0.00    +0.000 C 
BRANCH  16  17
ATOM     17  C   UNL     1       2.765   7.225  18.359  0.00  0.00    +0.000 A 
ATOM     18  C   UNL     1       2.131   6.823  19.537  0.00  0.00    +0.000 A 
ATOM     19  C   UNL     1       2.562   5.666  20.165  0.00  0.00    +0.000 A 
ATOM     20  N   UNL     1       3.565   4.889  19.706  0.00  0.00    +0.000 NA
ATOM     21  C   UNL     1       4.183   5.307  18.582  0.00  0.00    +0.000 A 
ATOM     22  C   UNL     1       3.839   6.458  17.890  0.00  0.00    +0.000 A 
BRANCH  21  23
ATOM     23  O   UNL     1       5.219   4.549  18.065  0.00  0.00    +0.000 OA
BRANCH  23  24
ATOM     24  C   UNL     1       5.728   4.977  16.780  0.00  0.00    +0.000 C 
ATOM     25  C   UNL     1       7.219   4.659  16.490  0.00  0.00    +0.000 C 
ATOM     26  C   UNL     1       6.805   4.302  15.051  0.00  0.00    +0.000 C 
ATOM     27  C   UNL     1       5.390   4.035  15.594  0.00  0.00    +0.000 C 
ENDBRANCH  23  24
ENDBRANCH  21  23
ENDBRANCH  16  17
ENDBRANCH   3  16
TORSDOF 5
ENDMDL
MODEL 8
REMARK VINA RESULT:      -7.6      3.417      8.615
REMARK  Name = 
REMARK  5 active torsions:
REMARK  status: ('A' for Active; 'I' for Inactive)
REMARK    1  A    between atoms: C_2  and  C_16
REMARK    2  A    between atoms: N_3  and  C_4
REMARK    3  A    between atoms: C_4  and  C_5
REMARK    4  A    between atoms: C_9  and  O_10
REMARK    5  A    between atoms: O_10  and  C_11
REMARK                            x       y       z     vdW  Elec       q    Type
REMARK                         _______ _______ _______ _____ _____    ______ ____
ROOT
ATOM      1  O   UNL     1       4.590   7.113  16.582  0.00  0.00    +0.000 OA
ATOM      2  C   UNL     1       3.977   6.660  17.545  0.00  0.00    +0.000 C 
ATOM      3  N   UNL     1       2.913   7.310  18.121  0.00  0.00    +0.000 N 
ATOM      4  H   UNL     1       2.495   6.922  18.955  0.00  0.00    +0.000 HD
ENDROOT
BRANCH   2   5
ATOM      5  C   UNL     1       4.292   5.357  18.128  0.00  0.00    +0.000 A 
ATOM      6  C   UNL     1       5.532   5.049  18.672  0.00  0.00    +0.000 A 
ATOM      7  N   UNL     1       5.514   3.757  19.115  0.00  0.00    +0.000 N 
ATOM      8  C   UNL     1       4.274   3.202  18.904  0.00  0.00    +0.000 A 
ATOM      9  C   UNL     1       3.796   1.921  19.211  0.00  0.00    +0.000 A 
ATOM     10  C   UNL     1       2.464   1.622  18.903  0.00  0.00    +0.000 A 
ATOM     11  C   UNL     1       1.644   2.572  18.306  0.00  0.00    +0.000 A 
ATOM     12  C   UNL     1       2.143   3.836  18.002  0.00  0.00    +0.000 A 
ATOM     13  F   UNL     1       1.326   4.718  17.409  0.00  0.00    +0.000 F 
ATOM     14  C   UNL     1       3.483   4.182  18.293  0.00  0.00    +0.000 A 
ATOM     15  H   UNL     1       6.294   3.277  19.547  0.00  0.00    +0.000 HD
ENDBRANCH   2   5
BRANCH   3  16
ATOM     16  C   UNL     1       2.483   8.622  17.713  0.00  0.00    +0.000 C 
BRANCH  16  17
ATOM     17  C   UNL     1       1.577   9.250  18.736  0.00  0.00    +0.000 A 
ATOM     18  C   UNL     1       1.392   8.641  19.979  0.00  0.00    +0.000 A 
ATOM     19  C   UNL     1       0.576   9.264  20.911  0.00  0.00    +0.000 A 
ATOM     20  N   UNL     1      -0.055  10.436  20.695  0.00  0.00    +0.000 NA
ATOM     21  C   UNL     1       0.115  10.995  19.479  0.00  0.00    +0.000 A 
ATOM     22  C   UNL     1       0.894  10.443  18.474  0.00  0.00    +0.000 A 
BRANCH  21  23
ATOM     23  O   UNL     1      -0.510  12.199  19.201  0.00  0.00    +0.000 OA
BRANCH  23  24
ATOM     24  C   UNL     1       0.355  13.262  18.739  0.00  0.00    +0.000 C 
ATOM     25  C   UNL     1      -0.222  14.701  18.813  0.00  0.00    +0.000 C 
ATOM     26  C   UNL     1       1.165  15.173  19.282  0.00  0.00    +0.000 C 
ATOM     27  C   UNL     1       1.421  13.733  19.763  0.00  0.00    +0.000 C 
ENDBRANCH  23  24
ENDBRANCH  21  23
ENDBRANCH  16  17
ENDBRANCH   3  16
TORSDOF 5
ENDMDL
MODEL 9
REMARK VINA RESULT:      -7.6      3.178      9.183
REMARK  Name = 
REMARK  5 active torsions:
REMARK  status: ('A' for Active; 'I' for Inactive)
REMARK    1  A    between atoms: C_2  and  C_16
REMARK    2  A    between atoms: N_3  and  C_4
REMARK    3  A    between atoms: C_4  and  C_5
REMARK    4  A    between atoms: C_9  and  O_10
REMARK    5  A    between atoms: O_10  and  C_11
REMARK                            x       y       z     vdW  Elec       q    Type
REMARK                         _______ _______ _______ _____ _____    ______ ____
ROOT
ATOM      1  O   UNL     1       1.239   4.723  20.246  0.00  0.00    +0.000 OA
ATOM      2  C   UNL     1       2.238   5.406  20.039  0.00  0.00    +0.000 C 
ATOM      3  N   UNL     1       2.338   6.716  20.439  0.00  0.00    +0.000 N 
ATOM      4  H   UNL     1       3.156   7.247  20.176  0.00  0.00    +0.000 HD
ENDROOT
BRANCH   2   5
ATOM      5  C   UNL     1       3.435   4.865  19.396  0.00  0.00    +0.000 A 
ATOM      6  C   UNL     1       4.041   3.682  19.795  0.00  0.00    +0.000 A 
ATOM      7  N   UNL     1       5.140   3.460  19.014  0.00  0.00    +0.000 N 
ATOM      8  C   UNL     1       5.263   4.459  18.078  0.00  0.00    +0.000 A 
ATOM      9  C   UNL     1       6.219   4.634  17.068  0.00  0.00    +0.000 A 
ATOM     10  C   UNL     1       6.093   5.746  16.226  0.00  0.00    +0.000 A 
ATOM     11  C   UNL     1       5.050   6.649  16.396  0.00  0.00    +0.000 A 
ATOM     12  C   UNL     1       4.118   6.459  17.412  0.00  0.00    +0.000 A 
ATOM     13  F   UNL     1       3.137   7.363  17.553  0.00  0.00    +0.000 F 
ATOM     14  C   UNL     1       4.206   5.352  18.287  0.00  0.00    +0.000 A 
ATOM     15  H   UNL     1       5.768   2.670  19.100  0.00  0.00    +0.000 HD
ENDBRANCH   2   5
BRANCH   3  16
ATOM     16  C   UNL     1       1.249   7.435  21.047  0.00  0.00    +0.000 C 
BRANCH  16  17
ATOM     17  C   UNL     1       1.166   8.847  20.539  0.00  0.00    +0.000 A 
ATOM     18  C   UNL     1       1.281   9.111  19.172  0.00  0.00    +0.000 A 
ATOM     19  C   UNL     1       1.167  10.421  18.735  0.00  0.00    +0.000 A 
ATOM     20  N   UNL     1       0.946  11.471  19.551  0.00  0.00    +0.000 NA
ATOM     21  C   UNL     1       0.865  11.200  20.870  0.00  0.00    +0.000 A 
ATOM     22  C   UNL     1       0.983   9.928  21.409  0.00  0.00    +0.000 A 
BRANCH  21  23
ATOM     23  O   UNL     1       0.638  12.240  21.756  0.00  0.00    +0.000 OA
BRANCH  23  24
ATOM     24  C   UNL     1      -0.731  12.693  21.854  0.00  0.00    +0.000 C 
ATOM     25  C   UNL     1      -1.728  11.728  22.550  0.00  0.00    +0.000 C 
ATOM     26  C   UNL     1      -2.356  12.958  23.230  0.00  0.00    +0.000 C 
ATOM     27  C   UNL     1      -1.014  13.681  23.017  0.00  0.00    +0.000 C 
ENDBRANCH  23  24
ENDBRANCH  21  23
ENDBRANCH  16  17
ENDBRANCH   3  16
TORSDOF 5
ENDMDL
