MODEL 1
REMARK VINA RESULT:      -7.7      0.000      0.000
REMARK  Name = 
REMARK  3 active torsions:
REMARK  status: ('A' for Active; 'I' for Inactive)
REMARK    1  A    between atoms: N_3  and  C_4
REMARK    2  A    between atoms: C_7  and  C_8
REMARK    3  A    between atoms: C_8  and  O_10
REMARK                            x       y       z     vdW  Elec       q    Type
REMARK                         _______ _______ _______ _____ _____    ______ ____
ROOT
ATOM      1  N   UNL     1       1.328   7.531  21.216  0.00  0.00    +0.000 N 
ATOM      2  C   UNL     1       1.656   8.124  19.959  0.00  0.00    +0.000 C 
ATOM      3  N   UNL     1       2.367   7.469  19.077  0.00  0.00    +0.000 NA
ATOM      4  N   UNL     1       1.302   9.511  19.697  0.00  0.00    +0.000 N 
ATOM      5  C   UNL     1       1.642  10.060  18.378  0.00  0.00    +0.000 C 
ATOM      6  C   UNL     1       1.584  11.564  18.439  0.00  0.00    +0.000 A 
ATOM      7  C   UNL     1       2.622  12.380  17.986  0.00  0.00    +0.000 A 
ATOM      8  C   UNL     1       2.527  13.767  18.126  0.00  0.00    +0.000 A 
ATOM      9  C   UNL     1       1.405  14.342  18.734  0.00  0.00    +0.000 A 
ATOM     10  C   UNL     1       0.364  13.530  19.217  0.00  0.00    +0.000 A 
ATOM     11  C   UNL     1       0.455  12.130  19.044  0.00  0.00    +0.000 A 
ATOM     12  C   UNL     1      -0.567  11.157  19.577  0.00  0.00    +0.000 C 
ATOM     13  C   UNL     1      -1.837  11.854  20.145  0.00  0.00    +0.000 C 
ATOM     14  C   UNL     1      -1.563  13.186  20.839  0.00  0.00    +0.000 C 
ATOM     15  C   UNL     1      -0.808  14.168  19.922  0.00  0.00    +0.000 C 
ATOM     16  C   UNL     1       0.248  10.192  20.491  0.00  0.00    +0.000 C 
ATOM     17  H   UNL     1       1.722   6.627  21.506  0.00  0.00    +0.000 HD
ATOM     18  H   UNL     1       0.813   8.047  21.935  0.00  0.00    +0.000 HD
ENDROOT
BRANCH   3  19
ATOM     19  C   UNL     1       2.773   6.102  19.094  0.00  0.00    +0.000 A 
ATOM     20  C   UNL     1       1.900   5.046  18.782  0.00  0.00    +0.000 A 
ATOM     21  C   UNL     1       2.349   3.725  18.804  0.00  0.00    +0.000 A 
ATOM     22  C   UNL     1       3.687   3.415  19.105  0.00  0.00    +0.000 A 
ATOM     23  C   UNL     1       4.571   4.476  19.384  0.00  0.00    +0.000 A 
ATOM     24  C   UNL     1       4.118   5.802  19.370  0.00  0.00    +0.000 A 
BRANCH  22  25
ATOM     25  C   UNL     1       4.127   1.984  19.119  0.00  0.00    +0.000 C 
ATOM     26  O   UNL     1       3.582   1.181  18.377  0.00  0.00    +0.000 OA
BRANCH  25  27
ATOM     27  O   UNL     1       5.124   1.532  19.915  0.00  0.00    +0.000 OA
ATOM     28  H   UNL     1       6.046   1.806  19.841  0.00  0.00    +0.000 HD
ENDBRANCH  25  27
ENDBRANCH  22  25
ENDBRANCH   3  19
TORSDOF 3
ENDMDL
MODEL 2
REMARK VINA RESULT:      -7.7      1.324      2.942
REMARK  Name = 
REMARK  3 active torsions:
REMARK  status: ('A' for Active; 'I' for Inactive)
REMARK    1  A    between atoms: N_3  and  C_4
REMARK    2  A    between atoms: C_7  and  C_8
REMARK    3  A    between atoms: C_8  and  O_10
REMARK                            x       y       z     vdW  Elec       q    Type
REMARK                         _______ _______ _______ _____ _____    ______ ____
ROOT
ATOM      1  N   UNL     1       1.674   8.181  18.172  0.00  0.00    +0.000 N 
ATOM      2  C   UNL     1       1.546   8.343  19.585  0.00  0.00    +0.000 C 
ATOM      3  N   UNL     1       1.791   7.348  20.398  0.00  0.00    +0.000 NA
ATOM      4  N   UNL     1       1.023   9.589  20.127  0.00  0.00    +0.000 N 
ATOM      5  C   UNL     1       0.936   9.710  21.588  0.00  0.00    +0.000 C 
ATOM      6  C   UNL     1       0.015  10.851  21.935  0.00  0.00    +0.000 A 
ATOM      7  C   UNL     1      -1.040  10.723  22.840  0.00  0.00    +0.000 A 
ATOM      8  C   UNL     1      -1.891  11.807  23.073  0.00  0.00    +0.000 A 
ATOM      9  C   UNL     1      -1.702  13.014  22.390  0.00  0.00    +0.000 A 
ATOM     10  C   UNL     1      -0.659  13.148  21.458  0.00  0.00    +0.000 A 
ATOM     11  C   UNL     1       0.215  12.056  21.251  0.00  0.00    +0.000 A 
ATOM     12  C   UNL     1       1.327  12.061  20.232  0.00  0.00    +0.000 C 
ATOM     13  C   UNL     1       1.557  13.457  19.584  0.00  0.00    +0.000 C 
ATOM     14  C   UNL     1       0.281  14.270  19.378  0.00  0.00    +0.000 C 
ATOM     15  C   UNL     1      -0.511  14.439  20.690  0.00  0.00    +0.000 C 
ATOM     16  C   UNL     1       1.029  10.834  19.318  0.00  0.00    +0.000 C 
ATOM     17  H   UNL     1       1.859   7.262  17.749  0.00  0.00    +0.000 HD
ATOM     18  H   UNL     1       1.441   8.935  17.521  0.00  0.00    +0.000 HD
ENDROOT
BRANCH   3  19
ATOM     19  C   UNL     1       2.358   6.073  20.103  0.00  0.00    +0.000 A 
ATOM     20  C   UNL     1       3.613   5.922  19.489  0.00  0.00    +0.000 A 
ATOM     21  C   UNL     1       4.128   4.651  19.230  0.00  0.00    +0.000 A 
ATOM     22  C   UNL     1       3.424   3.491  19.600  0.00  0.00    +0.000 A 
ATOM     23  C   UNL     1       2.181   3.642  20.246  0.00  0.00    +0.000 A 
ATOM     24  C   UNL     1       1.661   4.919  20.499  0.00  0.00    +0.000 A 
BRANCH  22  25
ATOM     25  C   UNL     1       4.012   2.147  19.303  0.00  0.00    +0.000 C 
ATOM     26  O   UNL     1       3.526   1.462  18.416  0.00  0.00    +0.000 OA
BRANCH  25  27
ATOM     27  O   UNL     1       5.080   1.651  19.969  0.00  0.00    +0.000 OA
ATOM     28  H   UNL     1       5.948   2.072  19.996  0.00  0.00    +0.000 HD
ENDBRANCH  25  27
ENDBRANCH  22  25
ENDBRANCH   3  19
TORSDOF 3
ENDMDL
MODEL 3
REMARK VINA RESULT:      -7.3      1.463      2.043
REMARK  Name = 
REMARK  3 active torsions:
REMARK  status: ('A' for Active; 'I' for Inactive)
REMARK    1  A    between atoms: N_3  and  C_4
REMARK    2  A    between atoms: C_7  and  C_8
REMARK    3  A    between atoms: C_8  and  O_10
REMARK                            x       y       z     vdW  Elec       q    Type
REMARK                         _______ _______ _______ _____ _____    ______ ____
ROOT
ATOM      1  N   UNL     1       1.851   8.526  22.047  0.00  0.00    +0.000 N 
ATOM      2  C   UNL     1       1.312   9.018  20.819  0.00  0.00    +0.000 C 
ATOM      3  N   UNL     1       1.556   8.406  19.689  0.00  0.00    +0.000 NA
ATOM      4  N   UNL     1       0.583  10.278  20.802  0.00  0.00    +0.000 N 
ATOM      5  C   UNL     1       0.030  10.723  19.516  0.00  0.00    +0.000 C 
ATOM      6  C   UNL     1      -0.308  12.188  19.605  0.00  0.00    +0.000 A 
ATOM      7  C   UNL     1       0.116  13.122  18.657  0.00  0.00    +0.000 A 
ATOM      8  C   UNL     1      -0.184  14.475  18.831  0.00  0.00    +0.000 A 
ATOM      9  C   UNL     1      -0.893  14.903  19.960  0.00  0.00    +0.000 A 
ATOM     10  C   UNL     1      -1.305  13.977  20.934  0.00  0.00    +0.000 A 
ATOM     11  C   UNL     1      -1.022  12.606  20.735  0.00  0.00    +0.000 A 
ATOM     12  C   UNL     1      -1.357  11.532  21.739  0.00  0.00    +0.000 C 
ATOM     13  C   UNL     1      -2.235  12.048  22.917  0.00  0.00    +0.000 C 
ATOM     14  C   UNL     1      -1.924  13.479  23.350  0.00  0.00    +0.000 C 
ATOM     15  C   UNL     1      -2.016  14.469  22.171  0.00  0.00    +0.000 C 
ATOM     16  C   UNL     1       0.008  10.844  22.048  0.00  0.00    +0.000 C 
ATOM     17  H   UNL     1       2.523   7.748  22.068  0.00  0.00    +0.000 HD
ATOM     18  H   UNL     1       1.709   9.020  22.932  0.00  0.00    +0.000 HD
ENDROOT
BRANCH   3  19
ATOM     19  C   UNL     1       2.190   7.147  19.474  0.00  0.00    +0.000 A 
ATOM     20  C   UNL     1       1.945   6.024  20.283  0.00  0.00    +0.000 A 
ATOM     21  C   UNL     1       2.584   4.811  20.025  0.00  0.00    +0.000 A 
ATOM     22  C   UNL     1       3.462   4.668  18.936  0.00  0.00    +0.000 A 
ATOM     23  C   UNL     1       3.682   5.784  18.105  0.00  0.00    +0.000 A 
ATOM     24  C   UNL     1       3.046   7.004  18.369  0.00  0.00    +0.000 A 
BRANCH  22  25
ATOM     25  C   UNL     1       4.128   3.349  18.695  0.00  0.00    +0.000 C 
ATOM     26  O   UNL     1       3.643   2.570  17.888  0.00  0.00    +0.000 OA
BRANCH  25  27
ATOM     27  O   UNL     1       5.266   2.977  19.327  0.00  0.00    +0.000 OA
ATOM     28  H   UNL     1       5.292   2.457  20.139  0.00  0.00    +0.000 HD
ENDBRANCH  25  27
ENDBRANCH  22  25
ENDBRANCH   3  19
TORSDOF 3
ENDMDL
MODEL 4
REMARK VINA RESULT:      -7.3      1.800      3.322
REMARK  Name = 
REMARK  3 active torsions:
REMARK  status: ('A' for Active; 'I' for Inactive)
REMARK    1  A    between atoms: N_3  and  C_4
REMARK    2  A    between atoms: C_7  and  C_8
REMARK    3  A    between atoms: C_8  and  O_10
REMARK                            x       y       z     vdW  Elec       q    Type
REMARK                         _______ _______ _______ _____ _____    ______ ____
ROOT
ATOM      1  N   UNL     1       1.335   9.451  17.468  0.00  0.00    +0.000 N 
ATOM      2  C   UNL     1       1.382   9.323  18.890  0.00  0.00    +0.000 C 
ATOM      3  N   UNL     1       1.849   8.236  19.448  0.00  0.00    +0.000 NA
ATOM      4  N   UNL     1       0.796  10.357  19.731  0.00  0.00    +0.000 N 
ATOM      5  C   UNL     1       0.896  10.184  21.186  0.00  0.00    +0.000 C 
ATOM      6  C   UNL     1      -0.095  11.097  21.860  0.00  0.00    +0.000 A 
ATOM      7  C   UNL     1      -0.995  10.653  22.830  0.00  0.00    +0.000 A 
ATOM      8  C   UNL     1      -1.926  11.542  23.373  0.00  0.00    +0.000 A 
ATOM      9  C   UNL     1      -1.973  12.872  22.937  0.00  0.00    +0.000 A 
ATOM     10  C   UNL     1      -1.089  13.326  21.943  0.00  0.00    +0.000 A 
ATOM     11  C   UNL     1      -0.130  12.427  21.421  0.00  0.00    +0.000 A 
ATOM     12  C   UNL     1       0.825  12.782  20.309  0.00  0.00    +0.000 C 
ATOM     13  C   UNL     1       0.801  14.294  19.941  0.00  0.00    +0.000 C 
ATOM     14  C   UNL     1      -0.577  14.943  20.049  0.00  0.00    +0.000 C 
ATOM     15  C   UNL     1      -1.197  14.747  21.447  0.00  0.00    +0.000 C 
ATOM     16  C   UNL     1       0.549  11.721  19.200  0.00  0.00    +0.000 C 
ATOM     17  H   UNL     1       1.566   8.665  16.848  0.00  0.00    +0.000 HD
ATOM     18  H   UNL     1       0.929  10.275  17.017  0.00  0.00    +0.000 HD
ENDROOT
BRANCH   3  19
ATOM     19  C   UNL     1       2.514   7.132  18.836  0.00  0.00    +0.000 A 
ATOM     20  C   UNL     1       3.534   7.292  17.882  0.00  0.00    +0.000 A 
ATOM     21  C   UNL     1       4.160   6.180  17.319  0.00  0.00    +0.000 A 
ATOM     22  C   UNL     1       3.813   4.874  17.710  0.00  0.00    +0.000 A 
ATOM     23  C   UNL     1       2.814   4.714  18.690  0.00  0.00    +0.000 A 
ATOM     24  C   UNL     1       2.180   5.832  19.250  0.00  0.00    +0.000 A 
BRANCH  22  25
ATOM     25  C   UNL     1       4.509   3.708  17.080  0.00  0.00    +0.000 C 
ATOM     26  O   UNL     1       5.207   3.886  16.093  0.00  0.00    +0.000 OA
BRANCH  25  27
ATOM     27  O   UNL     1       4.412   2.448  17.565  0.00  0.00    +0.000 OA
ATOM     28  H   UNL     1       3.948   1.728  17.121  0.00  0.00    +0.000 HD
ENDBRANCH  25  27
ENDBRANCH  22  25
ENDBRANCH   3  19
TORSDOF 3
ENDMDL
MODEL 5
REMARK VINA RESULT:      -7.0      0.850      1.108
REMARK  Name = 
REMARK  3 active torsions:
REMARK  status: ('A' for Active; 'I' for Inactive)
REMARK    1  A    between atoms: N_3  and  C_4
REMARK    2  A    between atoms: C_7  and  C_8
REMARK    3  A    between atoms: C_8  and  O_10
REMARK                            x       y       z     vdW  Elec       q    Type
REMARK                         _______ _______ _______ _____ _____    ______ ____
ROOT
ATOM      1  N   UNL     1       0.859   8.062  21.261  0.00  0.00    +0.000 N 
ATOM      2  C   UNL     1       1.314   8.653  20.043  0.00  0.00    +0.000 C 
ATOM      3  N   UNL     1       2.069   7.979  19.214  0.00  0.00    +0.000 NA
ATOM      4  N   UNL     1       1.039  10.057  19.773  0.00  0.00    +0.000 N 
ATOM      5  C   UNL     1       1.509  10.605  18.494  0.00  0.00    +0.000 C 
ATOM      6  C   UNL     1       1.508  12.110  18.572  0.00  0.00    +0.000 A 
ATOM      7  C   UNL     1       2.612  12.887  18.217  0.00  0.00    +0.000 A 
ATOM      8  C   UNL     1       2.562  14.275  18.369  0.00  0.00    +0.000 A 
ATOM      9  C   UNL     1       1.417  14.889  18.891  0.00  0.00    +0.000 A 
ATOM     10  C   UNL     1       0.308  14.117  19.275  0.00  0.00    +0.000 A 
ATOM     11  C   UNL     1       0.356  12.715  19.090  0.00  0.00    +0.000 A 
ATOM     12  C   UNL     1      -0.745  11.780  19.523  0.00  0.00    +0.000 C 
ATOM     13  C   UNL     1      -2.029  12.523  19.994  0.00  0.00    +0.000 C 
ATOM     14  C   UNL     1      -1.760  13.835  20.728  0.00  0.00    +0.000 C 
ATOM     15  C   UNL     1      -0.892  14.795  19.890  0.00  0.00    +0.000 C 
ATOM     16  C   UNL     1      -0.048  10.772  20.487  0.00  0.00    +0.000 C 
ATOM     17  H   UNL     1       1.191   7.138  21.570  0.00  0.00    +0.000 HD
ATOM     18  H   UNL     1       0.308   8.591  21.942  0.00  0.00    +0.000 HD
ENDROOT
BRANCH   3  19
ATOM     19  C   UNL     1       2.416   6.597  19.244  0.00  0.00    +0.000 A 
ATOM     20  C   UNL     1       2.131   5.764  20.341  0.00  0.00    +0.000 A 
ATOM     21  C   UNL     1       2.484   4.415  20.317  0.00  0.00    +0.000 A 
ATOM     22  C   UNL     1       3.103   3.844  19.192  0.00  0.00    +0.000 A 
ATOM     23  C   UNL     1       3.359   4.670  18.079  0.00  0.00    +0.000 A 
ATOM     24  C   UNL     1       3.011   6.027  18.106  0.00  0.00    +0.000 A 
BRANCH  22  25
ATOM     25  C   UNL     1       3.467   2.391  19.209  0.00  0.00    +0.000 C 
ATOM     26  O   UNL     1       4.422   2.019  19.872  0.00  0.00    +0.000 OA
BRANCH  25  27
ATOM     27  O   UNL     1       2.770   1.454  18.524  0.00  0.00    +0.000 OA
ATOM     28  H   UNL     1       2.394   1.589  17.646  0.00  0.00    +0.000 HD
ENDBRANCH  25  27
ENDBRANCH  22  25
ENDBRANCH   3  19
TORSDOF 3
ENDMDL
MODEL 6
REMARK VINA RESULT:      -6.9      1.486      1.858
REMARK  Name = 
REMARK  3 active torsions:
REMARK  status: ('A' for Active; 'I' for Inactive)
REMARK    1  A    between atoms: N_3  and  C_4
REMARK    2  A    between atoms: C_7  and  C_8
REMARK    3  A    between atoms: C_8  and  O_10
REMARK                            x       y       z     vdW  Elec       q    Type
REMARK                         _______ _______ _______ _____ _____    ______ ____
ROOT
ATOM      1  N   UNL     1       1.940   8.055  21.324  0.00  0.00    +0.000 N 
ATOM      2  C   UNL     1       1.577   8.796  20.157  0.00  0.00    +0.000 C 
ATOM      3  N   UNL     1       1.896   8.363  18.965  0.00  0.00    +0.000 NA
ATOM      4  N   UNL     1       0.953  10.103  20.295  0.00  0.00    +0.000 N 
ATOM      5  C   UNL     1       0.579  10.809  19.062  0.00  0.00    +0.000 C 
ATOM      6  C   UNL     1       0.346  12.264  19.378  0.00  0.00    +0.000 A 
ATOM      7  C   UNL     1       0.941  13.299  18.655  0.00  0.00    +0.000 A 
ATOM      8  C   UNL     1       0.728  14.626  19.038  0.00  0.00    +0.000 A 
ATOM      9  C   UNL     1      -0.066  14.922  20.153  0.00  0.00    +0.000 A 
ATOM     10  C   UNL     1      -0.651  13.888  20.904  0.00  0.00    +0.000 A 
ATOM     11  C   UNL     1      -0.453  12.550  20.491  0.00  0.00    +0.000 A 
ATOM     12  C   UNL     1      -0.977  11.358  21.253  0.00  0.00    +0.000 C 
ATOM     13  C   UNL     1      -1.936  11.747  22.415  0.00  0.00    +0.000 C 
ATOM     14  C   UNL     1      -1.567  13.050  23.123  0.00  0.00    +0.000 C 
ATOM     15  C   UNL     1      -1.454  14.228  22.136  0.00  0.00    +0.000 C 
ATOM     16  C   UNL     1       0.289  10.502  21.562  0.00  0.00    +0.000 C 
ATOM     17  H   UNL     1       2.544   7.225  21.269  0.00  0.00    +0.000 HD
ATOM     18  H   UNL     1       1.739   8.403  22.265  0.00  0.00    +0.000 HD
ENDROOT
BRANCH   3  19
ATOM     19  C   UNL     1       2.452   7.104  18.590  0.00  0.00    +0.000 A 
ATOM     20  C   UNL     1       1.876   5.877  18.962  0.00  0.00    +0.000 A 
ATOM     21  C   UNL     1       2.453   4.672  18.562  0.00  0.00    +0.000 A 
ATOM     22  C   UNL     1       3.604   4.649  17.754  0.00  0.00    +0.000 A 
ATOM     23  C   UNL     1       4.162   5.879  17.353  0.00  0.00    +0.000 A 
ATOM     24  C   UNL     1       3.586   7.089  17.761  0.00  0.00    +0.000 A 
BRANCH  22  25
ATOM     25  C   UNL     1       4.193   3.334  17.348  0.00  0.00    +0.000 C 
ATOM     26  O   UNL     1       3.623   2.299  17.660  0.00  0.00    +0.000 OA
BRANCH  25  27
ATOM     27  O   UNL     1       5.335   3.234  16.629  0.00  0.00    +0.000 OA
ATOM     28  H   UNL     1       5.841   2.420  16.523  0.00  0.00    +0.000 HD
ENDBRANCH  25  27
ENDBRANCH  22  25
ENDBRANCH   3  19
TORSDOF 3
ENDMDL
MODEL 7
REMARK VINA RESULT:      -6.8      1.624      3.031
REMARK  Name = 
REMARK  3 active torsions:
REMARK  status: ('A' for Active; 'I' for Inactive)
REMARK    1  A    between atoms: N_3  and  C_4
REMARK    2  A    between atoms: C_7  and  C_8
REMARK    3  A    between atoms: C_8  and  O_10
REMARK                            x       y       z     vdW  Elec       q    Type
REMARK                         _______ _______ _______ _____ _____    ______ ____
ROOT
ATOM      1  N   UNL     1       1.648   8.949  17.655  0.00  0.00    +0.000 N 
ATOM      2  C   UNL     1       1.565   8.833  19.076  0.00  0.00    +0.000 C 
ATOM      3  N   UNL     1       1.852   7.705  19.672  0.00  0.00    +0.000 NA
ATOM      4  N   UNL     1       1.043   9.941  19.863  0.00  0.00    +0.000 N 
ATOM      5  C   UNL     1       1.004   9.775  21.322  0.00  0.00    +0.000 C 
ATOM      6  C   UNL     1       0.080  10.809  21.911  0.00  0.00    +0.000 A 
ATOM      7  C   UNL     1      -0.942  10.489  22.806  0.00  0.00    +0.000 A 
ATOM      8  C   UNL     1      -1.800  11.490  23.269  0.00  0.00    +0.000 A 
ATOM      9  C   UNL     1      -1.651  12.810  22.827  0.00  0.00    +0.000 A 
ATOM     10  C   UNL     1      -0.642  13.142  21.907  0.00  0.00    +0.000 A 
ATOM     11  C   UNL     1       0.240  12.128  21.467  0.00  0.00    +0.000 A 
ATOM     12  C   UNL     1       1.317  12.352  20.435  0.00  0.00    +0.000 C 
ATOM     13  C   UNL     1       1.506  13.851  20.062  0.00  0.00    +0.000 C 
ATOM     14  C   UNL     1       0.211  14.662  20.056  0.00  0.00    +0.000 C 
ATOM     15  C   UNL     1      -0.537  14.559  21.400  0.00  0.00    +0.000 C 
ATOM     16  C   UNL     1       1.005  11.318  19.310  0.00  0.00    +0.000 C 
ATOM     17  H   UNL     1       1.832   8.132  17.057  0.00  0.00    +0.000 HD
ATOM     18  H   UNL     1       1.382   9.809  17.169  0.00  0.00    +0.000 HD
ENDROOT
BRANCH   3  19
ATOM     19  C   UNL     1       2.426   6.522  19.120  0.00  0.00    +0.000 A 
ATOM     20  C   UNL     1       1.702   5.636  18.303  0.00  0.00    +0.000 A 
ATOM     21  C   UNL     1       2.312   4.496  17.779  0.00  0.00    +0.000 A 
ATOM     22  C   UNL     1       3.669   4.218  18.025  0.00  0.00    +0.000 A 
ATOM     23  C   UNL     1       4.403   5.124  18.815  0.00  0.00    +0.000 A 
ATOM     24  C   UNL     1       3.788   6.265  19.348  0.00  0.00    +0.000 A 
BRANCH  22  25
ATOM     25  C   UNL     1       4.285   2.983  17.444  0.00  0.00    +0.000 C 
ATOM     26  O   UNL     1       3.808   1.891  17.713  0.00  0.00    +0.000 OA
BRANCH  25  27
ATOM     27  O   UNL     1       5.351   3.019  16.612  0.00  0.00    +0.000 OA
ATOM     28  H   UNL     1       5.394   2.562  15.763  0.00  0.00    +0.000 HD
ENDBRANCH  25  27
ENDBRANCH  22  25
ENDBRANCH   3  19
TORSDOF 3
ENDMDL
MODEL 8
REMARK VINA RESULT:      -6.8      7.612      8.544
REMARK  Name = 
REMARK  3 active torsions:
REMARK  status: ('A' for Active; 'I' for Inactive)
REMARK    1  A    between atoms: N_3  and  C_4
REMARK    2  A    between atoms: C_7  and  C_8
REMARK    3  A    between atoms: C_8  and  O_10
REMARK                            x       y       z     vdW  Elec       q    Type
REMARK                         _______ _______ _______ _____ _____    ______ ____
ROOT
ATOM      1  N   UNL     1       6.010  14.858  20.323  0.00  0.00    +0.000 N 
ATOM      2  C   UNL     1       5.505  15.068  19.004  0.00  0.00    +0.000 C 
ATOM      3  N   UNL     1       6.293  14.972  17.964  0.00  0.00    +0.000 NA
ATOM      4  N   UNL     1       4.131  15.508  18.815  0.00  0.00    +0.000 N 
ATOM      5  C   UNL     1       3.659  15.683  17.435  0.00  0.00    +0.000 C 
ATOM      6  C   UNL     1       2.403  16.515  17.445  0.00  0.00    +0.000 A 
ATOM      7  C   UNL     1       2.231  17.637  16.632  0.00  0.00    +0.000 A 
ATOM      8  C   UNL     1       1.063  18.397  16.734  0.00  0.00    +0.000 A 
ATOM      9  C   UNL     1       0.071  18.050  17.659  0.00  0.00    +0.000 A 
ATOM     10  C   UNL     1       0.242  16.937  18.501  0.00  0.00    +0.000 A 
ATOM     11  C   UNL     1       1.414  16.157  18.370  0.00  0.00    +0.000 A 
ATOM     12  C   UNL     1       1.735  14.982  19.259  0.00  0.00    +0.000 C 
ATOM     13  C   UNL     1       0.555  14.579  20.191  0.00  0.00    +0.000 C 
ATOM     14  C   UNL     1      -0.278  15.757  20.692  0.00  0.00    +0.000 C 
ATOM     15  C   UNL     1      -0.814  16.617  19.531  0.00  0.00    +0.000 C 
ATOM     16  C   UNL     1       3.119  15.330  19.887  0.00  0.00    +0.000 C 
ATOM     17  H   UNL     1       7.014  14.732  20.503  0.00  0.00    +0.000 HD
ATOM     18  H   UNL     1       5.418  14.976  21.150  0.00  0.00    +0.000 HD
ENDROOT
BRANCH   3  19
ATOM     19  C   UNL     1       7.641  14.509  17.904  0.00  0.00    +0.000 A 
ATOM     20  C   UNL     1       8.743  15.334  18.188  0.00  0.00    +0.000 A 
ATOM     21  C   UNL     1      10.042  14.829  18.123  0.00  0.00    +0.000 A 
ATOM     22  C   UNL     1      10.284  13.481  17.804  0.00  0.00    +0.000 A 
ATOM     23  C   UNL     1       9.179  12.645  17.552  0.00  0.00    +0.000 A 
ATOM     24  C   UNL     1       7.874  13.155  17.610  0.00  0.00    +0.000 A 
BRANCH  22  25
ATOM     25  C   UNL     1      11.694  12.981  17.744  0.00  0.00    +0.000 C 
ATOM     26  O   UNL     1      12.333  12.859  18.779  0.00  0.00    +0.000 OA
BRANCH  25  27
ATOM     27  O   UNL     1      12.301  12.638  16.584  0.00  0.00    +0.000 OA
ATOM     28  H   UNL     1      12.187  11.790  16.140  0.00  0.00    +0.000 HD
ENDBRANCH  25  27
ENDBRANCH  22  25
ENDBRANCH   3  19
TORSDOF 3
ENDMDL
MODEL 9
REMARK VINA RESULT:      -6.7      7.927      9.817
REMARK  Name = 
REMARK  3 active torsions:
REMARK  status: ('A' for Active; 'I' for Inactive)
REMARK    1  A    between atoms: N_3  and  C_4
REMARK    2  A    between atoms: C_7  and  C_8
REMARK    3  A    between atoms: C_8  and  O_10
REMARK                            x       y       z     vdW  Elec       q    Type
REMARK                         _______ _______ _______ _____ _____    ______ ____
ROOT
ATOM      1  N   UNL     1      -1.758  12.833  20.332  0.00  0.00    +0.000 N 
ATOM      2  C   UNL     1      -1.900  14.254  20.329  0.00  0.00    +0.000 C 
ATOM      3  N   UNL     1      -2.953  14.821  20.860  0.00  0.00    +0.000 NA
ATOM      4  N   UNL     1      -0.928  15.078  19.627  0.00  0.00    +0.000 N 
ATOM      5  C   UNL     1      -1.110  16.534  19.678  0.00  0.00    +0.000 C 
ATOM      6  C   UNL     1      -0.288  17.174  18.589  0.00  0.00    +0.000 A 
ATOM      7  C   UNL     1      -0.816  18.100  17.688  0.00  0.00    +0.000 A 
ATOM      8  C   UNL     1      -0.012  18.610  16.665  0.00  0.00    +0.000 A 
ATOM      9  C   UNL     1       1.314  18.185  16.529  0.00  0.00    +0.000 A 
ATOM     10  C   UNL     1       1.851  17.234  17.414  0.00  0.00    +0.000 A 
ATOM     11  C   UNL     1       1.039  16.745  18.464  0.00  0.00    +0.000 A 
ATOM     12  C   UNL     1       1.484  15.679  19.433  0.00  0.00    +0.000 C 
ATOM     13  C   UNL     1       2.994  15.325  19.302  0.00  0.00    +0.000 C 
ATOM     14  C   UNL     1       3.528  15.379  17.872  0.00  0.00    +0.000 C 
ATOM     15  C   UNL     1       3.265  16.747  17.212  0.00  0.00    +0.000 C 
ATOM     16  C   UNL     1       0.419  14.550  19.291  0.00  0.00    +0.000 C 
ATOM     17  H   UNL     1      -2.515  12.215  20.652  0.00  0.00    +0.000 HD
ATOM     18  H   UNL     1      -0.964  12.372  19.880  0.00  0.00    +0.000 HD
ENDROOT
BRANCH   3  19
ATOM     19  C   UNL     1      -3.991  14.228  21.638  0.00  0.00    +0.000 A 
ATOM     20  C   UNL     1      -4.021  14.294  23.041  0.00  0.00    +0.000 A 
ATOM     21  C   UNL     1      -5.065  13.705  23.756  0.00  0.00    +0.000 A 
ATOM     22  C   UNL     1      -6.126  13.060  23.097  0.00  0.00    +0.000 A 
ATOM     23  C   UNL     1      -6.113  13.023  21.688  0.00  0.00    +0.000 A 
ATOM     24  C   UNL     1      -5.061  13.608  20.971  0.00  0.00    +0.000 A 
BRANCH  22  25
ATOM     25  C   UNL     1      -7.225  12.440  23.902  0.00  0.00    +0.000 C 
ATOM     26  O   UNL     1      -7.916  13.147  24.620  0.00  0.00    +0.000 OA
BRANCH  25  27
ATOM     27  O   UNL     1      -7.505  11.116  23.863  0.00  0.00    +0.000 OA
ATOM     28  H   UNL     1      -6.930  10.428  24.219  0.00  0.00    +0.000 HD
ENDBRANCH  25  27
ENDBRANCH  22  25
ENDBRANCH   3  19
TORSDOF 3
ENDMDL
