MODEL 1
REMARK VINA RESULT:      -8.2      0.000      0.000
REMARK  Name = 
REMARK  5 active torsions:
REMARK  status: ('A' for Active; 'I' for Inactive)
REMARK    1  A    between atoms: O_1  and  C_2
REMARK    2  A    between atoms: C_6  and  C_7
REMARK    3  A    between atoms: C_9  and  C_10
REMARK    4  A    between atoms: C_16  and  C_17
REMARK    5  A    between atoms: C_22  and  O_23
REMARK                            x       y       z     vdW  Elec       q    Type
REMARK                         _______ _______ _______ _____ _____    ______ ____
ROOT
ATOM      1  C   UNL     1       5.728   4.632  15.276  0.00  0.00    +0.000 A 
ATOM      2  C   UNL     1       6.567   5.620  15.793  0.00  0.00    +0.000 A 
ATOM      3  C   UNL     1       6.394   6.050  17.104  0.00  0.00    +0.000 A 
ATOM      4  C   UNL     1       5.371   5.485  17.857  0.00  0.00    +0.000 A 
ATOM      5  C   UNL     1       4.573   4.485  17.312  0.00  0.00    +0.000 A 
ATOM      6  N   UNL     1       4.733   4.080  16.021  0.00  0.00    +0.000 NA
ENDROOT
BRANCH   1  11
ATOM      7  C   UNL     1       4.894   3.213  11.850  0.00  0.00    +0.000 A 
ATOM      8  C   UNL     1       6.144   3.126  11.252  0.00  0.00    +0.000 A 
ATOM      9  C   UNL     1       7.262   3.568  11.957  0.00  0.00    +0.000 A 
ATOM     10  C   UNL     1       7.123   4.075  13.255  0.00  0.00    +0.000 A 
ATOM     11  C   UNL     1       5.865   4.149  13.884  0.00  0.00    +0.000 A 
ATOM     12  C   UNL     1       4.749   3.722  13.139  0.00  0.00    +0.000 A 
BRANCH   7  13
ATOM     13  O   UNL     1       3.763   2.803  11.207  0.00  0.00    +0.000 OA
ATOM     14  H   UNL     1       3.069   2.649  11.868  0.00  0.00    +0.000 HD
ENDBRANCH   7  13
ENDBRANCH   1  11
BRANCH   5  15
ATOM     15  C   UNL     1       3.493   3.829  18.087  0.00  0.00    +0.000 A 
ATOM     16  C   UNL     1       2.144   4.100  17.780  0.00  0.00    +0.000 A 
ATOM     17  C   UNL     1       1.094   3.519  18.500  0.00  0.00    +0.000 A 
ATOM     18  C   UNL     1       1.364   2.644  19.546  0.00  0.00    +0.000 A 
ATOM     19  C   UNL     1       2.683   2.347  19.873  0.00  0.00    +0.000 A 
ATOM     20  C   UNL     1       3.730   2.930  19.150  0.00  0.00    +0.000 A 
BRANCH  20  21
ATOM     21  O   UNL     1       5.015   2.592  19.498  0.00  0.00    +0.000 OA
ATOM     22  H   UNL     1       5.359   3.249  20.125  0.00  0.00    +0.000 HD
ENDBRANCH  20  21
ENDBRANCH   5  15
BRANCH   3  23
ATOM     23  C   UNL     1       7.253   7.077  17.666  0.00  0.00    +0.000 A 
ATOM     24  C   UNL     1       7.405   8.446  17.312  0.00  0.00    +0.000 A 
ATOM     25  C   UNL     1       8.336   8.971  18.177  0.00  0.00    +0.000 A 
ATOM     26  O   UNL     1       8.788   8.014  19.026  0.00  0.00    +0.000 OA
ATOM     27  C   UNL     1       8.136   6.868  18.709  0.00  0.00    +0.000 A 
ENDBRANCH   3  23
TORSDOF 5
ENDMDL
MODEL 2
REMARK VINA RESULT:      -8.0      3.631      7.507
REMARK  Name = 
REMARK  5 active torsions:
REMARK  status: ('A' for Active; 'I' for Inactive)
REMARK    1  A    between atoms: O_1  and  C_2
REMARK    2  A    between atoms: C_6  and  C_7
REMARK    3  A    between atoms: C_9  and  C_10
REMARK    4  A    between atoms: C_16  and  C_17
REMARK    5  A    between atoms: C_22  and  O_23
REMARK                            x       y       z     vdW  Elec       q    Type
REMARK                         _______ _______ _______ _____ _____    ______ ____
ROOT
ATOM      1  C   UNL     1       2.641   7.095  18.762  0.00  0.00    +0.000 A 
ATOM      2  C   UNL     1       2.249   6.123  19.681  0.00  0.00    +0.000 A 
ATOM      3  C   UNL     1       2.786   4.843  19.598  0.00  0.00    +0.000 A 
ATOM      4  C   UNL     1       3.695   4.570  18.582  0.00  0.00    +0.000 A 
ATOM      5  C   UNL     1       4.078   5.575  17.701  0.00  0.00    +0.000 A 
ATOM      6  N   UNL     1       3.535   6.823  17.773  0.00  0.00    +0.000 NA
ENDROOT
BRANCH   1  11
ATOM      7  C   UNL     1       2.079  10.781  18.024  0.00  0.00    +0.000 A 
ATOM      8  C   UNL     1       1.103  11.124  18.951  0.00  0.00    +0.000 A 
ATOM      9  C   UNL     1       0.599  10.138  19.797  0.00  0.00    +0.000 A 
ATOM     10  C   UNL     1       1.085   8.827  19.720  0.00  0.00    +0.000 A 
ATOM     11  C   UNL     1       2.090   8.468  18.802  0.00  0.00    +0.000 A 
ATOM     12  C   UNL     1       2.562   9.478  17.940  0.00  0.00    +0.000 A 
BRANCH   7  13
ATOM     13  O   UNL     1       2.605  11.702  17.166  0.00  0.00    +0.000 OA
ATOM     14  H   UNL     1       2.392  11.435  16.258  0.00  0.00    +0.000 HD
ENDBRANCH   7  13
ENDBRANCH   1  11
BRANCH   5  15
ATOM     15  C   UNL     1       5.069   5.342  16.623  0.00  0.00    +0.000 A 
ATOM     16  C   UNL     1       4.832   4.345  15.654  0.00  0.00    +0.000 A 
ATOM     17  C   UNL     1       5.750   4.078  14.632  0.00  0.00    +0.000 A 
ATOM     18  C   UNL     1       6.933   4.806  14.547  0.00  0.00    +0.000 A 
ATOM     19  C   UNL     1       7.198   5.801  15.481  0.00  0.00    +0.000 A 
ATOM     20  C   UNL     1       6.276   6.066  16.501  0.00  0.00    +0.000 A 
BRANCH  20  21
ATOM     21  O   UNL     1       6.573   7.071  17.388  0.00  0.00    +0.000 OA
ATOM     22  H   UNL     1       6.655   7.909  16.904  0.00  0.00    +0.000 HD
ENDBRANCH  20  21
ENDBRANCH   5  15
BRANCH   3  23
ATOM     23  C   UNL     1       2.395   3.812  20.543  0.00  0.00    +0.000 A 
ATOM     24  C   UNL     1       1.107   3.438  21.016  0.00  0.00    +0.000 A 
ATOM     25  C   UNL     1       1.300   2.389  21.883  0.00  0.00    +0.000 A 
ATOM     26  O   UNL     1       2.622   2.103  21.997  0.00  0.00    +0.000 OA
ATOM     27  C   UNL     1       3.281   2.972  21.190  0.00  0.00    +0.000 A 
ENDBRANCH   3  23
TORSDOF 5
ENDMDL
MODEL 3
REMARK VINA RESULT:      -8.0      3.902      6.268
REMARK  Name = 
REMARK  5 active torsions:
REMARK  status: ('A' for Active; 'I' for Inactive)
REMARK    1  A    between atoms: O_1  and  C_2
REMARK    2  A    between atoms: C_6  and  C_7
REMARK    3  A    between atoms: C_9  and  C_10
REMARK    4  A    between atoms: C_16  and  C_17
REMARK    5  A    between atoms: C_22  and  O_23
REMARK                            x       y       z     vdW  Elec       q    Type
REMARK                         _______ _______ _______ _____ _____    ______ ____
ROOT
ATOM      1  C   UNL     1       2.799   7.658  18.275  0.00  0.00    +0.000 A 
ATOM      2  C   UNL     1       3.851   7.449  17.384  0.00  0.00    +0.000 A 
ATOM      3  C   UNL     1       4.416   6.183  17.273  0.00  0.00    +0.000 A 
ATOM      4  C   UNL     1       3.917   5.162  18.074  0.00  0.00    +0.000 A 
ATOM      5  C   UNL     1       2.851   5.407  18.932  0.00  0.00    +0.000 A 
ATOM      6  N   UNL     1       2.313   6.653  19.052  0.00  0.00    +0.000 NA
ENDROOT
BRANCH   1  11
ATOM      7  C   UNL     1       2.092  11.378  17.950  0.00  0.00    +0.000 A 
ATOM      8  C   UNL     1       1.032  11.557  18.830  0.00  0.00    +0.000 A 
ATOM      9  C   UNL     1       0.521  10.450  19.505  0.00  0.00    +0.000 A 
ATOM     10  C   UNL     1       1.083   9.183  19.309  0.00  0.00    +0.000 A 
ATOM     11  C   UNL     1       2.172   8.988  18.438  0.00  0.00    +0.000 A 
ATOM     12  C   UNL     1       2.651  10.118  17.747  0.00  0.00    +0.000 A 
BRANCH   7  13
ATOM     13  O   UNL     1       2.629  12.422  17.256  0.00  0.00    +0.000 OA
ATOM     14  H   UNL     1       1.934  12.822  16.709  0.00  0.00    +0.000 HD
ENDBRANCH   7  13
ENDBRANCH   1  11
BRANCH   5  15
ATOM     15  C   UNL     1       2.262   4.343  19.781  0.00  0.00    +0.000 A 
ATOM     16  C   UNL     1       2.578   4.284  21.154  0.00  0.00    +0.000 A 
ATOM     17  C   UNL     1       2.062   3.284  21.986  0.00  0.00    +0.000 A 
ATOM     18  C   UNL     1       1.208   2.316  21.468  0.00  0.00    +0.000 A 
ATOM     19  C   UNL     1       0.869   2.346  20.120  0.00  0.00    +0.000 A 
ATOM     20  C   UNL     1       1.387   3.348  19.291  0.00  0.00    +0.000 A 
BRANCH  20  21
ATOM     21  O   UNL     1       1.008   3.347  17.971  0.00  0.00    +0.000 OA
ATOM     22  H   UNL     1       0.691   4.234  17.731  0.00  0.00    +0.000 HD
ENDBRANCH  20  21
ENDBRANCH   5  15
BRANCH   3  23
ATOM     23  C   UNL     1       5.512   5.939  16.352  0.00  0.00    +0.000 A 
ATOM     24  C   UNL     1       5.518   5.330  15.067  0.00  0.00    +0.000 A 
ATOM     25  C   UNL     1       6.818   5.370  14.622  0.00  0.00    +0.000 A 
ATOM     26  O   UNL     1       7.622   5.941  15.555  0.00  0.00    +0.000 OA
ATOM     27  C   UNL     1       6.829   6.277  16.603  0.00  0.00    +0.000 A 
ENDBRANCH   3  23
TORSDOF 5
ENDMDL
MODEL 4
REMARK VINA RESULT:      -8.0      1.248      6.750
REMARK  Name = 
REMARK  5 active torsions:
REMARK  status: ('A' for Active; 'I' for Inactive)
REMARK    1  A    between atoms: O_1  and  C_2
REMARK    2  A    between atoms: C_6  and  C_7
REMARK    3  A    between atoms: C_9  and  C_10
REMARK    4  A    between atoms: C_16  and  C_17
REMARK    5  A    between atoms: C_22  and  O_23
REMARK                            x       y       z     vdW  Elec       q    Type
REMARK                         _______ _______ _______ _____ _____    ______ ____
ROOT
ATOM      1  C   UNL     1       4.454   4.265  17.305  0.00  0.00    +0.000 A 
ATOM      2  C   UNL     1       4.600   3.820  15.992  0.00  0.00    +0.000 A 
ATOM      3  C   UNL     1       5.583   4.378  15.182  0.00  0.00    +0.000 A 
ATOM      4  C   UNL     1       6.386   5.382  15.711  0.00  0.00    +0.000 A 
ATOM      5  C   UNL     1       6.224   5.780  17.034  0.00  0.00    +0.000 A 
ATOM      6  N   UNL     1       5.247   5.244  17.818  0.00  0.00    +0.000 NA
ENDROOT
BRANCH   1  11
ATOM      7  C   UNL     1       2.730   2.811  20.365  0.00  0.00    +0.000 A 
ATOM      8  C   UNL     1       1.452   2.551  19.890  0.00  0.00    +0.000 A 
ATOM      9  C   UNL     1       1.138   2.887  18.574  0.00  0.00    +0.000 A 
ATOM     10  C   UNL     1       2.109   3.462  17.743  0.00  0.00    +0.000 A 
ATOM     11  C   UNL     1       3.416   3.710  18.203  0.00  0.00    +0.000 A 
ATOM     12  C   UNL     1       3.697   3.387  19.544  0.00  0.00    +0.000 A 
BRANCH   7  13
ATOM     13  O   UNL     1       3.093   2.510  21.645  0.00  0.00    +0.000 OA
ATOM     14  H   UNL     1       2.729   3.188  22.237  0.00  0.00    +0.000 HD
ENDBRANCH   7  13
ENDBRANCH   1  11
BRANCH   5  15
ATOM     15  C   UNL     1       7.078   6.821  17.653  0.00  0.00    +0.000 A 
ATOM     16  C   UNL     1       7.085   8.130  17.126  0.00  0.00    +0.000 A 
ATOM     17  C   UNL     1       7.892   9.137  17.666  0.00  0.00    +0.000 A 
ATOM     18  C   UNL     1       8.714   8.866  18.756  0.00  0.00    +0.000 A 
ATOM     19  C   UNL     1       8.728   7.589  19.307  0.00  0.00    +0.000 A 
ATOM     20  C   UNL     1       7.919   6.584  18.763  0.00  0.00    +0.000 A 
BRANCH  20  21
ATOM     21  O   UNL     1       7.954   5.345  19.353  0.00  0.00    +0.000 OA
ATOM     22  H   UNL     1       7.892   4.662  18.665  0.00  0.00    +0.000 HD
ENDBRANCH  20  21
ENDBRANCH   5  15
BRANCH   3  23
ATOM     23  C   UNL     1       5.755   3.932  13.811  0.00  0.00    +0.000 A 
ATOM     24  C   UNL     1       4.826   3.341  12.911  0.00  0.00    +0.000 A 
ATOM     25  C   UNL     1       5.503   3.132  11.733  0.00  0.00    +0.000 A 
ATOM     26  O   UNL     1       6.795   3.532  11.850  0.00  0.00    +0.000 OA
ATOM     27  C   UNL     1       6.945   4.008  13.112  0.00  0.00    +0.000 A 
ENDBRANCH   3  23
TORSDOF 5
ENDMDL
MODEL 5
REMARK VINA RESULT:      -7.8      3.817      7.618
REMARK  Name = 
REMARK  5 active torsions:
REMARK  status: ('A' for Active; 'I' for Inactive)
REMARK    1  A    between atoms: O_1  and  C_2
REMARK    2  A    between atoms: C_6  and  C_7
REMARK    3  A    between atoms: C_9  and  C_10
REMARK    4  A    between atoms: C_16  and  C_17
REMARK    5  A    between atoms: C_22  and  O_23
REMARK                            x       y       z     vdW  Elec       q    Type
REMARK                         _______ _______ _______ _____ _____    ______ ____
ROOT
ATOM      1  C   UNL     1       2.633   6.995  18.838  0.00  0.00    +0.000 A 
ATOM      2  C   UNL     1       2.256   6.014  19.755  0.00  0.00    +0.000 A 
ATOM      3  C   UNL     1       2.811   4.742  19.668  0.00  0.00    +0.000 A 
ATOM      4  C   UNL     1       3.721   4.485  18.650  0.00  0.00    +0.000 A 
ATOM      5  C   UNL     1       4.090   5.498  17.771  0.00  0.00    +0.000 A 
ATOM      6  N   UNL     1       3.529   6.737  17.847  0.00  0.00    +0.000 NA
ENDROOT
BRANCH   1  11
ATOM      7  C   UNL     1       0.714  10.069  19.983  0.00  0.00    +0.000 A 
ATOM      8  C   UNL     1       0.886  10.941  18.917  0.00  0.00    +0.000 A 
ATOM      9  C   UNL     1       1.665  10.538  17.833  0.00  0.00    +0.000 A 
ATOM     10  C   UNL     1       2.247   9.264  17.819  0.00  0.00    +0.000 A 
ATOM     11  C   UNL     1       2.063   8.360  18.882  0.00  0.00    +0.000 A 
ATOM     12  C   UNL     1       1.295   8.803  19.977  0.00  0.00    +0.000 A 
BRANCH   7  13
ATOM     13  O   UNL     1      -0.031  10.410  21.074  0.00  0.00    +0.000 OA
ATOM     14  H   UNL     1       0.201  11.315  21.337  0.00  0.00    +0.000 HD
ENDBRANCH   7  13
ENDBRANCH   1  11
BRANCH   5  15
ATOM     15  C   UNL     1       5.082   5.281  16.691  0.00  0.00    +0.000 A 
ATOM     16  C   UNL     1       4.867   4.270  15.731  0.00  0.00    +0.000 A 
ATOM     17  C   UNL     1       5.788   4.018  14.708  0.00  0.00    +0.000 A 
ATOM     18  C   UNL     1       6.951   4.775  14.612  0.00  0.00    +0.000 A 
ATOM     19  C   UNL     1       7.193   5.786  15.536  0.00  0.00    +0.000 A 
ATOM     20  C   UNL     1       6.269   6.035  16.558  0.00  0.00    +0.000 A 
BRANCH  20  21
ATOM     21  O   UNL     1       6.543   7.055  17.435  0.00  0.00    +0.000 OA
ATOM     22  H   UNL     1       5.708   7.441  17.747  0.00  0.00    +0.000 HD
ENDBRANCH  20  21
ENDBRANCH   5  15
BRANCH   3  23
ATOM     23  C   UNL     1       2.435   3.704  20.610  0.00  0.00    +0.000 A 
ATOM     24  C   UNL     1       1.160   3.353  21.134  0.00  0.00    +0.000 A 
ATOM     25  C   UNL     1       1.364   2.282  21.973  0.00  0.00    +0.000 A 
ATOM     26  O   UNL     1       2.682   1.962  22.022  0.00  0.00    +0.000 OA
ATOM     27  C   UNL     1       3.327   2.829  21.202  0.00  0.00    +0.000 A 
ENDBRANCH   3  23
TORSDOF 5
ENDMDL
MODEL 6
REMARK VINA RESULT:      -7.8      1.592      5.923
REMARK  Name = 
REMARK  5 active torsions:
REMARK  status: ('A' for Active; 'I' for Inactive)
REMARK    1  A    between atoms: O_1  and  C_2
REMARK    2  A    between atoms: C_6  and  C_7
REMARK    3  A    between atoms: C_9  and  C_10
REMARK    4  A    between atoms: C_16  and  C_17
REMARK    5  A    between atoms: C_22  and  O_23
REMARK                            x       y       z     vdW  Elec       q    Type
REMARK                         _______ _______ _______ _____ _____    ______ ____
ROOT
ATOM      1  C   UNL     1       4.679   5.072  17.372  0.00  0.00    +0.000 A 
ATOM      2  C   UNL     1       5.494   6.050  17.940  0.00  0.00    +0.000 A 
ATOM      3  C   UNL     1       6.578   6.543  17.221  0.00  0.00    +0.000 A 
ATOM      4  C   UNL     1       6.822   6.028  15.953  0.00  0.00    +0.000 A 
ATOM      5  C   UNL     1       5.970   5.070  15.414  0.00  0.00    +0.000 A 
ATOM      6  N   UNL     1       4.921   4.575  16.129  0.00  0.00    +0.000 NA
ENDROOT
BRANCH   1  11
ATOM      7  C   UNL     1       2.288   4.128  20.172  0.00  0.00    +0.000 A 
ATOM      8  C   UNL     1       1.355   3.339  19.512  0.00  0.00    +0.000 A 
ATOM      9  C   UNL     1       1.486   3.144  18.138  0.00  0.00    +0.000 A 
ATOM     10  C   UNL     1       2.554   3.724  17.442  0.00  0.00    +0.000 A 
ATOM     11  C   UNL     1       3.521   4.508  18.100  0.00  0.00    +0.000 A 
ATOM     12  C   UNL     1       3.349   4.712  19.483  0.00  0.00    +0.000 A 
BRANCH   7  13
ATOM     13  O   UNL     1       2.208   4.360  21.513  0.00  0.00    +0.000 OA
ATOM     14  H   UNL     1       1.580   3.730  21.900  0.00  0.00    +0.000 HD
ENDBRANCH   7  13
ENDBRANCH   1  11
BRANCH   5  15
ATOM     15  C   UNL     1       6.170   4.515  14.053  0.00  0.00    +0.000 A 
ATOM     16  C   UNL     1       5.221   3.622  13.513  0.00  0.00    +0.000 A 
ATOM     17  C   UNL     1       5.380   3.059  12.242  0.00  0.00    +0.000 A 
ATOM     18  C   UNL     1       6.494   3.377  11.471  0.00  0.00    +0.000 A 
ATOM     19  C   UNL     1       7.447   4.259  11.969  0.00  0.00    +0.000 A 
ATOM     20  C   UNL     1       7.283   4.821  13.240  0.00  0.00    +0.000 A 
BRANCH  20  21
ATOM     21  O   UNL     1       8.241   5.701  13.680  0.00  0.00    +0.000 OA
ATOM     22  H   UNL     1       8.337   5.612  14.643  0.00  0.00    +0.000 HD
ENDBRANCH  20  21
ENDBRANCH   5  15
BRANCH   3  23
ATOM     23  C   UNL     1       7.442   7.562  17.790  0.00  0.00    +0.000 A 
ATOM     24  C   UNL     1       7.583   8.939  17.462  0.00  0.00    +0.000 A 
ATOM     25  C   UNL     1       8.526   9.450  18.321  0.00  0.00    +0.000 A 
ATOM     26  O   UNL     1       8.997   8.477  19.143  0.00  0.00    +0.000 OA
ATOM     27  C   UNL     1       8.344   7.336  18.813  0.00  0.00    +0.000 A 
ENDBRANCH   3  23
TORSDOF 5
ENDMDL
MODEL 7
REMARK VINA RESULT:      -7.8      1.664      5.708
REMARK  Name = 
REMARK  5 active torsions:
REMARK  status: ('A' for Active; 'I' for Inactive)
REMARK    1  A    between atoms: O_1  and  C_2
REMARK    2  A    between atoms: C_6  and  C_7
REMARK    3  A    between atoms: C_9  and  C_10
REMARK    4  A    between atoms: C_16  and  C_17
REMARK    5  A    between atoms: C_22  and  O_23
REMARK                            x       y       z     vdW  Elec       q    Type
REMARK                         _______ _______ _______ _____ _____    ______ ____
ROOT
ATOM      1  C   UNL     1       4.643   5.190  17.437  0.00  0.00    +0.000 A 
ATOM      2  C   UNL     1       5.472   6.171  17.981  0.00  0.00    +0.000 A 
ATOM      3  C   UNL     1       6.559   6.635  17.248  0.00  0.00    +0.000 A 
ATOM      4  C   UNL     1       6.793   6.089  15.992  0.00  0.00    +0.000 A 
ATOM      5  C   UNL     1       5.928   5.130  15.476  0.00  0.00    +0.000 A 
ATOM      6  N   UNL     1       4.875   4.663  16.205  0.00  0.00    +0.000 NA
ENDROOT
BRANCH   1  11
ATOM      7  C   UNL     1       1.741   2.973  18.491  0.00  0.00    +0.000 A 
ATOM      8  C   UNL     1       1.190   3.687  19.546  0.00  0.00    +0.000 A 
ATOM      9  C   UNL     1       1.792   4.881  19.942  0.00  0.00    +0.000 A 
ATOM     10  C   UNL     1       2.924   5.356  19.269  0.00  0.00    +0.000 A 
ATOM     11  C   UNL     1       3.481   4.656  18.182  0.00  0.00    +0.000 A 
ATOM     12  C   UNL     1       2.871   3.439  17.821  0.00  0.00    +0.000 A 
BRANCH   7  13
ATOM     13  O   UNL     1       1.201   1.796  18.064  0.00  0.00    +0.000 OA
ATOM     14  H   UNL     1       0.418   1.600  18.603  0.00  0.00    +0.000 HD
ENDBRANCH   7  13
ENDBRANCH   1  11
BRANCH   5  15
ATOM     15  C   UNL     1       6.116   4.543  14.127  0.00  0.00    +0.000 A 
ATOM     16  C   UNL     1       5.142   3.670  13.599  0.00  0.00    +0.000 A 
ATOM     17  C   UNL     1       5.290   3.077  12.340  0.00  0.00    +0.000 A 
ATOM     18  C   UNL     1       6.416   3.346  11.569  0.00  0.00    +0.000 A 
ATOM     19  C   UNL     1       7.394   4.207  12.054  0.00  0.00    +0.000 A 
ATOM     20  C   UNL     1       7.242   4.798  13.314  0.00  0.00    +0.000 A 
BRANCH  20  21
ATOM     21  O   UNL     1       8.225   5.656  13.742  0.00  0.00    +0.000 OA
ATOM     22  H   UNL     1       9.053   5.161  13.856  0.00  0.00    +0.000 HD
ENDBRANCH  20  21
ENDBRANCH   5  15
BRANCH   3  23
ATOM     23  C   UNL     1       7.438   7.655  17.792  0.00  0.00    +0.000 A 
ATOM     24  C   UNL     1       7.572   9.030  17.454  0.00  0.00    +0.000 A 
ATOM     25  C   UNL     1       8.536   9.544  18.289  0.00  0.00    +0.000 A 
ATOM     26  O   UNL     1       9.025   8.575  19.104  0.00  0.00    +0.000 OA
ATOM     27  C   UNL     1       8.362   7.433  18.795  0.00  0.00    +0.000 A 
ENDBRANCH   3  23
TORSDOF 5
ENDMDL
MODEL 8
REMARK VINA RESULT:      -7.7      0.946      1.297
REMARK  Name = 
REMARK  5 active torsions:
REMARK  status: ('A' for Active; 'I' for Inactive)
REMARK    1  A    between atoms: O_1  and  C_2
REMARK    2  A    between atoms: C_6  and  C_7
REMARK    3  A    between atoms: C_9  and  C_10
REMARK    4  A    between atoms: C_16  and  C_17
REMARK    5  A    between atoms: C_22  and  O_23
REMARK                            x       y       z     vdW  Elec       q    Type
REMARK                         _______ _______ _______ _____ _____    ______ ____
ROOT
ATOM      1  C   UNL     1       5.782   4.607  15.353  0.00  0.00    +0.000 A 
ATOM      2  C   UNL     1       6.591   5.633  15.839  0.00  0.00    +0.000 A 
ATOM      3  C   UNL     1       6.462   6.041  17.163  0.00  0.00    +0.000 A 
ATOM      4  C   UNL     1       5.511   5.414  17.959  0.00  0.00    +0.000 A 
ATOM      5  C   UNL     1       4.741   4.378  17.442  0.00  0.00    +0.000 A 
ATOM      6  N   UNL     1       4.857   3.995  16.139  0.00  0.00    +0.000 NA
ENDROOT
BRANCH   1  11
ATOM      7  C   UNL     1       4.833   3.271  11.923  0.00  0.00    +0.000 A 
ATOM      8  C   UNL     1       6.066   3.164  11.295  0.00  0.00    +0.000 A 
ATOM      9  C   UNL     1       7.212   3.564  11.981  0.00  0.00    +0.000 A 
ATOM     10  C   UNL     1       7.115   4.051  13.290  0.00  0.00    +0.000 A 
ATOM     11  C   UNL     1       5.874   4.145  13.950  0.00  0.00    +0.000 A 
ATOM     12  C   UNL     1       4.730   3.760  13.224  0.00  0.00    +0.000 A 
BRANCH   7  13
ATOM     13  O   UNL     1       3.677   2.902  11.300  0.00  0.00    +0.000 OA
ATOM     14  H   UNL     1       3.330   2.107  11.736  0.00  0.00    +0.000 HD
ENDBRANCH   7  13
ENDBRANCH   1  11
BRANCH   5  15
ATOM     15  C   UNL     1       3.738   3.656  18.261  0.00  0.00    +0.000 A 
ATOM     16  C   UNL     1       4.033   3.322  19.599  0.00  0.00    +0.000 A 
ATOM     17  C   UNL     1       3.124   2.623  20.401  0.00  0.00    +0.000 A 
ATOM     18  C   UNL     1       1.888   2.242  19.888  0.00  0.00    +0.000 A 
ATOM     19  C   UNL     1       1.559   2.560  18.575  0.00  0.00    +0.000 A 
ATOM     20  C   UNL     1       2.472   3.260  17.776  0.00  0.00    +0.000 A 
BRANCH  20  21
ATOM     21  O   UNL     1       2.095   3.568  16.492  0.00  0.00    +0.000 OA
ATOM     22  H   UNL     1       2.872   3.521  15.912  0.00  0.00    +0.000 HD
ENDBRANCH  20  21
ENDBRANCH   5  15
BRANCH   3  23
ATOM     23  C   UNL     1       7.292   7.107  17.694  0.00  0.00    +0.000 A 
ATOM     24  C   UNL     1       7.402   8.470  17.305  0.00  0.00    +0.000 A 
ATOM     25  C   UNL     1       8.320   9.045  18.151  0.00  0.00    +0.000 A 
ATOM     26  O   UNL     1       8.804   8.124  19.023  0.00  0.00    +0.000 OA
ATOM     27  C   UNL     1       8.185   6.952  18.738  0.00  0.00    +0.000 A 
ENDBRANCH   3  23
TORSDOF 5
ENDMDL
MODEL 9
REMARK VINA RESULT:      -7.7      1.575      6.668
REMARK  Name = 
REMARK  5 active torsions:
REMARK  status: ('A' for Active; 'I' for Inactive)
REMARK    1  A    between atoms: O_1  and  C_2
REMARK    2  A    between atoms: C_6  and  C_7
REMARK    3  A    between atoms: C_9  and  C_10
REMARK    4  A    between atoms: C_16  and  C_17
REMARK    5  A    between atoms: C_22  and  O_23
REMARK                            x       y       z     vdW  Elec       q    Type
REMARK                         _______ _______ _______ _____ _____    ______ ____
ROOT
ATOM      1  C   UNL     1       4.410   4.891  17.383  0.00  0.00    +0.000 A 
ATOM      2  C   UNL     1       4.595   4.340  16.116  0.00  0.00    +0.000 A 
ATOM      3  C   UNL     1       5.652   4.778  15.325  0.00  0.00    +0.000 A 
ATOM      4  C   UNL     1       6.486   5.771  15.824  0.00  0.00    +0.000 A 
ATOM      5  C   UNL     1       6.281   6.277  17.103  0.00  0.00    +0.000 A 
ATOM      6  N   UNL     1       5.233   5.859  17.868  0.00  0.00    +0.000 NA
ENDROOT
BRANCH   1  11
ATOM      7  C   UNL     1       1.503   2.907  18.820  0.00  0.00    +0.000 A 
ATOM      8  C   UNL     1       1.091   3.707  19.877  0.00  0.00    +0.000 A 
ATOM      9  C   UNL     1       1.789   4.883  20.146  0.00  0.00    +0.000 A 
ATOM     10  C   UNL     1       2.878   5.255  19.348  0.00  0.00    +0.000 A 
ATOM     11  C   UNL     1       3.294   4.466  18.259  0.00  0.00    +0.000 A 
ATOM     12  C   UNL     1       2.589   3.270  18.026  0.00  0.00    +0.000 A 
BRANCH   7  13
ATOM     13  O   UNL     1       0.864   1.742  18.512  0.00  0.00    +0.000 OA
ATOM     14  H   UNL     1       0.402   1.423  19.304  0.00  0.00    +0.000 HD
ENDBRANCH   7  13
ENDBRANCH   1  11
BRANCH   5  15
ATOM     15  C   UNL     1       7.164   7.312  17.693  0.00  0.00    +0.000 A 
ATOM     16  C   UNL     1       7.146   8.626  17.180  0.00  0.00    +0.000 A 
ATOM     17  C   UNL     1       7.978   9.628  17.693  0.00  0.00    +0.000 A 
ATOM     18  C   UNL     1       8.851   9.344  18.738  0.00  0.00    +0.000 A 
ATOM     19  C   UNL     1       8.892   8.061  19.273  0.00  0.00    +0.000 A 
ATOM     20  C   UNL     1       8.058   7.062  18.757  0.00  0.00    +0.000 A 
BRANCH  20  21
ATOM     21  O   UNL     1       8.121   5.816  19.331  0.00  0.00    +0.000 OA
ATOM     22  H   UNL     1       9.033   5.486  19.277  0.00  0.00    +0.000 HD
ENDBRANCH  20  21
ENDBRANCH   5  15
BRANCH   3  23
ATOM     23  C   UNL     1       5.867   4.221  14.001  0.00  0.00    +0.000 A 
ATOM     24  C   UNL     1       5.011   3.434  13.183  0.00  0.00    +0.000 A 
ATOM     25  C   UNL     1       5.700   3.191  12.018  0.00  0.00    +0.000 A 
ATOM     26  O   UNL     1       6.934   3.754  12.070  0.00  0.00    +0.000 OA
ATOM     27  C   UNL     1       7.033   4.369  13.274  0.00  0.00    +0.000 A 
ENDBRANCH   3  23
TORSDOF 5
ENDMDL
