MODEL 1
REMARK VINA RESULT:      -7.1      0.000      0.000
REMARK  Name = 
REMARK  7 active torsions:
REMARK  status: ('A' for Active; 'I' for Inactive)
REMARK    1  A    between atoms: C_1  and  O_2
REMARK    2  A    between atoms: O_2  and  C_3
REMARK    3  A    between atoms: C_3  and  C_4
REMARK    4  A    between atoms: C_4  and  O_5
REMARK    5  A    between atoms: C_7  and  N_8
REMARK    6  A    between atoms: C_12  and  O_13
REMARK    7  A    between atoms: C_20  and  O_21
REMARK                            x       y       z     vdW  Elec       q    Type
REMARK                         _______ _______ _______ _____ _____    ______ ____
ROOT
ATOM      1  N   UNL     1       4.588   4.541  17.810  0.00  0.00    +0.000 N 
ATOM      2  C   UNL     1       4.311   3.701  16.764  0.00  0.00    +0.000 A 
ATOM      3  N   UNL     1       5.135   3.884  15.751  0.00  0.00    +0.000 NA
ATOM      4  C   UNL     1       5.987   4.876  16.178  0.00  0.00    +0.000 A 
ATOM      5  C   UNL     1       7.072   5.515  15.590  0.00  0.00    +0.000 A 
ATOM      6  N   UNL     1       7.744   6.475  16.257  0.00  0.00    +0.000 NA
ATOM      7  C   UNL     1       7.334   6.781  17.500  0.00  0.00    +0.000 A 
ATOM      8  N   UNL     1       8.049   7.767  18.149  0.00  0.00    +0.000 N 
ATOM      9  N   UNL     1       6.282   6.262  18.159  0.00  0.00    +0.000 NA
ATOM     10  C   UNL     1       5.664   5.305  17.449  0.00  0.00    +0.000 A 
ATOM     11  H   UNL     1       8.547   8.326  17.469  0.00  0.00    +0.000 HD
ATOM     12  H   UNL     1       7.469   8.249  18.818  0.00  0.00    +0.000 HD
ENDROOT
BRANCH   1  15
ATOM     13  C   UNL     1       2.240   3.388  20.172  0.00  0.00    +0.000 C 
ATOM     14  O   UNL     1       3.552   3.342  19.558  0.00  0.00    +0.000 OA
ATOM     15  C   UNL     1       3.871   4.654  19.062  0.00  0.00    +0.000 C 
ATOM     16  C   UNL     1       2.558   5.408  18.934  0.00  0.00    +0.000 C 
ATOM     17  C   UNL     1       1.791   4.866  20.114  0.00  0.00    +0.000 C 
BRANCH  13  19
ATOM     18  C   UNL     1       1.244   2.373  22.128  0.00  0.00    +0.000 C 
ATOM     19  O   UNL     1       2.402   2.928  21.517  0.00  0.00    +0.000 OA
ENDBRANCH  13  19
BRANCH  17  20
ATOM     20  O   UNL     1       2.207   5.616  21.264  0.00  0.00    +0.000 OA
ATOM     21  H   UNL     1       1.824   5.183  22.054  0.00  0.00    +0.000 HD
ENDBRANCH  17  20
BRANCH  13  22
ATOM     22  C   UNL     1       1.342   2.458  19.317  0.00  0.00    +0.000 C 
BRANCH  22  23
ATOM     23  O   UNL     1       2.122   1.500  18.593  0.00  0.00    +0.000 OA
ATOM     24  H   UNL     1       2.824   1.188  19.199  0.00  0.00    +0.000 HD
ENDBRANCH  22  23
ENDBRANCH  13  22
ENDBRANCH   1  15
BRANCH   5  25
ATOM     25  O   UNL     1       7.505   5.211  14.323  0.00  0.00    +0.000 OA
ATOM     26  H   UNL     1       6.744   5.417  13.750  0.00  0.00    +0.000 HD
ENDBRANCH   5  25
TORSDOF 6
ENDMDL
MODEL 2
REMARK VINA RESULT:      -6.9      2.332      6.069
REMARK  Name = 
REMARK  7 active torsions:
REMARK  status: ('A' for Active; 'I' for Inactive)
REMARK    1  A    between atoms: C_1  and  O_2
REMARK    2  A    between atoms: O_2  and  C_3
REMARK    3  A    between atoms: C_3  and  C_4
REMARK    4  A    between atoms: C_4  and  O_5
REMARK    5  A    between atoms: C_7  and  N_8
REMARK    6  A    between atoms: C_12  and  O_13
REMARK    7  A    between atoms: C_20  and  O_21
REMARK                            x       y       z     vdW  Elec       q    Type
REMARK                         _______ _______ _______ _____ _____    ______ ____
ROOT
ATOM      1  N   UNL     1       3.869   5.835  18.620  0.00  0.00    +0.000 N 
ATOM      2  C   UNL     1       2.713   6.514  18.902  0.00  0.00    +0.000 A 
ATOM      3  N   UNL     1       1.904   5.816  19.674  0.00  0.00    +0.000 NA
ATOM      4  C   UNL     1       2.583   4.643  19.909  0.00  0.00    +0.000 A 
ATOM      5  C   UNL     1       2.285   3.503  20.645  0.00  0.00    +0.000 A 
ATOM      6  N   UNL     1       3.159   2.479  20.704  0.00  0.00    +0.000 NA
ATOM      7  C   UNL     1       4.321   2.604  20.040  0.00  0.00    +0.000 A 
ATOM      8  N   UNL     1       5.189   1.535  20.127  0.00  0.00    +0.000 N 
ATOM      9  N   UNL     1       4.707   3.637  19.268  0.00  0.00    +0.000 NA
ATOM     10  C   UNL     1       3.802   4.627  19.260  0.00  0.00    +0.000 A 
ATOM     11  H   UNL     1       4.676   0.706  20.397  0.00  0.00    +0.000 HD
ATOM     12  H   UNL     1       5.773   1.480  19.308  0.00  0.00    +0.000 HD
ENDROOT
BRANCH   1  15
ATOM     13  C   UNL     1       6.267   5.271  16.100  0.00  0.00    +0.000 C 
ATOM     14  O   UNL     1       4.910   5.558  16.522  0.00  0.00    +0.000 OA
ATOM     15  C   UNL     1       4.960   6.266  17.773  0.00  0.00    +0.000 C 
ATOM     16  C   UNL     1       6.329   5.996  18.376  0.00  0.00    +0.000 C 
ATOM     17  C   UNL     1       7.190   5.944  17.140  0.00  0.00    +0.000 C 
BRANCH  13  19
ATOM     18  C   UNL     1       7.068   5.024  13.831  0.00  0.00    +0.000 C 
ATOM     19  O   UNL     1       6.419   5.842  14.797  0.00  0.00    +0.000 OA
ENDBRANCH  13  19
BRANCH  17  20
ATOM     20  O   UNL     1       7.515   7.298  16.798  0.00  0.00    +0.000 OA
ATOM     21  H   UNL     1       6.845   7.878  17.215  0.00  0.00    +0.000 HD
ENDBRANCH  17  20
BRANCH  13  22
ATOM     22  C   UNL     1       6.391   3.726  16.102  0.00  0.00    +0.000 C 
BRANCH  22  23
ATOM     23  O   UNL     1       5.180   3.106  16.551  0.00  0.00    +0.000 OA
ATOM     24  H   UNL     1       4.640   2.927  15.755  0.00  0.00    +0.000 HD
ENDBRANCH  22  23
ENDBRANCH  13  22
ENDBRANCH   1  15
BRANCH   5  25
ATOM     25  O   UNL     1       1.104   3.361  21.332  0.00  0.00    +0.000 OA
ATOM     26  H   UNL     1       1.377   3.143  22.242  0.00  0.00    +0.000 HD
ENDBRANCH   5  25
TORSDOF 6
ENDMDL
MODEL 3
REMARK VINA RESULT:      -6.9      2.488      6.072
REMARK  Name = 
REMARK  7 active torsions:
REMARK  status: ('A' for Active; 'I' for Inactive)
REMARK    1  A    between atoms: C_1  and  O_2
REMARK    2  A    between atoms: O_2  and  C_3
REMARK    3  A    between atoms: C_3  and  C_4
REMARK    4  A    between atoms: C_4  and  O_5
REMARK    5  A    between atoms: C_7  and  N_8
REMARK    6  A    between atoms: C_12  and  O_13
REMARK    7  A    between atoms: C_20  and  O_21
REMARK                            x       y       z     vdW  Elec       q    Type
REMARK                         _______ _______ _______ _____ _____    ______ ____
ROOT
ATOM      1  N   UNL     1       3.542   4.033  17.757  0.00  0.00    +0.000 N 
ATOM      2  C   UNL     1       3.394   2.671  17.751  0.00  0.00    +0.000 A 
ATOM      3  N   UNL     1       2.678   2.246  18.773  0.00  0.00    +0.000 NA
ATOM      4  C   UNL     1       2.339   3.392  19.453  0.00  0.00    +0.000 A 
ATOM      5  C   UNL     1       1.595   3.631  20.603  0.00  0.00    +0.000 A 
ATOM      6  N   UNL     1       1.417   4.889  21.053  0.00  0.00    +0.000 NA
ATOM      7  C   UNL     1       1.973   5.892  20.353  0.00  0.00    +0.000 A 
ATOM      8  N   UNL     1       1.767   7.165  20.847  0.00  0.00    +0.000 N 
ATOM      9  N   UNL     1       2.741   5.787  19.252  0.00  0.00    +0.000 NA
ATOM     10  C   UNL     1       2.869   4.514  18.847  0.00  0.00    +0.000 A 
ATOM     11  H   UNL     1       1.517   7.111  21.825  0.00  0.00    +0.000 HD
ATOM     12  H   UNL     1       2.524   7.777  20.589  0.00  0.00    +0.000 HD
ENDROOT
BRANCH   1  15
ATOM     13  C   UNL     1       6.562   5.362  16.520  0.00  0.00    +0.000 C 
ATOM     14  O   UNL     1       5.608   4.278  16.646  0.00  0.00    +0.000 OA
ATOM     15  C   UNL     1       4.296   4.842  16.824  0.00  0.00    +0.000 C 
ATOM     16  C   UNL     1       4.493   6.273  17.295  0.00  0.00    +0.000 C 
ATOM     17  C   UNL     1       5.733   6.666  16.533  0.00  0.00    +0.000 C 
BRANCH  13  19
ATOM     18  C   UNL     1       6.694   4.170  14.420  0.00  0.00    +0.000 C 
ATOM     19  O   UNL     1       7.239   5.168  15.273  0.00  0.00    +0.000 OA
ENDBRANCH  13  19
BRANCH  17  20
ATOM     20  O   UNL     1       5.310   7.067  15.222  0.00  0.00    +0.000 OA
ATOM     21  H   UNL     1       5.486   6.321  14.613  0.00  0.00    +0.000 HD
ENDBRANCH  17  20
BRANCH  13  22
ATOM     22  C   UNL     1       7.503   5.240  17.746  0.00  0.00    +0.000 C 
BRANCH  22  23
ATOM     23  O   UNL     1       8.270   4.032  17.697  0.00  0.00    +0.000 OA
ATOM     24  H   UNL     1       8.376   3.725  18.619  0.00  0.00    +0.000 HD
ENDBRANCH  22  23
ENDBRANCH  13  22
ENDBRANCH   1  15
BRANCH   5  25
ATOM     25  O   UNL     1       1.018   2.617  21.326  0.00  0.00    +0.000 OA
ATOM     26  H   UNL     1       0.092   2.900  21.446  0.00  0.00    +0.000 HD
ENDBRANCH   5  25
TORSDOF 6
ENDMDL
MODEL 4
REMARK VINA RESULT:      -6.9      2.614      6.045
REMARK  Name = 
REMARK  7 active torsions:
REMARK  status: ('A' for Active; 'I' for Inactive)
REMARK    1  A    between atoms: C_1  and  O_2
REMARK    2  A    between atoms: O_2  and  C_3
REMARK    3  A    between atoms: C_3  and  C_4
REMARK    4  A    between atoms: C_4  and  O_5
REMARK    5  A    between atoms: C_7  and  N_8
REMARK    6  A    between atoms: C_12  and  O_13
REMARK    7  A    between atoms: C_20  and  O_21
REMARK                            x       y       z     vdW  Elec       q    Type
REMARK                         _______ _______ _______ _____ _____    ______ ____
ROOT
ATOM      1  N   UNL     1       3.290   5.162  18.683  0.00  0.00    +0.000 N 
ATOM      2  C   UNL     1       2.219   5.823  19.224  0.00  0.00    +0.000 A 
ATOM      3  N   UNL     1       1.741   5.205  20.287  0.00  0.00    +0.000 NA
ATOM      4  C   UNL     1       2.557   4.108  20.440  0.00  0.00    +0.000 A 
ATOM      5  C   UNL     1       2.590   3.070  21.364  0.00  0.00    +0.000 A 
ATOM      6  N   UNL     1       3.526   2.105  21.273  0.00  0.00    +0.000 NA
ATOM      7  C   UNL     1       4.420   2.187  20.273  0.00  0.00    +0.000 A 
ATOM      8  N   UNL     1       5.361   1.179  20.215  0.00  0.00    +0.000 N 
ATOM      9  N   UNL     1       4.468   3.117  19.300  0.00  0.00    +0.000 NA
ATOM     10  C   UNL     1       3.521   4.055  19.453  0.00  0.00    +0.000 A 
ATOM     11  H   UNL     1       5.026   0.374  20.728  0.00  0.00    +0.000 HD
ATOM     12  H   UNL     1       5.676   1.035  19.269  0.00  0.00    +0.000 HD
ENDROOT
BRANCH   1  15
ATOM     13  C   UNL     1       6.304   5.557  16.900  0.00  0.00    +0.000 C 
ATOM     14  O   UNL     1       5.237   4.728  17.425  0.00  0.00    +0.000 OA
ATOM     15  C   UNL     1       4.036   5.517  17.496  0.00  0.00    +0.000 C 
ATOM     16  C   UNL     1       4.466   6.974  17.471  0.00  0.00    +0.000 C 
ATOM     17  C   UNL     1       5.657   6.915  16.547  0.00  0.00    +0.000 C 
BRANCH  13  19
ATOM     18  C   UNL     1       6.201   3.640  15.429  0.00  0.00    +0.000 C 
ATOM     19  O   UNL     1       6.810   4.887  15.741  0.00  0.00    +0.000 OA
ENDBRANCH  13  19
BRANCH  17  20
ATOM     20  O   UNL     1       5.149   6.956  15.207  0.00  0.00    +0.000 OA
ATOM     21  H   UNL     1       5.339   7.845  14.845  0.00  0.00    +0.000 HD
ENDBRANCH  17  20
BRANCH  13  22
ATOM     22  C   UNL     1       7.349   5.671  18.039  0.00  0.00    +0.000 C 
BRANCH  22  23
ATOM     23  O   UNL     1       7.156   4.653  19.028  0.00  0.00    +0.000 OA
ATOM     24  H   UNL     1       7.770   4.851  19.763  0.00  0.00    +0.000 HD
ENDBRANCH  22  23
ENDBRANCH  13  22
ENDBRANCH   1  15
BRANCH   5  25
ATOM     25  O   UNL     1       1.687   2.976  22.393  0.00  0.00    +0.000 OA
ATOM     26  H   UNL     1       1.983   3.643  23.039  0.00  0.00    +0.000 HD
ENDBRANCH   5  25
TORSDOF 6
ENDMDL
MODEL 5
REMARK VINA RESULT:      -6.9      2.622      5.998
REMARK  Name = 
REMARK  7 active torsions:
REMARK  status: ('A' for Active; 'I' for Inactive)
REMARK    1  A    between atoms: C_1  and  O_2
REMARK    2  A    between atoms: O_2  and  C_3
REMARK    3  A    between atoms: C_3  and  C_4
REMARK    4  A    between atoms: C_4  and  O_5
REMARK    5  A    between atoms: C_7  and  N_8
REMARK    6  A    between atoms: C_12  and  O_13
REMARK    7  A    between atoms: C_20  and  O_21
REMARK                            x       y       z     vdW  Elec       q    Type
REMARK                         _______ _______ _______ _____ _____    ______ ____
ROOT
ATOM      1  N   UNL     1       4.119   3.422  18.153  0.00  0.00    +0.000 N 
ATOM      2  C   UNL     1       3.614   2.206  17.776  0.00  0.00    +0.000 A 
ATOM      3  N   UNL     1       2.417   1.987  18.284  0.00  0.00    +0.000 NA
ATOM      4  C   UNL     1       2.139   3.125  19.006  0.00  0.00    +0.000 A 
ATOM      5  C   UNL     1       1.047   3.525  19.767  0.00  0.00    +0.000 A 
ATOM      6  N   UNL     1       1.044   4.726  20.378  0.00  0.00    +0.000 NA
ATOM      7  C   UNL     1       2.119   5.516  20.219  0.00  0.00    +0.000 A 
ATOM      8  N   UNL     1       2.075   6.738  20.860  0.00  0.00    +0.000 N 
ATOM      9  N   UNL     1       3.246   5.228  19.542  0.00  0.00    +0.000 NA
ATOM     10  C   UNL     1       3.183   4.027  18.947  0.00  0.00    +0.000 A 
ATOM     11  H   UNL     1       1.395   6.702  21.608  0.00  0.00    +0.000 HD
ATOM     12  H   UNL     1       3.003   7.058  21.086  0.00  0.00    +0.000 HD
ENDROOT
BRANCH   1  15
ATOM     13  C   UNL     1       6.229   6.111  17.295  0.00  0.00    +0.000 C 
ATOM     14  O   UNL     1       5.480   5.345  18.271  0.00  0.00    +0.000 OA
ATOM     15  C   UNL     1       5.415   3.978  17.827  0.00  0.00    +0.000 C 
ATOM     16  C   UNL     1       5.705   3.985  16.336  0.00  0.00    +0.000 C 
ATOM     17  C   UNL     1       6.721   5.096  16.239  0.00  0.00    +0.000 C 
BRANCH  13  19
ATOM     18  C   UNL     1       7.683   8.024  17.564  0.00  0.00    +0.000 C 
ATOM     19  O   UNL     1       7.314   6.722  17.999  0.00  0.00    +0.000 OA
ENDBRANCH  13  19
BRANCH  17  20
ATOM     20  O   UNL     1       7.995   4.527  16.569  0.00  0.00    +0.000 OA
ATOM     21  H   UNL     1       8.128   3.745  15.996  0.00  0.00    +0.000 HD
ENDBRANCH  17  20
BRANCH  13  22
ATOM     22  C   UNL     1       5.228   7.141  16.711  0.00  0.00    +0.000 C 
BRANCH  22  23
ATOM     23  O   UNL     1       4.046   7.234  17.514  0.00  0.00    +0.000 OA
ATOM     24  H   UNL     1       3.698   8.141  17.405  0.00  0.00    +0.000 HD
ENDBRANCH  22  23
ENDBRANCH  13  22
ENDBRANCH   1  15
BRANCH   5  25
ATOM     25  O   UNL     1      -0.060   2.731  19.935  0.00  0.00    +0.000 OA
ATOM     26  H   UNL     1      -0.809   3.355  19.940  0.00  0.00    +0.000 HD
ENDBRANCH   5  25
TORSDOF 6
ENDMDL
MODEL 6
REMARK VINA RESULT:      -6.9      1.896      2.757
REMARK  Name = 
REMARK  7 active torsions:
REMARK  status: ('A' for Active; 'I' for Inactive)
REMARK    1  A    between atoms: C_1  and  O_2
REMARK    2  A    between atoms: O_2  and  C_3
REMARK    3  A    between atoms: C_3  and  C_4
REMARK    4  A    between atoms: C_4  and  O_5
REMARK    5  A    between atoms: C_7  and  N_8
REMARK    6  A    between atoms: C_12  and  O_13
REMARK    7  A    between atoms: C_20  and  O_21
REMARK                            x       y       z     vdW  Elec       q    Type
REMARK                         _______ _______ _______ _____ _____    ______ ____
ROOT
ATOM      1  N   UNL     1       3.707   5.447  17.900  0.00  0.00    +0.000 N 
ATOM      2  C   UNL     1       3.204   6.702  17.680  0.00  0.00    +0.000 A 
ATOM      3  N   UNL     1       4.156   7.581  17.435  0.00  0.00    +0.000 NA
ATOM      4  C   UNL     1       5.319   6.849  17.485  0.00  0.00    +0.000 A 
ATOM      5  C   UNL     1       6.658   7.177  17.310  0.00  0.00    +0.000 A 
ATOM      6  N   UNL     1       7.613   6.233  17.416  0.00  0.00    +0.000 NA
ATOM      7  C   UNL     1       7.227   4.974  17.687  0.00  0.00    +0.000 A 
ATOM      8  N   UNL     1       8.235   4.037  17.787  0.00  0.00    +0.000 N 
ATOM      9  N   UNL     1       5.972   4.541  17.913  0.00  0.00    +0.000 NA
ATOM     10  C   UNL     1       5.068   5.523  17.779  0.00  0.00    +0.000 A 
ATOM     11  H   UNL     1       9.113   4.504  17.969  0.00  0.00    +0.000 HD
ATOM     12  H   UNL     1       7.967   3.286  18.402  0.00  0.00    +0.000 HD
ENDROOT
BRANCH   1  15
ATOM     13  C   UNL     1       3.202   2.543  19.832  0.00  0.00    +0.000 C 
ATOM     14  O   UNL     1       3.111   3.978  19.647  0.00  0.00    +0.000 OA
ATOM     15  C   UNL     1       2.970   4.250  18.241  0.00  0.00    +0.000 C 
ATOM     16  C   UNL     1       3.460   3.015  17.503  0.00  0.00    +0.000 C 
ATOM     17  C   UNL     1       3.006   1.917  18.433  0.00  0.00    +0.000 C 
BRANCH  13  19
ATOM     18  C   UNL     1       1.688   3.213  21.595  0.00  0.00    +0.000 C 
ATOM     19  O   UNL     1       2.152   2.180  20.735  0.00  0.00    +0.000 OA
ENDBRANCH  13  19
BRANCH  17  20
ATOM     20  O   UNL     1       1.629   1.654  18.132  0.00  0.00    +0.000 OA
ATOM     21  H   UNL     1       1.568   0.732  17.808  0.00  0.00    +0.000 HD
ENDBRANCH  17  20
BRANCH  13  22
ATOM     22  C   UNL     1       4.616   2.282  20.411  0.00  0.00    +0.000 C 
BRANCH  22  23
ATOM     23  O   UNL     1       5.197   1.097  19.856  0.00  0.00    +0.000 OA
ATOM     24  H   UNL     1       4.499   0.657  19.331  0.00  0.00    +0.000 HD
ENDBRANCH  22  23
ENDBRANCH  13  22
ENDBRANCH   1  15
BRANCH   5  25
ATOM     25  O   UNL     1       7.068   8.457  17.029  0.00  0.00    +0.000 OA
ATOM     26  H   UNL     1       7.428   8.405  16.124  0.00  0.00    +0.000 HD
ENDBRANCH   5  25
TORSDOF 6
ENDMDL
MODEL 7
REMARK VINA RESULT:      -6.8      1.912      2.796
REMARK  Name = 
REMARK  7 active torsions:
REMARK  status: ('A' for Active; 'I' for Inactive)
REMARK    1  A    between atoms: C_1  and  O_2
REMARK    2  A    between atoms: O_2  and  C_3
REMARK    3  A    between atoms: C_3  and  C_4
REMARK    4  A    between atoms: C_4  and  O_5
REMARK    5  A    between atoms: C_7  and  N_8
REMARK    6  A    between atoms: C_12  and  O_13
REMARK    7  A    between atoms: C_20  and  O_21
REMARK                            x       y       z     vdW  Elec       q    Type
REMARK                         _______ _______ _______ _____ _____    ______ ____
ROOT
ATOM      1  N   UNL     1       4.710   5.339  17.197  0.00  0.00    +0.000 N 
ATOM      2  C   UNL     1       4.601   6.194  16.132  0.00  0.00    +0.000 A 
ATOM      3  N   UNL     1       5.584   7.072  16.100  0.00  0.00    +0.000 NA
ATOM      4  C   UNL     1       6.365   6.752  17.185  0.00  0.00    +0.000 A 
ATOM      5  C   UNL     1       7.541   7.284  17.701  0.00  0.00    +0.000 A 
ATOM      6  N   UNL     1       8.104   6.756  18.806  0.00  0.00    +0.000 NA
ATOM      7  C   UNL     1       7.498   5.701  19.378  0.00  0.00    +0.000 A 
ATOM      8  N   UNL     1       8.106   5.189  20.506  0.00  0.00    +0.000 N 
ATOM      9  N   UNL     1       6.344   5.123  18.997  0.00  0.00    +0.000 NA
ATOM     10  C   UNL     1       5.841   5.684  17.887  0.00  0.00    +0.000 A 
ATOM     11  H   UNL     1       8.718   5.888  20.907  0.00  0.00    +0.000 HD
ATOM     12  H   UNL     1       7.430   4.754  21.113  0.00  0.00    +0.000 HD
ENDROOT
BRANCH   1  15
ATOM     13  C   UNL     1       3.491   2.944  19.477  0.00  0.00    +0.000 C 
ATOM     14  O   UNL     1       3.591   4.309  19.000  0.00  0.00    +0.000 OA
ATOM     15  C   UNL     1       3.798   4.282  17.576  0.00  0.00    +0.000 C 
ATOM     16  C   UNL     1       4.311   2.894  17.233  0.00  0.00    +0.000 C 
ATOM     17  C   UNL     1       3.552   2.046  18.222  0.00  0.00    +0.000 C 
BRANCH  13  19
ATOM     18  C   UNL     1       2.281   2.934  21.571  0.00  0.00    +0.000 C 
ATOM     19  O   UNL     1       2.234   2.838  20.153  0.00  0.00    +0.000 OA
ENDBRANCH  13  19
BRANCH  17  20
ATOM     20  O   UNL     1       2.258   1.799  17.654  0.00  0.00    +0.000 OA
ATOM     21  H   UNL     1       1.849   2.667  17.460  0.00  0.00    +0.000 HD
ENDBRANCH  17  20
BRANCH  13  22
ATOM     22  C   UNL     1       4.705   2.737  20.418  0.00  0.00    +0.000 C 
BRANCH  22  23
ATOM     23  O   UNL     1       5.285   1.439  20.246  0.00  0.00    +0.000 OA
ATOM     24  H   UNL     1       4.754   0.979  19.566  0.00  0.00    +0.000 HD
ENDBRANCH  22  23
ENDBRANCH  13  22
ENDBRANCH   1  15
BRANCH   5  25
ATOM     25  O   UNL     1       8.174   8.358  17.126  0.00  0.00    +0.000 OA
ATOM     26  H   UNL     1       8.577   7.997  16.314  0.00  0.00    +0.000 HD
ENDBRANCH   5  25
TORSDOF 6
ENDMDL
MODEL 8
REMARK VINA RESULT:      -6.8      1.264      1.271
REMARK  Name = 
REMARK  7 active torsions:
REMARK  status: ('A' for Active; 'I' for Inactive)
REMARK    1  A    between atoms: C_1  and  O_2
REMARK    2  A    between atoms: O_2  and  C_3
REMARK    3  A    between atoms: C_3  and  C_4
REMARK    4  A    between atoms: C_4  and  O_5
REMARK    5  A    between atoms: C_7  and  N_8
REMARK    6  A    between atoms: C_12  and  O_13
REMARK    7  A    between atoms: C_20  and  O_21
REMARK                            x       y       z     vdW  Elec       q    Type
REMARK                         _______ _______ _______ _____ _____    ______ ____
ROOT
ATOM      1  N   UNL     1       4.112   4.403  18.058  0.00  0.00    +0.000 N 
ATOM      2  C   UNL     1       3.819   4.070  16.762  0.00  0.00    +0.000 A 
ATOM      3  N   UNL     1       4.884   4.119  15.986  0.00  0.00    +0.000 NA
ATOM      4  C   UNL     1       5.907   4.484  16.830  0.00  0.00    +0.000 A 
ATOM      5  C   UNL     1       7.266   4.700  16.640  0.00  0.00    +0.000 A 
ATOM      6  N   UNL     1       8.053   5.056  17.674  0.00  0.00    +0.000 NA
ATOM      7  C   UNL     1       7.483   5.185  18.884  0.00  0.00    +0.000 A 
ATOM      8  N   UNL     1       8.323   5.550  19.916  0.00  0.00    +0.000 N 
ATOM      9  N   UNL     1       6.179   5.040  19.186  0.00  0.00    +0.000 NA
ATOM     10  C   UNL     1       5.452   4.673  18.120  0.00  0.00    +0.000 A 
ATOM     11  H   UNL     1       9.156   5.981  19.537  0.00  0.00    +0.000 HD
ATOM     12  H   UNL     1       7.818   6.052  20.629  0.00  0.00    +0.000 HD
ENDROOT
BRANCH   1  15
ATOM     13  C   UNL     1       1.354   3.261  19.932  0.00  0.00    +0.000 C 
ATOM     14  O   UNL     1       2.751   3.185  19.551  0.00  0.00    +0.000 OA
ATOM     15  C   UNL     1       3.193   4.501  19.172  0.00  0.00    +0.000 C 
ATOM     16  C   UNL     1       1.947   5.309  18.851  0.00  0.00    +0.000 C 
ATOM     17  C   UNL     1       0.970   4.756  19.859  0.00  0.00    +0.000 C 
BRANCH  13  19
ATOM     18  C   UNL     1       2.486   2.301  21.841  0.00  0.00    +0.000 C 
ATOM     19  O   UNL     1       1.265   2.749  21.265  0.00  0.00    +0.000 OA
ENDBRANCH  13  19
BRANCH  17  20
ATOM     20  O   UNL     1       1.204   5.449  21.092  0.00  0.00    +0.000 OA
ATOM     21  H   UNL     1       0.560   5.111  21.748  0.00  0.00    +0.000 HD
ENDBRANCH  17  20
BRANCH  13  22
ATOM     22  C   UNL     1       0.588   2.397  18.898  0.00  0.00    +0.000 C 
BRANCH  22  23
ATOM     23  O   UNL     1       1.489   1.712  18.020  0.00  0.00    +0.000 OA
ATOM     24  H   UNL     1       2.266   2.294  17.900  0.00  0.00    +0.000 HD
ENDBRANCH  22  23
ENDBRANCH  13  22
ENDBRANCH   1  15
BRANCH   5  25
ATOM     25  O   UNL     1       7.864   4.568  15.411  0.00  0.00    +0.000 OA
ATOM     26  H   UNL     1       7.958   3.605  15.288  0.00  0.00    +0.000 HD
ENDBRANCH   5  25
TORSDOF 6
ENDMDL
MODEL 9
REMARK VINA RESULT:      -6.7      1.917      2.148
REMARK  Name = 
REMARK  7 active torsions:
REMARK  status: ('A' for Active; 'I' for Inactive)
REMARK    1  A    between atoms: C_1  and  O_2
REMARK    2  A    between atoms: O_2  and  C_3
REMARK    3  A    between atoms: C_3  and  C_4
REMARK    4  A    between atoms: C_4  and  O_5
REMARK    5  A    between atoms: C_7  and  N_8
REMARK    6  A    between atoms: C_12  and  O_13
REMARK    7  A    between atoms: C_20  and  O_21
REMARK                            x       y       z     vdW  Elec       q    Type
REMARK                         _______ _______ _______ _____ _____    ______ ____
ROOT
ATOM      1  N   UNL     1       4.259   5.693  18.218  0.00  0.00    +0.000 N 
ATOM      2  C   UNL     1       4.052   6.339  17.028  0.00  0.00    +0.000 A 
ATOM      3  N   UNL     1       5.153   6.904  16.573  0.00  0.00    +0.000 NA
ATOM      4  C   UNL     1       6.111   6.590  17.509  0.00  0.00    +0.000 A 
ATOM      5  C   UNL     1       7.467   6.877  17.616  0.00  0.00    +0.000 A 
ATOM      6  N   UNL     1       8.180   6.427  18.667  0.00  0.00    +0.000 NA
ATOM      7  C   UNL     1       7.540   5.693  19.594  0.00  0.00    +0.000 A 
ATOM      8  N   UNL     1       8.306   5.251  20.653  0.00  0.00    +0.000 N 
ATOM      9  N   UNL     1       6.231   5.382  19.621  0.00  0.00    +0.000 NA
ATOM     10  C   UNL     1       5.580   5.846  18.543  0.00  0.00    +0.000 A 
ATOM     11  H   UNL     1       9.136   5.824  20.732  0.00  0.00    +0.000 HD
ATOM     12  H   UNL     1       7.741   5.129  21.478  0.00  0.00    +0.000 HD
ENDROOT
BRANCH   1  15
ATOM     13  C   UNL     1       2.491   2.800  19.179  0.00  0.00    +0.000 C 
ATOM     14  O   UNL     1       3.678   3.633  19.207  0.00  0.00    +0.000 OA
ATOM     15  C   UNL     1       3.279   5.004  19.029  0.00  0.00    +0.000 C 
ATOM     16  C   UNL     1       1.894   4.981  18.405  0.00  0.00    +0.000 C 
ATOM     17  C   UNL     1       1.291   3.768  19.068  0.00  0.00    +0.000 C 
BRANCH  13  19
ATOM     18  C   UNL     1       3.635   2.198  21.223  0.00  0.00    +0.000 C 
ATOM     19  O   UNL     1       2.477   2.067  20.408  0.00  0.00    +0.000 OA
ENDBRANCH  13  19
BRANCH  17  20
ATOM     20  O   UNL     1       0.800   4.191  20.347  0.00  0.00    +0.000 OA
ATOM     21  H   UNL     1       1.145   5.092  20.514  0.00  0.00    +0.000 HD
ENDBRANCH  17  20
BRANCH  13  22
ATOM     22  C   UNL     1       2.643   1.892  17.933  0.00  0.00    +0.000 C 
BRANCH  22  23
ATOM     23  O   UNL     1       4.002   1.481  17.749  0.00  0.00    +0.000 OA
ATOM     24  H   UNL     1       4.128   0.668  18.279  0.00  0.00    +0.000 HD
ENDBRANCH  22  23
ENDBRANCH  13  22
ENDBRANCH   1  15
BRANCH   5  25
ATOM     25  O   UNL     1       8.135   7.621  16.675  0.00  0.00    +0.000 OA
ATOM     26  H   UNL     1       8.609   6.962  16.134  0.00  0.00    +0.000 HD
ENDBRANCH   5  25
TORSDOF 6
ENDMDL
