MODEL 1
REMARK VINA RESULT:      -7.6      0.000      0.000
REMARK  Name = 
REMARK  4 active torsions:
REMARK  status: ('A' for Active; 'I' for Inactive)
REMARK    1  A    between atoms: C_1  and  C_2
REMARK    2  A    between atoms: C_8  and  C_9
REMARK    3  A    between atoms: C_12  and  O_13
REMARK    4  A    between atoms: C_15  and  O_16
REMARK                            x       y       z     vdW  Elec       q    Type
REMARK                         _______ _______ _______ _____ _____    ______ ____
ROOT
ATOM      1  C   UNL     1       7.459   6.960  17.473  0.00  0.00    +0.000 C 
ATOM      2  C   UNL     1       6.812   5.923  16.608  0.00  0.00    +0.000 A 
ATOM      3  C   UNL     1       7.238   5.700  15.285  0.00  0.00    +0.000 A 
ATOM      4  C   UNL     1       6.635   4.739  14.468  0.00  0.00    +0.000 A 
ATOM      5  C   UNL     1       5.576   3.955  14.940  0.00  0.00    +0.000 A 
ATOM      6  C   UNL     1       5.136   4.147  16.257  0.00  0.00    +0.000 A 
ATOM      7  N   UNL     1       4.143   3.500  16.957  0.00  0.00    +0.000 NA
ATOM      8  C   UNL     1       4.150   4.029  18.170  0.00  0.00    +0.000 A 
ATOM      9  N   UNL     1       5.097   5.024  18.238  0.00  0.00    +0.000 N 
ATOM     10  C   UNL     1       5.755   5.111  17.042  0.00  0.00    +0.000 A 
ATOM     11  H   UNL     1       5.281   5.562  19.073  0.00  0.00    +0.000 HD
ENDROOT
BRANCH   8  12
ATOM     12  C   UNL     1       3.320   3.634  19.315  0.00  0.00    +0.000 A 
ATOM     13  C   UNL     1       2.031   4.180  19.441  0.00  0.00    +0.000 A 
ATOM     14  C   UNL     1       1.186   3.803  20.490  0.00  0.00    +0.000 A 
ATOM     15  C   UNL     1       1.631   2.877  21.424  0.00  0.00    +0.000 A 
ATOM     16  C   UNL     1       2.905   2.330  21.337  0.00  0.00    +0.000 A 
ATOM     17  C   UNL     1       3.743   2.707  20.286  0.00  0.00    +0.000 A 
BRANCH  15  18
ATOM     18  O   UNL     1       0.838   2.465  22.454  0.00  0.00    +0.000 OA
ATOM     19  H   UNL     1       1.314   2.607  23.289  0.00  0.00    +0.000 HD
ENDBRANCH  15  18
BRANCH  17  20
ATOM     20  O   UNL     1       4.996   2.147  20.210  0.00  0.00    +0.000 OA
ATOM     21  H   UNL     1       5.155   1.649  21.031  0.00  0.00    +0.000 HD
ENDBRANCH  17  20
ENDBRANCH   8  12
TORSDOF 3
ENDMDL
MODEL 2
REMARK VINA RESULT:      -7.5      2.401      6.305
REMARK  Name = 
REMARK  4 active torsions:
REMARK  status: ('A' for Active; 'I' for Inactive)
REMARK    1  A    between atoms: C_1  and  C_2
REMARK    2  A    between atoms: C_8  and  C_9
REMARK    3  A    between atoms: C_12  and  O_13
REMARK    4  A    between atoms: C_15  and  O_16
REMARK                            x       y       z     vdW  Elec       q    Type
REMARK                         _______ _______ _______ _____ _____    ______ ____
ROOT
ATOM      1  C   UNL     1       1.833   6.323  20.498  0.00  0.00    +0.000 C 
ATOM      2  C   UNL     1       1.872   4.884  20.089  0.00  0.00    +0.000 A 
ATOM      3  C   UNL     1       1.000   3.935  20.654  0.00  0.00    +0.000 A 
ATOM      4  C   UNL     1       1.035   2.587  20.283  0.00  0.00    +0.000 A 
ATOM      5  C   UNL     1       1.947   2.128  19.326  0.00  0.00    +0.000 A 
ATOM      6  C   UNL     1       2.822   3.051  18.737  0.00  0.00    +0.000 A 
ATOM      7  N   UNL     1       3.782   2.862  17.769  0.00  0.00    +0.000 NA
ATOM      8  C   UNL     1       4.304   4.055  17.537  0.00  0.00    +0.000 A 
ATOM      9  N   UNL     1       3.724   4.986  18.366  0.00  0.00    +0.000 N 
ATOM     10  C   UNL     1       2.762   4.383  19.129  0.00  0.00    +0.000 A 
ATOM     11  H   UNL     1       3.966   5.967  18.358  0.00  0.00    +0.000 HD
ENDROOT
BRANCH   8  12
ATOM     12  C   UNL     1       5.326   4.398  16.538  0.00  0.00    +0.000 A 
ATOM     13  C   UNL     1       5.130   4.002  15.204  0.00  0.00    +0.000 A 
ATOM     14  C   UNL     1       6.051   4.341  14.208  0.00  0.00    +0.000 A 
ATOM     15  C   UNL     1       7.179   5.077  14.546  0.00  0.00    +0.000 A 
ATOM     16  C   UNL     1       7.410   5.471  15.857  0.00  0.00    +0.000 A 
ATOM     17  C   UNL     1       6.485   5.132  16.847  0.00  0.00    +0.000 A 
BRANCH  15  18
ATOM     18  O   UNL     1       8.097   5.447  13.607  0.00  0.00    +0.000 OA
ATOM     19  H   UNL     1       8.984   5.228  13.937  0.00  0.00    +0.000 HD
ENDBRANCH  15  18
BRANCH  17  20
ATOM     20  O   UNL     1       6.724   5.540  18.139  0.00  0.00    +0.000 OA
ATOM     21  H   UNL     1       6.535   6.493  18.195  0.00  0.00    +0.000 HD
ENDBRANCH  17  20
ENDBRANCH   8  12
TORSDOF 3
ENDMDL
MODEL 3
REMARK VINA RESULT:      -7.3      3.992      5.847
REMARK  Name = 
REMARK  4 active torsions:
REMARK  status: ('A' for Active; 'I' for Inactive)
REMARK    1  A    between atoms: C_1  and  C_2
REMARK    2  A    between atoms: C_8  and  C_9
REMARK    3  A    between atoms: C_12  and  O_13
REMARK    4  A    between atoms: C_15  and  O_16
REMARK                            x       y       z     vdW  Elec       q    Type
REMARK                         _______ _______ _______ _____ _____    ______ ____
ROOT
ATOM      1  C   UNL     1       0.365   9.339  22.443  0.00  0.00    +0.000 C 
ATOM      2  C   UNL     1       0.768   9.492  21.009  0.00  0.00    +0.000 A 
ATOM      3  C   UNL     1       0.512  10.678  20.296  0.00  0.00    +0.000 A 
ATOM      4  C   UNL     1       0.879  10.828  18.955  0.00  0.00    +0.000 A 
ATOM      5  C   UNL     1       1.520   9.792  18.265  0.00  0.00    +0.000 A 
ATOM      6  C   UNL     1       1.798   8.602  18.951  0.00  0.00    +0.000 A 
ATOM      7  N   UNL     1       2.430   7.460  18.514  0.00  0.00    +0.000 NA
ATOM      8  C   UNL     1       2.471   6.645  19.556  0.00  0.00    +0.000 A 
ATOM      9  N   UNL     1       1.842   7.231  20.630  0.00  0.00    +0.000 N 
ATOM     10  C   UNL     1       1.420   8.486  20.283  0.00  0.00    +0.000 A 
ATOM     11  H   UNL     1       1.759   6.791  21.535  0.00  0.00    +0.000 HD
ENDROOT
BRANCH   8  12
ATOM     12  C   UNL     1       3.104   5.322  19.624  0.00  0.00    +0.000 A 
ATOM     13  C   UNL     1       4.389   5.155  19.079  0.00  0.00    +0.000 A 
ATOM     14  C   UNL     1       5.053   3.926  19.156  0.00  0.00    +0.000 A 
ATOM     15  C   UNL     1       4.428   2.854  19.779  0.00  0.00    +0.000 A 
ATOM     16  C   UNL     1       3.153   2.981  20.314  0.00  0.00    +0.000 A 
ATOM     17  C   UNL     1       2.496   4.211  20.237  0.00  0.00    +0.000 A 
BRANCH  15  18
ATOM     18  O   UNL     1       5.041   1.640  19.894  0.00  0.00    +0.000 OA
ATOM     19  H   UNL     1       4.833   1.111  19.107  0.00  0.00    +0.000 HD
ENDBRANCH  15  18
BRANCH  17  20
ATOM     20  O   UNL     1       1.239   4.321  20.782  0.00  0.00    +0.000 OA
ATOM     21  H   UNL     1       0.798   3.457  20.702  0.00  0.00    +0.000 HD
ENDBRANCH  17  20
ENDBRANCH   8  12
TORSDOF 3
ENDMDL
MODEL 4
REMARK VINA RESULT:      -7.2      4.015      5.779
REMARK  Name = 
REMARK  4 active torsions:
REMARK  status: ('A' for Active; 'I' for Inactive)
REMARK    1  A    between atoms: C_1  and  C_2
REMARK    2  A    between atoms: C_8  and  C_9
REMARK    3  A    between atoms: C_12  and  O_13
REMARK    4  A    between atoms: C_15  and  O_16
REMARK                            x       y       z     vdW  Elec       q    Type
REMARK                         _______ _______ _______ _____ _____    ______ ____
ROOT
ATOM      1  C   UNL     1       0.389   9.267  22.393  0.00  0.00    +0.000 C 
ATOM      2  C   UNL     1       0.771   9.405  20.953  0.00  0.00    +0.000 A 
ATOM      3  C   UNL     1       0.466  10.568  20.220  0.00  0.00    +0.000 A 
ATOM      4  C   UNL     1       0.812  10.704  18.872  0.00  0.00    +0.000 A 
ATOM      5  C   UNL     1       1.482   9.678  18.195  0.00  0.00    +0.000 A 
ATOM      6  C   UNL     1       1.808   8.511  18.900  0.00  0.00    +0.000 A 
ATOM      7  N   UNL     1       2.474   7.383  18.477  0.00  0.00    +0.000 NA
ATOM      8  C   UNL     1       2.555   6.591  19.533  0.00  0.00    +0.000 A 
ATOM      9  N   UNL     1       1.918   7.176  20.603  0.00  0.00    +0.000 N 
ATOM     10  C   UNL     1       1.449   8.408  20.238  0.00  0.00    +0.000 A 
ATOM     11  H   UNL     1       1.861   6.751  21.518  0.00  0.00    +0.000 HD
ENDROOT
BRANCH   8  12
ATOM     12  C   UNL     1       3.235   5.292  19.619  0.00  0.00    +0.000 A 
ATOM     13  C   UNL     1       2.644   4.265  20.375  0.00  0.00    +0.000 A 
ATOM     14  C   UNL     1       3.229   2.997  20.453  0.00  0.00    +0.000 A 
ATOM     15  C   UNL     1       4.416   2.752  19.775  0.00  0.00    +0.000 A 
ATOM     16  C   UNL     1       5.033   3.750  19.031  0.00  0.00    +0.000 A 
ATOM     17  C   UNL     1       4.443   5.013  18.954  0.00  0.00    +0.000 A 
BRANCH  15  18
ATOM     18  O   UNL     1       5.015   1.527  19.806  0.00  0.00    +0.000 OA
ATOM     19  H   UNL     1       5.110   1.205  18.895  0.00  0.00    +0.000 HD
ENDBRANCH  15  18
BRANCH  17  20
ATOM     20  O   UNL     1       5.063   5.984  18.205  0.00  0.00    +0.000 OA
ATOM     21  H   UNL     1       4.492   6.188  17.443  0.00  0.00    +0.000 HD
ENDBRANCH  17  20
ENDBRANCH   8  12
TORSDOF 3
ENDMDL
MODEL 5
REMARK VINA RESULT:      -7.2      2.389      6.300
REMARK  Name = 
REMARK  4 active torsions:
REMARK  status: ('A' for Active; 'I' for Inactive)
REMARK    1  A    between atoms: C_1  and  C_2
REMARK    2  A    between atoms: C_8  and  C_9
REMARK    3  A    between atoms: C_12  and  O_13
REMARK    4  A    between atoms: C_15  and  O_16
REMARK                            x       y       z     vdW  Elec       q    Type
REMARK                         _______ _______ _______ _____ _____    ______ ____
ROOT
ATOM      1  C   UNL     1       1.269   5.971  20.449  0.00  0.00    +0.000 C 
ATOM      2  C   UNL     1       1.953   4.648  20.601  0.00  0.00    +0.000 A 
ATOM      3  C   UNL     1       1.545   3.718  21.574  0.00  0.00    +0.000 A 
ATOM      4  C   UNL     1       2.182   2.483  21.729  0.00  0.00    +0.000 A 
ATOM      5  C   UNL     1       3.260   2.123  20.911  0.00  0.00    +0.000 A 
ATOM      6  C   UNL     1       3.683   3.024  19.926  0.00  0.00    +0.000 A 
ATOM      7  N   UNL     1       4.689   2.902  18.994  0.00  0.00    +0.000 NA
ATOM      8  C   UNL     1       4.657   4.013  18.277  0.00  0.00    +0.000 A 
ATOM      9  N   UNL     1       3.681   4.852  18.762  0.00  0.00    +0.000 N 
ATOM     10  C   UNL     1       3.029   4.243  19.800  0.00  0.00    +0.000 A 
ATOM     11  H   UNL     1       3.474   5.757  18.362  0.00  0.00    +0.000 HD
ENDROOT
BRANCH   8  12
ATOM     12  C   UNL     1       5.488   4.343  17.112  0.00  0.00    +0.000 A 
ATOM     13  C   UNL     1       4.867   4.536  15.866  0.00  0.00    +0.000 A 
ATOM     14  C   UNL     1       5.608   4.894  14.736  0.00  0.00    +0.000 A 
ATOM     15  C   UNL     1       6.983   5.055  14.847  0.00  0.00    +0.000 A 
ATOM     16  C   UNL     1       7.630   4.856  16.060  0.00  0.00    +0.000 A 
ATOM     17  C   UNL     1       6.884   4.503  17.186  0.00  0.00    +0.000 A 
BRANCH  15  18
ATOM     18  O   UNL     1       7.747   5.419  13.777  0.00  0.00    +0.000 OA
ATOM     19  H   UNL     1       7.534   4.835  13.031  0.00  0.00    +0.000 HD
ENDBRANCH  15  18
BRANCH  17  20
ATOM     20  O   UNL     1       7.541   4.321  18.380  0.00  0.00    +0.000 OA
ATOM     21  H   UNL     1       8.373   3.851  18.198  0.00  0.00    +0.000 HD
ENDBRANCH  17  20
ENDBRANCH   8  12
TORSDOF 3
ENDMDL
MODEL 6
REMARK VINA RESULT:      -7.2      2.347      6.364
REMARK  Name = 
REMARK  4 active torsions:
REMARK  status: ('A' for Active; 'I' for Inactive)
REMARK    1  A    between atoms: C_1  and  C_2
REMARK    2  A    between atoms: C_8  and  C_9
REMARK    3  A    between atoms: C_12  and  O_13
REMARK    4  A    between atoms: C_15  and  O_16
REMARK                            x       y       z     vdW  Elec       q    Type
REMARK                         _______ _______ _______ _____ _____    ______ ____
ROOT
ATOM      1  C   UNL     1       4.490   1.477  21.412  0.00  0.00    +0.000 C 
ATOM      2  C   UNL     1       3.458   2.379  20.811  0.00  0.00    +0.000 A 
ATOM      3  C   UNL     1       2.213   2.589  21.434  0.00  0.00    +0.000 A 
ATOM      4  C   UNL     1       1.240   3.424  20.876  0.00  0.00    +0.000 A 
ATOM      5  C   UNL     1       1.471   4.089  19.665  0.00  0.00    +0.000 A 
ATOM      6  C   UNL     1       2.705   3.908  19.027  0.00  0.00    +0.000 A 
ATOM      7  N   UNL     1       3.181   4.456  17.858  0.00  0.00    +0.000 NA
ATOM      8  C   UNL     1       4.412   3.993  17.713  0.00  0.00    +0.000 A 
ATOM      9  N   UNL     1       4.709   3.131  18.743  0.00  0.00    +0.000 N 
ATOM     10  C   UNL     1       3.650   3.070  19.607  0.00  0.00    +0.000 A 
ATOM     11  H   UNL     1       5.599   2.663  18.839  0.00  0.00    +0.000 HD
ENDROOT
BRANCH   8  12
ATOM     12  C   UNL     1       5.371   4.336  16.654  0.00  0.00    +0.000 A 
ATOM     13  C   UNL     1       4.896   4.542  15.348  0.00  0.00    +0.000 A 
ATOM     14  C   UNL     1       5.762   4.912  14.314  0.00  0.00    +0.000 A 
ATOM     15  C   UNL     1       7.114   5.073  14.584  0.00  0.00    +0.000 A 
ATOM     16  C   UNL     1       7.619   4.862  15.860  0.00  0.00    +0.000 A 
ATOM     17  C   UNL     1       6.749   4.496  16.890  0.00  0.00    +0.000 A 
BRANCH  15  18
ATOM     18  O   UNL     1       7.995   5.450  13.613  0.00  0.00    +0.000 OA
ATOM     19  H   UNL     1       7.498   5.859  12.885  0.00  0.00    +0.000 HD
ENDBRANCH  15  18
BRANCH  17  20
ATOM     20  O   UNL     1       7.264   4.302  18.150  0.00  0.00    +0.000 OA
ATOM     21  H   UNL     1       7.581   3.384  18.208  0.00  0.00    +0.000 HD
ENDBRANCH  17  20
ENDBRANCH   8  12
TORSDOF 3
ENDMDL
MODEL 7
REMARK VINA RESULT:      -7.2      1.167      1.359
REMARK  Name = 
REMARK  4 active torsions:
REMARK  status: ('A' for Active; 'I' for Inactive)
REMARK    1  A    between atoms: C_1  and  C_2
REMARK    2  A    between atoms: C_8  and  C_9
REMARK    3  A    between atoms: C_12  and  O_13
REMARK    4  A    between atoms: C_15  and  O_16
REMARK                            x       y       z     vdW  Elec       q    Type
REMARK                         _______ _______ _______ _____ _____    ______ ____
ROOT
ATOM      1  C   UNL     1       7.559   6.907  17.540  0.00  0.00    +0.000 C 
ATOM      2  C   UNL     1       6.893   5.921  16.632  0.00  0.00    +0.000 A 
ATOM      3  C   UNL     1       7.349   5.708  15.318  0.00  0.00    +0.000 A 
ATOM      4  C   UNL     1       6.728   4.794  14.460  0.00  0.00    +0.000 A 
ATOM      5  C   UNL     1       5.619   4.051  14.881  0.00  0.00    +0.000 A 
ATOM      6  C   UNL     1       5.147   4.234  16.188  0.00  0.00    +0.000 A 
ATOM      7  N   UNL     1       4.104   3.620  16.842  0.00  0.00    +0.000 NA
ATOM      8  C   UNL     1       4.097   4.121  18.067  0.00  0.00    +0.000 A 
ATOM      9  N   UNL     1       5.087   5.068  18.187  0.00  0.00    +0.000 N 
ATOM     10  C   UNL     1       5.786   5.151  17.014  0.00  0.00    +0.000 A 
ATOM     11  H   UNL     1       5.269   5.578  19.040  0.00  0.00    +0.000 HD
ENDROOT
BRANCH   8  12
ATOM     12  C   UNL     1       3.214   3.740  19.177  0.00  0.00    +0.000 A 
ATOM     13  C   UNL     1       2.711   2.428  19.225  0.00  0.00    +0.000 A 
ATOM     14  C   UNL     1       1.902   2.003  20.284  0.00  0.00    +0.000 A 
ATOM     15  C   UNL     1       1.588   2.895  21.301  0.00  0.00    +0.000 A 
ATOM     16  C   UNL     1       2.056   4.202  21.275  0.00  0.00    +0.000 A 
ATOM     17  C   UNL     1       2.866   4.620  20.218  0.00  0.00    +0.000 A 
BRANCH  15  18
ATOM     18  O   UNL     1       0.816   2.523  22.363  0.00  0.00    +0.000 OA
ATOM     19  H   UNL     1       1.379   2.066  23.010  0.00  0.00    +0.000 HD
ENDBRANCH  15  18
BRANCH  17  20
ATOM     20  O   UNL     1       3.329   5.915  20.215  0.00  0.00    +0.000 OA
ATOM     21  H   UNL     1       3.669   6.116  21.104  0.00  0.00    +0.000 HD
ENDBRANCH  17  20
ENDBRANCH   8  12
TORSDOF 3
ENDMDL
MODEL 8
REMARK VINA RESULT:      -7.1      2.337      6.501
REMARK  Name = 
REMARK  4 active torsions:
REMARK  status: ('A' for Active; 'I' for Inactive)
REMARK    1  A    between atoms: C_1  and  C_2
REMARK    2  A    between atoms: C_8  and  C_9
REMARK    3  A    between atoms: C_12  and  O_13
REMARK    4  A    between atoms: C_15  and  O_16
REMARK                            x       y       z     vdW  Elec       q    Type
REMARK                         _______ _______ _______ _____ _____    ______ ____
ROOT
ATOM      1  C   UNL     1       0.641   1.752  18.525  0.00  0.00    +0.000 C 
ATOM      2  C   UNL     1       1.422   2.621  19.459  0.00  0.00    +0.000 A 
ATOM      3  C   UNL     1       1.050   2.771  20.808  0.00  0.00    +0.000 A 
ATOM      4  C   UNL     1       1.769   3.587  21.687  0.00  0.00    +0.000 A 
ATOM      5  C   UNL     1       2.898   4.292  21.252  0.00  0.00    +0.000 A 
ATOM      6  C   UNL     1       3.300   4.155  19.917  0.00  0.00    +0.000 A 
ATOM      7  N   UNL     1       4.372   4.714  19.258  0.00  0.00    +0.000 NA
ATOM      8  C   UNL     1       4.326   4.240  18.023  0.00  0.00    +0.000 A 
ATOM      9  N   UNL     1       3.226   3.428  17.877  0.00  0.00    +0.000 N 
ATOM     10  C   UNL     1       2.563   3.337  19.070  0.00  0.00    +0.000 A 
ATOM     11  H   UNL     1       2.995   2.952  17.016  0.00  0.00    +0.000 HD
ENDROOT
BRANCH   8  12
ATOM     12  C   UNL     1       5.290   4.484  16.942  0.00  0.00    +0.000 A 
ATOM     13  C   UNL     1       4.809   4.736  15.646  0.00  0.00    +0.000 A 
ATOM     14  C   UNL     1       5.684   5.017  14.592  0.00  0.00    +0.000 A 
ATOM     15  C   UNL     1       7.051   5.042  14.832  0.00  0.00    +0.000 A 
ATOM     16  C   UNL     1       7.561   4.783  16.097  0.00  0.00    +0.000 A 
ATOM     17  C   UNL     1       6.682   4.507  17.147  0.00  0.00    +0.000 A 
BRANCH  15  18
ATOM     18  O   UNL     1       7.943   5.328  13.839  0.00  0.00    +0.000 OA
ATOM     19  H   UNL     1       8.274   4.492  13.470  0.00  0.00    +0.000 HD
ENDBRANCH  15  18
BRANCH  17  20
ATOM     20  O   UNL     1       7.204   4.263  18.395  0.00  0.00    +0.000 OA
ATOM     21  H   UNL     1       8.014   3.735  18.286  0.00  0.00    +0.000 HD
ENDBRANCH  17  20
ENDBRANCH   8  12
TORSDOF 3
ENDMDL
MODEL 9
REMARK VINA RESULT:      -7.0      1.206      1.605
REMARK  Name = 
REMARK  4 active torsions:
REMARK  status: ('A' for Active; 'I' for Inactive)
REMARK    1  A    between atoms: C_1  and  C_2
REMARK    2  A    between atoms: C_8  and  C_9
REMARK    3  A    between atoms: C_12  and  O_13
REMARK    4  A    between atoms: C_15  and  O_16
REMARK                            x       y       z     vdW  Elec       q    Type
REMARK                         _______ _______ _______ _____ _____    ______ ____
ROOT
ATOM      1  C   UNL     1       6.949   7.212  17.338  0.00  0.00    +0.000 C 
ATOM      2  C   UNL     1       6.557   6.017  16.527  0.00  0.00    +0.000 A 
ATOM      3  C   UNL     1       7.151   5.747  15.280  0.00  0.00    +0.000 A 
ATOM      4  C   UNL     1       6.785   4.637  14.512  0.00  0.00    +0.000 A 
ATOM      5  C   UNL     1       5.804   3.744  14.961  0.00  0.00    +0.000 A 
ATOM      6  C   UNL     1       5.201   3.980  16.203  0.00  0.00    +0.000 A 
ATOM      7  N   UNL     1       4.241   3.253  16.869  0.00  0.00    +0.000 NA
ATOM      8  C   UNL     1       4.040   3.880  18.016  0.00  0.00    +0.000 A 
ATOM      9  N   UNL     1       4.821   5.011  18.072  0.00  0.00    +0.000 N 
ATOM     10  C   UNL     1       5.586   5.093  16.940  0.00  0.00    +0.000 A 
ATOM     11  H   UNL     1       4.834   5.641  18.861  0.00  0.00    +0.000 HD
ENDROOT
BRANCH   8  12
ATOM     12  C   UNL     1       3.156   3.464  19.113  0.00  0.00    +0.000 A 
ATOM     13  C   UNL     1       3.728   3.092  20.342  0.00  0.00    +0.000 A 
ATOM     14  C   UNL     1       2.928   2.729  21.431  0.00  0.00    +0.000 A 
ATOM     15  C   UNL     1       1.546   2.733  21.291  0.00  0.00    +0.000 A 
ATOM     16  C   UNL     1       0.950   3.080  20.086  0.00  0.00    +0.000 A 
ATOM     17  C   UNL     1       1.754   3.445  19.003  0.00  0.00    +0.000 A 
BRANCH  15  18
ATOM     18  O   UNL     1       0.724   2.403  22.329  0.00  0.00    +0.000 OA
ATOM     19  H   UNL     1       1.259   2.325  23.136  0.00  0.00    +0.000 HD
ENDBRANCH  15  18
BRANCH  17  20
ATOM     20  O   UNL     1       1.146   3.796  17.821  0.00  0.00    +0.000 OA
ATOM     21  H   UNL     1       1.827   4.156  17.227  0.00  0.00    +0.000 HD
ENDBRANCH  17  20
ENDBRANCH   8  12
TORSDOF 3
ENDMDL
