MODEL 1
REMARK VINA RESULT:      -8.5      0.000      0.000
REMARK  Name = 
REMARK  8 active torsions:
REMARK  status: ('A' for Active; 'I' for Inactive)
REMARK    1  A    between atoms: C_2  and  C_3
REMARK    2  A    between atoms: C_3  and  N_4
REMARK    3  A    between atoms: N_4  and  C_5
REMARK    4  A    between atoms: C_12  and  C_13
REMARK    5  A    between atoms: N_19  and  C_20
REMARK    6  A    between atoms: N_22  and  C_23
REMARK    7  A    between atoms: C_26  and  C_27
REMARK    8  A    between atoms: C_32  and  O_33
REMARK                            x       y       z     vdW  Elec       q    Type
REMARK                         _______ _______ _______ _____ _____    ______ ____
ROOT
ATOM      1  O   UNL     1       1.681   3.006  19.976  0.00  0.00    +0.000 OA
ATOM      2  C   UNL     1       2.645   3.431  19.345  0.00  0.00    +0.000 C 
ATOM      3  N   UNL     1       2.865   4.767  19.083  0.00  0.00    +0.000 N 
ATOM      4  H   UNL     1       3.526   4.921  18.321  0.00  0.00    +0.000 HD
ENDROOT
BRANCH   3   5
ATOM      5  C   UNL     1       1.942   5.864  19.439  0.00  0.00    +0.000 C 
ATOM      6  C   UNL     1       1.728   6.240  20.917  0.00  0.00    +0.000 C 
ATOM      7  N   UNL     1       1.885   7.695  20.573  0.00  0.00    +0.000 NA
ATOM      8  C   UNL     1       2.582   7.263  19.329  0.00  0.00    +0.000 C 
BRANCH   7   9
ATOM      9  C   UNL     1       0.577   8.334  20.284  0.00  0.00    +0.000 C 
ATOM     10  C   UNL     1      -0.182   8.619  21.605  0.00  0.00    +0.000 C 
ATOM     11  C   UNL     1       0.217   9.901  22.334  0.00  0.00    +0.000 C 
ATOM     12  C   UNL     1       0.273  11.154  21.451  0.00  0.00    +0.000 C 
ATOM     13  C   UNL     1       1.127  10.886  20.205  0.00  0.00    +0.000 C 
ATOM     14  C   UNL     1       0.739   9.625  19.434  0.00  0.00    +0.000 C 
BRANCH  12  15
ATOM     15  C   UNL     1      -1.101  11.761  21.154  0.00  0.00    +0.000 A 
ATOM     16  C   UNL     1      -1.692  11.673  19.881  0.00  0.00    +0.000 A 
ATOM     17  C   UNL     1      -2.958  12.192  19.614  0.00  0.00    +0.000 A 
ATOM     18  C   UNL     1      -3.670  12.832  20.619  0.00  0.00    +0.000 A 
ATOM     19  C   UNL     1      -3.110  12.952  21.887  0.00  0.00    +0.000 A 
ATOM     20  C   UNL     1      -1.841  12.419  22.148  0.00  0.00    +0.000 A 
BRANCH  20  21
ATOM     21  O   UNL     1      -1.318  12.544  23.406  0.00  0.00    +0.000 OA
ATOM     22  H   UNL     1      -0.829  13.382  23.460  0.00  0.00    +0.000 HD
ENDBRANCH  20  21
ENDBRANCH  12  15
ENDBRANCH   7   9
ENDBRANCH   3   5
BRANCH   2  23
ATOM     23  C   UNL     1       3.704   2.499  18.727  0.00  0.00    +0.000 C 
BRANCH  23  24
ATOM     24  N   UNL     1       4.128   2.953  17.389  0.00  0.00    +0.000 N 
ATOM     25  H   UNL     1       3.355   3.401  16.900  0.00  0.00    +0.000 HD
BRANCH  24  26
ATOM     26  C   UNL     1       5.278   3.761  17.331  0.00  0.00    +0.000 A 
ATOM     27  N   UNL     1       5.805   4.193  18.495  0.00  0.00    +0.000 NA
ATOM     28  C   UNL     1       6.916   4.932  18.419  0.00  0.00    +0.000 A 
ATOM     29  N   UNL     1       7.533   5.311  17.300  0.00  0.00    +0.000 NA
ATOM     30  C   UNL     1       7.018   4.871  16.153  0.00  0.00    +0.000 A 
ATOM     31  C   UNL     1       7.667   5.233  14.982  0.00  0.00    +0.000 A 
ATOM     32  C   UNL     1       7.239   4.789  13.730  0.00  0.00    +0.000 A 
ATOM     33  C   UNL     1       6.128   3.951  13.624  0.00  0.00    +0.000 A 
ATOM     34  C   UNL     1       5.444   3.599  14.803  0.00  0.00    +0.000 A 
ATOM     35  C   UNL     1       5.871   4.063  16.082  0.00  0.00    +0.000 A 
BRANCH  33  36
ATOM     36  C   UNL     1       5.690   3.424  12.276  0.00  0.00    +0.000 C 
ATOM     37  F   UNL     1       5.850   2.077  12.144  0.00  0.00    +0.000 F 
ATOM     38  F   UNL     1       4.375   3.668  12.026  0.00  0.00    +0.000 F 
ATOM     39  F   UNL     1       6.381   3.984  11.246  0.00  0.00    +0.000 F 
ENDBRANCH  33  36
ENDBRANCH  24  26
ENDBRANCH  23  24
ENDBRANCH   2  23
TORSDOF 8
ENDMDL
MODEL 2
REMARK VINA RESULT:      -8.5      3.984      5.963
REMARK  Name = 
REMARK  8 active torsions:
REMARK  status: ('A' for Active; 'I' for Inactive)
REMARK    1  A    between atoms: C_2  and  C_3
REMARK    2  A    between atoms: C_3  and  N_4
REMARK    3  A    between atoms: N_4  and  C_5
REMARK    4  A    between atoms: C_12  and  C_13
REMARK    5  A    between atoms: N_19  and  C_20
REMARK    6  A    between atoms: N_22  and  C_23
REMARK    7  A    between atoms: C_26  and  C_27
REMARK    8  A    between atoms: C_32  and  O_33
REMARK                            x       y       z     vdW  Elec       q    Type
REMARK                         _______ _______ _______ _____ _____    ______ ____
ROOT
ATOM      1  O   UNL     1       2.329  10.561  17.534  0.00  0.00    +0.000 OA
ATOM      2  C   UNL     1       1.812   9.524  17.943  0.00  0.00    +0.000 C 
ATOM      3  N   UNL     1       0.858   9.480  18.937  0.00  0.00    +0.000 N 
ATOM      4  H   UNL     1       0.755   8.552  19.351  0.00  0.00    +0.000 HD
ENDROOT
BRANCH   3   5
ATOM      5  C   UNL     1       0.386  10.646  19.712  0.00  0.00    +0.000 C 
ATOM      6  C   UNL     1      -0.663  11.597  19.107  0.00  0.00    +0.000 C 
ATOM      7  N   UNL     1      -1.438  11.566  20.397  0.00  0.00    +0.000 NA
ATOM      8  C   UNL     1      -0.726  10.299  20.723  0.00  0.00    +0.000 C 
BRANCH   7   9
ATOM      9  C   UNL     1      -1.042  12.675  21.299  0.00  0.00    +0.000 C 
ATOM     10  C   UNL     1      -1.942  13.912  21.054  0.00  0.00    +0.000 C 
ATOM     11  C   UNL     1      -3.296  13.896  21.762  0.00  0.00    +0.000 C 
ATOM     12  C   UNL     1      -3.237  13.547  23.255  0.00  0.00    +0.000 C 
ATOM     13  C   UNL     1      -2.439  12.254  23.465  0.00  0.00    +0.000 C 
ATOM     14  C   UNL     1      -1.067  12.244  22.792  0.00  0.00    +0.000 C 
BRANCH  12  15
ATOM     15  C   UNL     1      -2.795  14.711  24.145  0.00  0.00    +0.000 A 
ATOM     16  C   UNL     1      -1.447  14.906  24.498  0.00  0.00    +0.000 A 
ATOM     17  C   UNL     1      -1.034  15.985  25.277  0.00  0.00    +0.000 A 
ATOM     18  C   UNL     1      -1.967  16.901  25.743  0.00  0.00    +0.000 A 
ATOM     19  C   UNL     1      -3.311  16.731  25.428  0.00  0.00    +0.000 A 
ATOM     20  C   UNL     1      -3.717  15.649  24.636  0.00  0.00    +0.000 A 
BRANCH  20  21
ATOM     21  O   UNL     1      -5.044  15.511  24.334  0.00  0.00    +0.000 OA
ATOM     22  H   UNL     1      -5.163  15.647  23.380  0.00  0.00    +0.000 HD
ENDBRANCH  20  21
ENDBRANCH  12  15
ENDBRANCH   7   9
ENDBRANCH   3   5
BRANCH   2  23
ATOM     23  C   UNL     1       2.216   8.136  17.413  0.00  0.00    +0.000 C 
BRANCH  23  24
ATOM     24  N   UNL     1       3.503   7.683  17.973  0.00  0.00    +0.000 N 
ATOM     25  H   UNL     1       3.447   7.607  18.987  0.00  0.00    +0.000 HD
BRANCH  24  26
ATOM     26  C   UNL     1       4.053   6.510  17.425  0.00  0.00    +0.000 A 
ATOM     27  N   UNL     1       4.950   6.641  16.427  0.00  0.00    +0.000 NA
ATOM     28  C   UNL     1       5.485   5.515  15.942  0.00  0.00    +0.000 A 
ATOM     29  N   UNL     1       5.190   4.275  16.329  0.00  0.00    +0.000 NA
ATOM     30  C   UNL     1       4.314   4.150  17.325  0.00  0.00    +0.000 A 
ATOM     31  C   UNL     1       4.019   2.865  17.759  0.00  0.00    +0.000 A 
ATOM     32  C   UNL     1       3.151   2.624  18.825  0.00  0.00    +0.000 A 
ATOM     33  C   UNL     1       2.549   3.689  19.496  0.00  0.00    +0.000 A 
ATOM     34  C   UNL     1       2.818   4.997  19.047  0.00  0.00    +0.000 A 
ATOM     35  C   UNL     1       3.693   5.245  17.949  0.00  0.00    +0.000 A 
BRANCH  33  36
ATOM     36  C   UNL     1       1.649   3.438  20.684  0.00  0.00    +0.000 C 
ATOM     37  F   UNL     1       2.106   4.002  21.837  0.00  0.00    +0.000 F 
ATOM     38  F   UNL     1       0.395   3.933  20.499  0.00  0.00    +0.000 F 
ATOM     39  F   UNL     1       1.497   2.112  20.953  0.00  0.00    +0.000 F 
ENDBRANCH  33  36
ENDBRANCH  24  26
ENDBRANCH  23  24
ENDBRANCH   2  23
TORSDOF 8
ENDMDL
MODEL 3
REMARK VINA RESULT:      -8.4      3.656      5.505
REMARK  Name = 
REMARK  8 active torsions:
REMARK  status: ('A' for Active; 'I' for Inactive)
REMARK    1  A    between atoms: C_2  and  C_3
REMARK    2  A    between atoms: C_3  and  N_4
REMARK    3  A    between atoms: N_4  and  C_5
REMARK    4  A    between atoms: C_12  and  C_13
REMARK    5  A    between atoms: N_19  and  C_20
REMARK    6  A    between atoms: N_22  and  C_23
REMARK    7  A    between atoms: C_26  and  C_27
REMARK    8  A    between atoms: C_32  and  O_33
REMARK                            x       y       z     vdW  Elec       q    Type
REMARK                         _______ _______ _______ _____ _____    ______ ____
ROOT
ATOM      1  O   UNL     1       1.976   7.739  19.701  0.00  0.00    +0.000 OA
ATOM      2  C   UNL     1       2.089   8.413  18.681  0.00  0.00    +0.000 C 
ATOM      3  N   UNL     1       1.395   9.583  18.452  0.00  0.00    +0.000 N 
ATOM      4  H   UNL     1       1.381   9.852  17.467  0.00  0.00    +0.000 HD
ENDROOT
BRANCH   3   5
ATOM      5  C   UNL     1       0.360  10.144  19.344  0.00  0.00    +0.000 C 
ATOM      6  C   UNL     1       0.753  10.683  20.732  0.00  0.00    +0.000 C 
ATOM      7  N   UNL     1      -0.072  11.917  20.489  0.00  0.00    +0.000 NA
ATOM      8  C   UNL     1       0.016  11.615  19.033  0.00  0.00    +0.000 C 
BRANCH   7   9
ATOM      9  C   UNL     1      -1.454  11.763  21.006  0.00  0.00    +0.000 C 
ATOM     10  C   UNL     1      -1.451  11.785  22.556  0.00  0.00    +0.000 C 
ATOM     11  C   UNL     1      -1.427  13.171  23.198  0.00  0.00    +0.000 C 
ATOM     12  C   UNL     1      -2.459  14.159  22.637  0.00  0.00    +0.000 C 
ATOM     13  C   UNL     1      -2.365  14.208  21.107  0.00  0.00    +0.000 C 
ATOM     14  C   UNL     1      -2.413  12.841  20.427  0.00  0.00    +0.000 C 
BRANCH  12  15
ATOM     15  C   UNL     1      -3.876  13.943  23.174  0.00  0.00    +0.000 A 
ATOM     16  C   UNL     1      -4.249  12.757  23.831  0.00  0.00    +0.000 A 
ATOM     17  C   UNL     1      -5.527  12.570  24.355  0.00  0.00    +0.000 A 
ATOM     18  C   UNL     1      -6.482  13.568  24.222  0.00  0.00    +0.000 A 
ATOM     19  C   UNL     1      -6.154  14.749  23.564  0.00  0.00    +0.000 A 
ATOM     20  C   UNL     1      -4.864  14.932  23.049  0.00  0.00    +0.000 A 
BRANCH  20  21
ATOM     21  O   UNL     1      -4.567  16.106  22.414  0.00  0.00    +0.000 OA
ATOM     22  H   UNL     1      -4.247  16.745  23.072  0.00  0.00    +0.000 HD
ENDBRANCH  20  21
ENDBRANCH  12  15
ENDBRANCH   7   9
ENDBRANCH   3   5
BRANCH   2  23
ATOM     23  C   UNL     1       2.997   7.994  17.510  0.00  0.00    +0.000 C 
BRANCH  23  24
ATOM     24  N   UNL     1       4.195   7.268  17.971  0.00  0.00    +0.000 N 
ATOM     25  H   UNL     1       4.199   7.188  18.986  0.00  0.00    +0.000 HD
BRANCH  24  26
ATOM     26  C   UNL     1       4.441   6.016  17.380  0.00  0.00    +0.000 A 
ATOM     27  N   UNL     1       5.262   5.973  16.310  0.00  0.00    +0.000 NA
ATOM     28  C   UNL     1       5.508   4.769  15.784  0.00  0.00    +0.000 A 
ATOM     29  N   UNL     1       4.992   3.611  16.195  0.00  0.00    +0.000 NA
ATOM     30  C   UNL     1       4.194   3.655  17.260  0.00  0.00    +0.000 A 
ATOM     31  C   UNL     1       3.674   2.453  17.719  0.00  0.00    +0.000 A 
ATOM     32  C   UNL     1       2.865   2.380  18.854  0.00  0.00    +0.000 A 
ATOM     33  C   UNL     1       2.556   3.536  19.571  0.00  0.00    +0.000 A 
ATOM     34  C   UNL     1       3.054   4.767  19.100  0.00  0.00    +0.000 A 
ATOM     35  C   UNL     1       3.870   4.845  17.934  0.00  0.00    +0.000 A 
BRANCH  33  36
ATOM     36  C   UNL     1       1.723   3.458  20.831  0.00  0.00    +0.000 C 
ATOM     37  F   UNL     1       1.459   2.181  21.226  0.00  0.00    +0.000 F 
ATOM     38  F   UNL     1       2.329   4.057  21.892  0.00  0.00    +0.000 F 
ATOM     39  F   UNL     1       0.512   4.064  20.694  0.00  0.00    +0.000 F 
ENDBRANCH  33  36
ENDBRANCH  24  26
ENDBRANCH  23  24
ENDBRANCH   2  23
TORSDOF 8
ENDMDL
MODEL 4
REMARK VINA RESULT:      -8.4      3.767      5.807
REMARK  Name = 
REMARK  8 active torsions:
REMARK  status: ('A' for Active; 'I' for Inactive)
REMARK    1  A    between atoms: C_2  and  C_3
REMARK    2  A    between atoms: C_3  and  N_4
REMARK    3  A    between atoms: N_4  and  C_5
REMARK    4  A    between atoms: C_12  and  C_13
REMARK    5  A    between atoms: N_19  and  C_20
REMARK    6  A    between atoms: N_22  and  C_23
REMARK    7  A    between atoms: C_26  and  C_27
REMARK    8  A    between atoms: C_32  and  O_33
REMARK                            x       y       z     vdW  Elec       q    Type
REMARK                         _______ _______ _______ _____ _____    ______ ____
ROOT
ATOM      1  O   UNL     1      -0.037   9.523  17.782  0.00  0.00    +0.000 OA
ATOM      2  C   UNL     1       1.090   9.729  18.224  0.00  0.00    +0.000 C 
ATOM      3  N   UNL     1       1.367  10.616  19.242  0.00  0.00    +0.000 N 
ATOM      4  H   UNL     1       2.352  10.879  19.286  0.00  0.00    +0.000 HD
ENDROOT
BRANCH   3   5
ATOM      5  C   UNL     1       0.378  11.507  19.884  0.00  0.00    +0.000 C 
ATOM      6  C   UNL     1      -0.433  11.009  21.095  0.00  0.00    +0.000 C 
ATOM      7  N   UNL     1      -0.148  12.297  21.818  0.00  0.00    +0.000 NA
ATOM      8  C   UNL     1       1.004  12.490  20.894  0.00  0.00    +0.000 C 
BRANCH   7   9
ATOM      9  C   UNL     1      -1.218  13.300  21.592  0.00  0.00    +0.000 C 
ATOM     10  C   UNL     1      -2.611  12.633  21.714  0.00  0.00    +0.000 C 
ATOM     11  C   UNL     1      -3.145  12.471  23.136  0.00  0.00    +0.000 C 
ATOM     12  C   UNL     1      -3.063  13.735  24.002  0.00  0.00    +0.000 C 
ATOM     13  C   UNL     1      -1.642  14.313  23.960  0.00  0.00    +0.000 C 
ATOM     14  C   UNL     1      -1.085  14.514  22.552  0.00  0.00    +0.000 C 
BRANCH  12  15
ATOM     15  C   UNL     1      -4.166  14.755  23.713  0.00  0.00    +0.000 A 
ATOM     16  C   UNL     1      -3.887  16.012  23.147  0.00  0.00    +0.000 A 
ATOM     17  C   UNL     1      -4.892  16.930  22.847  0.00  0.00    +0.000 A 
ATOM     18  C   UNL     1      -6.217  16.620  23.122  0.00  0.00    +0.000 A 
ATOM     19  C   UNL     1      -6.530  15.393  23.697  0.00  0.00    +0.000 A 
ATOM     20  C   UNL     1      -5.514  14.472  23.986  0.00  0.00    +0.000 A 
BRANCH  20  21
ATOM     21  O   UNL     1      -5.851  13.270  24.543  0.00  0.00    +0.000 OA
ATOM     22  H   UNL     1      -5.059  12.708  24.579  0.00  0.00    +0.000 HD
ENDBRANCH  20  21
ENDBRANCH  12  15
ENDBRANCH   7   9
ENDBRANCH   3   5
BRANCH   2  23
ATOM     23  C   UNL     1       2.341   9.041  17.647  0.00  0.00    +0.000 C 
BRANCH  23  24
ATOM     24  N   UNL     1       2.707   7.830  18.405  0.00  0.00    +0.000 N 
ATOM     25  H   UNL     1       1.874   7.367  18.766  0.00  0.00    +0.000 HD
BRANCH  24  26
ATOM     26  C   UNL     1       3.539   6.903  17.752  0.00  0.00    +0.000 A 
ATOM     27  N   UNL     1       4.598   7.380  17.066  0.00  0.00    +0.000 NA
ATOM     28  C   UNL     1       5.394   6.480  16.480  0.00  0.00    +0.000 A 
ATOM     29  N   UNL     1       5.221   5.158  16.482  0.00  0.00    +0.000 NA
ATOM     30  C   UNL     1       4.183   4.690  17.173  0.00  0.00    +0.000 A 
ATOM     31  C   UNL     1       4.008   3.314  17.208  0.00  0.00    +0.000 A 
ATOM     32  C   UNL     1       2.980   2.717  17.940  0.00  0.00    +0.000 A 
ATOM     33  C   UNL     1       2.089   3.503  18.670  0.00  0.00    +0.000 A 
ATOM     34  C   UNL     1       2.239   4.903  18.619  0.00  0.00    +0.000 A 
ATOM     35  C   UNL     1       3.279   5.516  17.862  0.00  0.00    +0.000 A 
BRANCH  33  36
ATOM     36  C   UNL     1       1.005   2.860  19.506  0.00  0.00    +0.000 C 
ATOM     37  F   UNL     1       1.486   1.993  20.440  0.00  0.00    +0.000 F 
ATOM     38  F   UNL     1       0.269   3.775  20.194  0.00  0.00    +0.000 F 
ATOM     39  F   UNL     1       0.121   2.148  18.756  0.00  0.00    +0.000 F 
ENDBRANCH  33  36
ENDBRANCH  24  26
ENDBRANCH  23  24
ENDBRANCH   2  23
TORSDOF 8
ENDMDL
MODEL 5
REMARK VINA RESULT:      -8.4      4.139      5.668
REMARK  Name = 
REMARK  8 active torsions:
REMARK  status: ('A' for Active; 'I' for Inactive)
REMARK    1  A    between atoms: C_2  and  C_3
REMARK    2  A    between atoms: C_3  and  N_4
REMARK    3  A    between atoms: N_4  and  C_5
REMARK    4  A    between atoms: C_12  and  C_13
REMARK    5  A    between atoms: N_19  and  C_20
REMARK    6  A    between atoms: N_22  and  C_23
REMARK    7  A    between atoms: C_26  and  C_27
REMARK    8  A    between atoms: C_32  and  O_33
REMARK                            x       y       z     vdW  Elec       q    Type
REMARK                         _______ _______ _______ _____ _____    ______ ____
ROOT
ATOM      1  O   UNL     1       1.646   8.503  19.341  0.00  0.00    +0.000 OA
ATOM      2  C   UNL     1       1.082   8.258  20.405  0.00  0.00    +0.000 C 
ATOM      3  N   UNL     1       0.263   9.150  21.064  0.00  0.00    +0.000 N 
ATOM      4  H   UNL     1       0.118   8.909  22.045  0.00  0.00    +0.000 HD
ENDROOT
BRANCH   3   5
ATOM      5  C   UNL     1       0.015  10.544  20.644  0.00  0.00    +0.000 C 
ATOM      6  C   UNL     1      -0.509  11.572  21.664  0.00  0.00    +0.000 C 
ATOM      7  N   UNL     1       0.517  12.566  21.192  0.00  0.00    +0.000 NA
ATOM      8  C   UNL     1       1.286  11.417  20.638  0.00  0.00    +0.000 C 
BRANCH   7   9
ATOM      9  C   UNL     1      -0.021  13.443  20.123  0.00  0.00    +0.000 C 
ATOM     10  C   UNL     1      -0.487  14.794  20.723  0.00  0.00    +0.000 C 
ATOM     11  C   UNL     1       0.610  15.834  20.944  0.00  0.00    +0.000 C 
ATOM     12  C   UNL     1       1.537  16.057  19.742  0.00  0.00    +0.000 C 
ATOM     13  C   UNL     1       2.080  14.715  19.237  0.00  0.00    +0.000 C 
ATOM     14  C   UNL     1       1.009  13.658  18.978  0.00  0.00    +0.000 C 
BRANCH  12  15
ATOM     15  C   UNL     1       0.930  16.942  18.650  0.00  0.00    +0.000 A 
ATOM     16  C   UNL     1      -0.439  17.264  18.630  0.00  0.00    +0.000 A 
ATOM     17  C   UNL     1      -0.991  18.099  17.660  0.00  0.00    +0.000 A 
ATOM     18  C   UNL     1      -0.183  18.629  16.664  0.00  0.00    +0.000 A 
ATOM     19  C   UNL     1       1.173  18.320  16.642  0.00  0.00    +0.000 A 
ATOM     20  C   UNL     1       1.720  17.488  17.627  0.00  0.00    +0.000 A 
BRANCH  20  21
ATOM     21  O   UNL     1       3.058  17.207  17.586  0.00  0.00    +0.000 OA
ATOM     22  H   UNL     1       3.487  17.617  18.356  0.00  0.00    +0.000 HD
ENDBRANCH  20  21
ENDBRANCH  12  15
ENDBRANCH   7   9
ENDBRANCH   3   5
BRANCH   2  23
ATOM     23  C   UNL     1       1.271   6.925  21.152  0.00  0.00    +0.000 C 
BRANCH  23  24
ATOM     24  N   UNL     1       2.522   6.246  20.766  0.00  0.00    +0.000 N 
ATOM     25  H   UNL     1       3.191   6.259  21.534  0.00  0.00    +0.000 HD
BRANCH  24  26
ATOM     26  C   UNL     1       2.400   4.945  20.245  0.00  0.00    +0.000 A 
ATOM     27  N   UNL     1       1.628   4.067  20.917  0.00  0.00    +0.000 NA
ATOM     28  C   UNL     1       1.499   2.846  20.388  0.00  0.00    +0.000 A 
ATOM     29  N   UNL     1       2.088   2.404  19.277  0.00  0.00    +0.000 NA
ATOM     30  C   UNL     1       2.838   3.279  18.608  0.00  0.00    +0.000 A 
ATOM     31  C   UNL     1       3.434   2.842  17.434  0.00  0.00    +0.000 A 
ATOM     32  C   UNL     1       4.202   3.689  16.633  0.00  0.00    +0.000 A 
ATOM     33  C   UNL     1       4.389   5.022  16.998  0.00  0.00    +0.000 A 
ATOM     34  C   UNL     1       3.813   5.471  18.203  0.00  0.00    +0.000 A 
ATOM     35  C   UNL     1       3.041   4.604  19.030  0.00  0.00    +0.000 A 
BRANCH  33  36
ATOM     36  C   UNL     1       5.176   5.959  16.109  0.00  0.00    +0.000 C 
ATOM     37  F   UNL     1       4.549   7.149  15.889  0.00  0.00    +0.000 F 
ATOM     38  F   UNL     1       6.393   6.271  16.632  0.00  0.00    +0.000 F 
ATOM     39  F   UNL     1       5.417   5.431  14.878  0.00  0.00    +0.000 F 
ENDBRANCH  33  36
ENDBRANCH  24  26
ENDBRANCH  23  24
ENDBRANCH   2  23
TORSDOF 8
ENDMDL
MODEL 6
REMARK VINA RESULT:      -8.3      3.829      5.885
REMARK  Name = 
REMARK  8 active torsions:
REMARK  status: ('A' for Active; 'I' for Inactive)
REMARK    1  A    between atoms: C_2  and  C_3
REMARK    2  A    between atoms: C_3  and  N_4
REMARK    3  A    between atoms: N_4  and  C_5
REMARK    4  A    between atoms: C_12  and  C_13
REMARK    5  A    between atoms: N_19  and  C_20
REMARK    6  A    between atoms: N_22  and  C_23
REMARK    7  A    between atoms: C_26  and  C_27
REMARK    8  A    between atoms: C_32  and  O_33
REMARK                            x       y       z     vdW  Elec       q    Type
REMARK                         _______ _______ _______ _____ _____    ______ ____
ROOT
ATOM      1  O   UNL     1       1.306   8.329  19.941  0.00  0.00    +0.000 OA
ATOM      2  C   UNL     1       1.553   9.174  19.084  0.00  0.00    +0.000 C 
ATOM      3  N   UNL     1       0.918  10.395  19.002  0.00  0.00    +0.000 N 
ATOM      4  H   UNL     1       1.024  10.840  18.090  0.00  0.00    +0.000 HD
ENDROOT
BRANCH   3   5
ATOM      5  C   UNL     1      -0.200  10.830  19.865  0.00  0.00    +0.000 C 
ATOM      6  C   UNL     1       0.079  11.304  21.303  0.00  0.00    +0.000 C 
ATOM      7  N   UNL     1      -0.814  12.494  21.087  0.00  0.00    +0.000 NA
ATOM      8  C   UNL     1      -0.627  12.292  19.623  0.00  0.00    +0.000 C 
BRANCH   7   9
ATOM      9  C   UNL     1      -2.208  12.218  21.514  0.00  0.00    +0.000 C 
ATOM     10  C   UNL     1      -2.326  12.315  23.056  0.00  0.00    +0.000 C 
ATOM     11  C   UNL     1      -2.495  13.725  23.618  0.00  0.00    +0.000 C 
ATOM     12  C   UNL     1      -3.578  14.567  22.930  0.00  0.00    +0.000 C 
ATOM     13  C   UNL     1      -3.373  14.552  21.410  0.00  0.00    +0.000 C 
ATOM     14  C   UNL     1      -3.227  13.156  20.808  0.00  0.00    +0.000 C 
BRANCH  12  15
ATOM     15  C   UNL     1      -5.002  14.227  23.377  0.00  0.00    +0.000 A 
ATOM     16  C   UNL     1      -5.380  12.916  23.721  0.00  0.00    +0.000 A 
ATOM     17  C   UNL     1      -6.665  12.607  24.164  0.00  0.00    +0.000 A 
ATOM     18  C   UNL     1      -7.622  13.607  24.263  0.00  0.00    +0.000 A 
ATOM     19  C   UNL     1      -7.290  14.912  23.916  0.00  0.00    +0.000 A 
ATOM     20  C   UNL     1      -5.993  15.216  23.481  0.00  0.00    +0.000 A 
BRANCH  20  21
ATOM     21  O   UNL     1      -5.691  16.510  23.155  0.00  0.00    +0.000 OA
ATOM     22  H   UNL     1      -6.343  16.829  22.509  0.00  0.00    +0.000 HD
ENDBRANCH  20  21
ENDBRANCH  12  15
ENDBRANCH   7   9
ENDBRANCH   3   5
BRANCH   2  23
ATOM     23  C   UNL     1       2.579   8.936  17.961  0.00  0.00    +0.000 C 
BRANCH  23  24
ATOM     24  N   UNL     1       2.531   7.553  17.451  0.00  0.00    +0.000 N 
ATOM     25  H   UNL     1       2.280   7.542  16.464  0.00  0.00    +0.000 HD
BRANCH  24  26
ATOM     26  C   UNL     1       3.669   6.757  17.676  0.00  0.00    +0.000 A 
ATOM     27  N   UNL     1       4.865   7.240  17.282  0.00  0.00    +0.000 NA
ATOM     28  C   UNL     1       5.937   6.482  17.535  0.00  0.00    +0.000 A 
ATOM     29  N   UNL     1       5.932   5.280  18.109  0.00  0.00    +0.000 NA
ATOM     30  C   UNL     1       4.751   4.812  18.510  0.00  0.00    +0.000 A 
ATOM     31  C   UNL     1       4.733   3.574  19.136  0.00  0.00    +0.000 A 
ATOM     32  C   UNL     1       3.558   3.012  19.635  0.00  0.00    +0.000 A 
ATOM     33  C   UNL     1       2.347   3.697  19.518  0.00  0.00    +0.000 A 
ATOM     34  C   UNL     1       2.347   4.942  18.859  0.00  0.00    +0.000 A 
ATOM     35  C   UNL     1       3.544   5.511  18.336  0.00  0.00    +0.000 A 
BRANCH  33  36
ATOM     36  C   UNL     1       1.078   3.118  20.103  0.00  0.00    +0.000 C 
ATOM     37  F   UNL     1       1.299   2.297  21.168  0.00  0.00    +0.000 F 
ATOM     38  F   UNL     1       0.225   4.081  20.547  0.00  0.00    +0.000 F 
ATOM     39  F   UNL     1       0.378   2.378  19.201  0.00  0.00    +0.000 F 
ENDBRANCH  33  36
ENDBRANCH  24  26
ENDBRANCH  23  24
ENDBRANCH   2  23
TORSDOF 8
ENDMDL
MODEL 7
REMARK VINA RESULT:      -8.3      3.832      5.867
REMARK  Name = 
REMARK  8 active torsions:
REMARK  status: ('A' for Active; 'I' for Inactive)
REMARK    1  A    between atoms: C_2  and  C_3
REMARK    2  A    between atoms: C_3  and  N_4
REMARK    3  A    between atoms: N_4  and  C_5
REMARK    4  A    between atoms: C_12  and  C_13
REMARK    5  A    between atoms: N_19  and  C_20
REMARK    6  A    between atoms: N_22  and  C_23
REMARK    7  A    between atoms: C_26  and  C_27
REMARK    8  A    between atoms: C_32  and  O_33
REMARK                            x       y       z     vdW  Elec       q    Type
REMARK                         _______ _______ _______ _____ _____    ______ ____
ROOT
ATOM      1  O   UNL     1       1.485   8.646  19.745  0.00  0.00    +0.000 OA
ATOM      2  C   UNL     1       1.648   9.118  18.623  0.00  0.00    +0.000 C 
ATOM      3  N   UNL     1       1.199  10.365  18.240  0.00  0.00    +0.000 N 
ATOM      4  H   UNL     1       1.156  10.480  17.227  0.00  0.00    +0.000 HD
ENDROOT
BRANCH   3   5
ATOM      5  C   UNL     1       0.388  11.269  19.081  0.00  0.00    +0.000 C 
ATOM      6  C   UNL     1      -1.091  11.518  18.734  0.00  0.00    +0.000 C 
ATOM      7  N   UNL     1      -1.466  11.312  20.177  0.00  0.00    +0.000 NA
ATOM      8  C   UNL     1      -0.175  10.589  20.345  0.00  0.00    +0.000 C 
BRANCH   7   9
ATOM      9  C   UNL     1      -1.489  12.593  20.926  0.00  0.00    +0.000 C 
ATOM     10  C   UNL     1      -2.808  13.355  20.643  0.00  0.00    +0.000 C 
ATOM     11  C   UNL     1      -4.015  12.917  21.471  0.00  0.00    +0.000 C 
ATOM     12  C   UNL     1      -3.756  12.807  22.979  0.00  0.00    +0.000 C 
ATOM     13  C   UNL     1      -2.511  11.950  23.241  0.00  0.00    +0.000 C 
ATOM     14  C   UNL     1      -1.275  12.376  22.450  0.00  0.00    +0.000 C 
BRANCH  12  15
ATOM     15  C   UNL     1      -3.757  14.154  23.706  0.00  0.00    +0.000 A 
ATOM     16  C   UNL     1      -2.590  14.689  24.282  0.00  0.00    +0.000 A 
ATOM     17  C   UNL     1      -2.577  15.932  24.912  0.00  0.00    +0.000 A 
ATOM     18  C   UNL     1      -3.745  16.677  24.998  0.00  0.00    +0.000 A 
ATOM     19  C   UNL     1      -4.922  16.173  24.454  0.00  0.00    +0.000 A 
ATOM     20  C   UNL     1      -4.924  14.927  23.814  0.00  0.00    +0.000 A 
BRANCH  20  21
ATOM     21  O   UNL     1      -6.094  14.459  23.281  0.00  0.00    +0.000 OA
ATOM     22  H   UNL     1      -6.716  15.201  23.193  0.00  0.00    +0.000 HD
ENDBRANCH  20  21
ENDBRANCH  12  15
ENDBRANCH   7   9
ENDBRANCH   3   5
BRANCH   2  23
ATOM     23  C   UNL     1       2.341   8.338  17.491  0.00  0.00    +0.000 C 
BRANCH  23  24
ATOM     24  N   UNL     1       3.657   7.815  17.904  0.00  0.00    +0.000 N 
ATOM     25  H   UNL     1       3.720   7.759  18.919  0.00  0.00    +0.000 HD
BRANCH  24  26
ATOM     26  C   UNL     1       4.067   6.602  17.321  0.00  0.00    +0.000 A 
ATOM     27  N   UNL     1       4.939   6.659  16.294  0.00  0.00    +0.000 NA
ATOM     28  C   UNL     1       5.341   5.494  15.776  0.00  0.00    +0.000 A 
ATOM     29  N   UNL     1       4.935   4.283  16.156  0.00  0.00    +0.000 NA
ATOM     30  C   UNL     1       4.085   4.230  17.180  0.00  0.00    +0.000 A 
ATOM     31  C   UNL     1       3.676   2.975  17.607  0.00  0.00    +0.000 A 
ATOM     32  C   UNL     1       2.824   2.804  18.699  0.00  0.00    +0.000 A 
ATOM     33  C   UNL     1       2.356   3.913  19.405  0.00  0.00    +0.000 A 
ATOM     34  C   UNL     1       2.741   5.194  18.964  0.00  0.00    +0.000 A 
ATOM     35  C   UNL     1       3.599   5.372  17.841  0.00  0.00    +0.000 A 
BRANCH  33  36
ATOM     36  C   UNL     1       1.475   3.733  20.620  0.00  0.00    +0.000 C 
ATOM     37  F   UNL     1       0.415   4.589  20.651  0.00  0.00    +0.000 F 
ATOM     38  F   UNL     1       0.945   2.482  20.697  0.00  0.00    +0.000 F 
ATOM     39  F   UNL     1       2.148   3.932  21.787  0.00  0.00    +0.000 F 
ENDBRANCH  33  36
ENDBRANCH  24  26
ENDBRANCH  23  24
ENDBRANCH   2  23
TORSDOF 8
ENDMDL
MODEL 8
REMARK VINA RESULT:      -8.1      3.685      5.632
REMARK  Name = 
REMARK  8 active torsions:
REMARK  status: ('A' for Active; 'I' for Inactive)
REMARK    1  A    between atoms: C_2  and  C_3
REMARK    2  A    between atoms: C_3  and  N_4
REMARK    3  A    between atoms: N_4  and  C_5
REMARK    4  A    between atoms: C_12  and  C_13
REMARK    5  A    between atoms: N_19  and  C_20
REMARK    6  A    between atoms: N_22  and  C_23
REMARK    7  A    between atoms: C_26  and  C_27
REMARK    8  A    between atoms: C_32  and  O_33
REMARK                            x       y       z     vdW  Elec       q    Type
REMARK                         _______ _______ _______ _____ _____    ______ ____
ROOT
ATOM      1  O   UNL     1       0.088   9.855  17.525  0.00  0.00    +0.000 OA
ATOM      2  C   UNL     1       1.011   9.486  18.247  0.00  0.00    +0.000 C 
ATOM      3  N   UNL     1       1.019   9.629  19.619  0.00  0.00    +0.000 N 
ATOM      4  H   UNL     1       1.952   9.546  20.024  0.00  0.00    +0.000 HD
ENDROOT
BRANCH   3   5
ATOM      5  C   UNL     1      -0.025  10.317  20.406  0.00  0.00    +0.000 C 
ATOM      6  C   UNL     1       0.217  10.631  21.894  0.00  0.00    +0.000 C 
ATOM      7  N   UNL     1      -0.293  12.031  21.684  0.00  0.00    +0.000 NA
ATOM      8  C   UNL     1      -0.012  11.849  20.232  0.00  0.00    +0.000 C 
BRANCH   7   9
ATOM      9  C   UNL     1      -1.747  12.132  21.961  0.00  0.00    +0.000 C 
ATOM     10  C   UNL     1      -1.983  12.567  23.430  0.00  0.00    +0.000 C 
ATOM     11  C   UNL     1      -1.886  14.067  23.699  0.00  0.00    +0.000 C 
ATOM     12  C   UNL     1      -2.686  14.949  22.730  0.00  0.00    +0.000 C 
ATOM     13  C   UNL     1      -2.349  14.580  21.280  0.00  0.00    +0.000 C 
ATOM     14  C   UNL     1      -2.461  13.089  20.966  0.00  0.00    +0.000 C 
BRANCH  12  15
ATOM     15  C   UNL     1      -4.185  14.999  23.035  0.00  0.00    +0.000 A 
ATOM     16  C   UNL     1      -5.069  14.003  22.582  0.00  0.00    +0.000 A 
ATOM     17  C   UNL     1      -6.429  14.025  22.887  0.00  0.00    +0.000 A 
ATOM     18  C   UNL     1      -6.951  15.059  23.651  0.00  0.00    +0.000 A 
ATOM     19  C   UNL     1      -6.109  16.070  24.103  0.00  0.00    +0.000 A 
ATOM     20  C   UNL     1      -4.742  16.036  23.799  0.00  0.00    +0.000 A 
BRANCH  20  21
ATOM     21  O   UNL     1      -3.936  17.038  24.265  0.00  0.00    +0.000 OA
ATOM     22  H   UNL     1      -3.830  17.704  23.565  0.00  0.00    +0.000 HD
ENDBRANCH  20  21
ENDBRANCH  12  15
ENDBRANCH   7   9
ENDBRANCH   3   5
BRANCH   2  23
ATOM     23  C   UNL     1       2.300   8.859  17.685  0.00  0.00    +0.000 C 
BRANCH  23  24
ATOM     24  N   UNL     1       2.717   7.670  18.452  0.00  0.00    +0.000 N 
ATOM     25  H   UNL     1       1.905   7.180  18.825  0.00  0.00    +0.000 HD
BRANCH  24  26
ATOM     26  C   UNL     1       3.576   6.767  17.800  0.00  0.00    +0.000 A 
ATOM     27  N   UNL     1       4.645   7.271  17.150  0.00  0.00    +0.000 NA
ATOM     28  C   UNL     1       5.467   6.394  16.565  0.00  0.00    +0.000 A 
ATOM     29  N   UNL     1       5.312   5.071  16.535  0.00  0.00    +0.000 NA
ATOM     30  C   UNL     1       4.264   4.575  17.191  0.00  0.00    +0.000 A 
ATOM     31  C   UNL     1       4.106   3.196  17.194  0.00  0.00    +0.000 A 
ATOM     32  C   UNL     1       3.069   2.571  17.888  0.00  0.00    +0.000 A 
ATOM     33  C   UNL     1       2.150   3.330  18.613  0.00  0.00    +0.000 A 
ATOM     34  C   UNL     1       2.283   4.733  18.594  0.00  0.00    +0.000 A 
ATOM     35  C   UNL     1       3.332   5.375  17.875  0.00  0.00    +0.000 A 
BRANCH  33  36
ATOM     36  C   UNL     1       1.056   2.656  19.409  0.00  0.00    +0.000 C 
ATOM     37  F   UNL     1       0.323   3.524  20.163  0.00  0.00    +0.000 F 
ATOM     38  F   UNL     1       0.161   2.007  18.616  0.00  0.00    +0.000 F 
ATOM     39  F   UNL     1       1.539   1.726  20.277  0.00  0.00    +0.000 F 
ENDBRANCH  33  36
ENDBRANCH  24  26
ENDBRANCH  23  24
ENDBRANCH   2  23
TORSDOF 8
ENDMDL
MODEL 9
REMARK VINA RESULT:      -8.1      1.013      1.087
REMARK  Name = 
REMARK  8 active torsions:
REMARK  status: ('A' for Active; 'I' for Inactive)
REMARK    1  A    between atoms: C_2  and  C_3
REMARK    2  A    between atoms: C_3  and  N_4
REMARK    3  A    between atoms: N_4  and  C_5
REMARK    4  A    between atoms: C_12  and  C_13
REMARK    5  A    between atoms: N_19  and  C_20
REMARK    6  A    between atoms: N_22  and  C_23
REMARK    7  A    between atoms: C_26  and  C_27
REMARK    8  A    between atoms: C_32  and  O_33
REMARK                            x       y       z     vdW  Elec       q    Type
REMARK                         _______ _______ _______ _____ _____    ______ ____
ROOT
ATOM      1  O   UNL     1       1.458   3.932  18.906  0.00  0.00    +0.000 OA
ATOM      2  C   UNL     1       2.326   4.300  18.118  0.00  0.00    +0.000 C 
ATOM      3  N   UNL     1       2.578   5.621  17.813  0.00  0.00    +0.000 N 
ATOM      4  H   UNL     1       3.110   5.737  16.949  0.00  0.00    +0.000 HD
ENDROOT
BRANCH   3   5
ATOM      5  C   UNL     1       1.795   6.770  18.311  0.00  0.00    +0.000 C 
ATOM      6  C   UNL     1       2.094   7.358  19.702  0.00  0.00    +0.000 C 
ATOM      7  N   UNL     1       2.067   8.747  19.124  0.00  0.00    +0.000 NA
ATOM      8  C   UNL     1       2.305   8.129  17.789  0.00  0.00    +0.000 C 
BRANCH   7   9
ATOM      9  C   UNL     1       0.717   9.356  19.223  0.00  0.00    +0.000 C 
ATOM     10  C   UNL     1       0.198   9.273  20.680  0.00  0.00    +0.000 C 
ATOM     11  C   UNL     1       0.696  10.366  21.623  0.00  0.00    +0.000 C 
ATOM     12  C   UNL     1       0.572  11.794  21.076  0.00  0.00    +0.000 C 
ATOM     13  C   UNL     1       1.197  11.881  19.678  0.00  0.00    +0.000 C 
ATOM     14  C   UNL     1       0.702  10.819  18.699  0.00  0.00    +0.000 C 
BRANCH  12  15
ATOM     15  C   UNL     1      -0.843  12.370  21.170  0.00  0.00    +0.000 A 
ATOM     16  C   UNL     1      -1.779  12.216  20.130  0.00  0.00    +0.000 A 
ATOM     17  C   UNL     1      -3.080  12.706  20.225  0.00  0.00    +0.000 A 
ATOM     18  C   UNL     1      -3.483  13.384  21.367  0.00  0.00    +0.000 A 
ATOM     19  C   UNL     1      -2.580  13.570  22.409  0.00  0.00    +0.000 A 
ATOM     20  C   UNL     1      -1.277  13.065  22.309  0.00  0.00    +0.000 A 
BRANCH  20  21
ATOM     21  O   UNL     1      -0.413  13.255  23.353  0.00  0.00    +0.000 OA
ATOM     22  H   UNL     1      -0.928  13.373  24.168  0.00  0.00    +0.000 HD
ENDBRANCH  20  21
ENDBRANCH  12  15
ENDBRANCH   7   9
ENDBRANCH   3   5
BRANCH   2  23
ATOM     23  C   UNL     1       3.209   3.307  17.338  0.00  0.00    +0.000 C 
BRANCH  23  24
ATOM     24  N   UNL     1       4.476   3.026  18.037  0.00  0.00    +0.000 N 
ATOM     25  H   UNL     1       4.843   2.116  17.765  0.00  0.00    +0.000 HD
BRANCH  24  26
ATOM     26  C   UNL     1       5.481   4.006  17.943  0.00  0.00    +0.000 A 
ATOM     27  N   UNL     1       5.943   4.548  19.088  0.00  0.00    +0.000 NA
ATOM     28  C   UNL     1       6.921   5.454  18.977  0.00  0.00    +0.000 A 
ATOM     29  N   UNL     1       7.457   5.896  17.840  0.00  0.00    +0.000 NA
ATOM     30  C   UNL     1       7.009   5.348  16.712  0.00  0.00    +0.000 A 
ATOM     31  C   UNL     1       7.580   5.776  15.522  0.00  0.00    +0.000 A 
ATOM     32  C   UNL     1       7.216   5.235  14.289  0.00  0.00    +0.000 A 
ATOM     33  C   UNL     1       6.253   4.227  14.220  0.00  0.00    +0.000 A 
ATOM     34  C   UNL     1       5.646   3.803  15.418  0.00  0.00    +0.000 A 
ATOM     35  C   UNL     1       6.005   4.364  16.678  0.00  0.00    +0.000 A 
BRANCH  33  36
ATOM     36  C   UNL     1       5.892   3.600  12.892  0.00  0.00    +0.000 C 
ATOM     37  F   UNL     1       6.138   2.261  12.843  0.00  0.00    +0.000 F 
ATOM     38  F   UNL     1       4.574   3.747  12.590  0.00  0.00    +0.000 F 
ATOM     39  F   UNL     1       6.582   4.144  11.853  0.00  0.00    +0.000 F 
ENDBRANCH  33  36
ENDBRANCH  24  26
ENDBRANCH  23  24
ENDBRANCH   2  23
TORSDOF 8
ENDMDL
