MODEL 1
REMARK VINA RESULT:      -6.2      0.000      0.000
REMARK  Name = 
REMARK  6 active torsions:
REMARK  status: ('A' for Active; 'I' for Inactive)
REMARK    1  A    between atoms: C_1  and  C_2
REMARK    2  A    between atoms: C_2  and  C_3
REMARK    3  A    between atoms: C_7  and  C_8
REMARK    4  A    between atoms: C_8  and  C_9
REMARK    5  A    between atoms: C_8  and  C_10
REMARK    6  A    between atoms: C_13  and  O_14
REMARK                            x       y       z     vdW  Elec       q    Type
REMARK                         _______ _______ _______ _____ _____    ______ ____
ROOT
ATOM      1  C   UNL     1       2.831   3.260  19.825  0.00  0.00    +0.000 A 
ATOM      2  C   UNL     1       1.720   3.909  19.281  0.00  0.00    +0.000 A 
ATOM      3  C   UNL     1       1.801   4.510  18.022  0.00  0.00    +0.000 A 
ATOM      4  C   UNL     1       3.020   4.510  17.326  0.00  0.00    +0.000 A 
ATOM      5  C   UNL     1       4.157   3.865  17.842  0.00  0.00    +0.000 A 
ATOM      6  C   UNL     1       4.007   3.178  19.059  0.00  0.00    +0.000 A 
ENDROOT
BRANCH   1   8
ATOM      7  C   UNL     1       1.358   2.588  21.787  0.00  0.00    +0.000 C 
ATOM      8  C   UNL     1       2.766   2.729  21.238  0.00  0.00    +0.000 C 
ENDBRANCH   1   8
BRANCH   5   9
ATOM      9  C   UNL     1       5.504   4.119  17.162  0.00  0.00    +0.000 C 
ATOM     10  C   UNL     1       5.328   4.273  15.641  0.00  0.00    +0.000 C 
BRANCH   9  11
ATOM     11  C   UNL     1       6.269   5.316  17.686  0.00  0.00    +0.000 C 
ATOM     12  C   UNL     1       6.587   5.540  19.142  0.00  0.00    +0.000 C 
ATOM     13  C   UNL     1       7.673   5.092  18.207  0.00  0.00    +0.000 C 
ENDBRANCH   9  11
ENDBRANCH   5   9
BRANCH   6  14
ATOM     14  O   UNL     1       5.015   2.384  19.524  0.00  0.00    +0.000 OA
ATOM     15  H   UNL     1       5.368   1.948  18.724  0.00  0.00    +0.000 HD
ENDBRANCH   6  14
TORSDOF 4
ENDMDL
MODEL 2
REMARK VINA RESULT:      -6.1      1.315      4.519
REMARK  Name = 
REMARK  6 active torsions:
REMARK  status: ('A' for Active; 'I' for Inactive)
REMARK    1  A    between atoms: C_1  and  C_2
REMARK    2  A    between atoms: C_2  and  C_3
REMARK    3  A    between atoms: C_7  and  C_8
REMARK    4  A    between atoms: C_8  and  C_9
REMARK    5  A    between atoms: C_8  and  C_10
REMARK    6  A    between atoms: C_13  and  O_14
REMARK                            x       y       z     vdW  Elec       q    Type
REMARK                         _______ _______ _______ _____ _____    ______ ____
ROOT
ATOM      1  C   UNL     1       5.662   5.268  18.136  0.00  0.00    +0.000 A 
ATOM      2  C   UNL     1       5.089   6.431  17.614  0.00  0.00    +0.000 A 
ATOM      3  C   UNL     1       3.701   6.582  17.589  0.00  0.00    +0.000 A 
ATOM      4  C   UNL     1       2.876   5.539  18.040  0.00  0.00    +0.000 A 
ATOM      5  C   UNL     1       3.418   4.357  18.573  0.00  0.00    +0.000 A 
ATOM      6  C   UNL     1       4.817   4.286  18.684  0.00  0.00    +0.000 A 
ENDROOT
BRANCH   1   8
ATOM      7  C   UNL     1       7.955   5.774  19.116  0.00  0.00    +0.000 C 
ATOM      8  C   UNL     1       7.156   5.065  18.038  0.00  0.00    +0.000 C 
ENDBRANCH   1   8
BRANCH   5   9
ATOM      9  C   UNL     1       2.480   3.171  18.806  0.00  0.00    +0.000 C 
ATOM     10  C   UNL     1       2.881   1.976  17.921  0.00  0.00    +0.000 C 
BRANCH   9  11
ATOM     11  C   UNL     1       2.387   2.702  20.242  0.00  0.00    +0.000 C 
ATOM     12  C   UNL     1       2.311   3.629  21.427  0.00  0.00    +0.000 C 
ATOM     13  C   UNL     1       1.077   2.905  20.975  0.00  0.00    +0.000 C 
ENDBRANCH   9  11
ENDBRANCH   5   9
BRANCH   6  14
ATOM     14  O   UNL     1       5.399   3.249  19.355  0.00  0.00    +0.000 OA
ATOM     15  H   UNL     1       4.654   2.659  19.579  0.00  0.00    +0.000 HD
ENDBRANCH   6  14
TORSDOF 4
ENDMDL
MODEL 3
REMARK VINA RESULT:      -6.1      1.675      4.903
REMARK  Name = 
REMARK  6 active torsions:
REMARK  status: ('A' for Active; 'I' for Inactive)
REMARK    1  A    between atoms: C_1  and  C_2
REMARK    2  A    between atoms: C_2  and  C_3
REMARK    3  A    between atoms: C_7  and  C_8
REMARK    4  A    between atoms: C_8  and  C_9
REMARK    5  A    between atoms: C_8  and  C_10
REMARK    6  A    between atoms: C_13  and  O_14
REMARK                            x       y       z     vdW  Elec       q    Type
REMARK                         _______ _______ _______ _____ _____    ______ ____
ROOT
ATOM      1  C   UNL     1       5.759   5.301  17.379  0.00  0.00    +0.000 A 
ATOM      2  C   UNL     1       5.293   6.510  16.856  0.00  0.00    +0.000 A 
ATOM      3  C   UNL     1       4.104   7.070  17.330  0.00  0.00    +0.000 A 
ATOM      4  C   UNL     1       3.346   6.389  18.295  0.00  0.00    +0.000 A 
ATOM      5  C   UNL     1       3.785   5.172  18.844  0.00  0.00    +0.000 A 
ATOM      6  C   UNL     1       5.039   4.695  18.424  0.00  0.00    +0.000 A 
ENDROOT
BRANCH   1   8
ATOM      7  C   UNL     1       6.954   4.581  15.252  0.00  0.00    +0.000 C 
ATOM      8  C   UNL     1       6.975   4.644  16.768  0.00  0.00    +0.000 C 
ENDBRANCH   1   8
BRANCH   5   9
ATOM      9  C   UNL     1       2.802   4.363  19.691  0.00  0.00    +0.000 C 
ATOM     10  C   UNL     1       1.985   5.288  20.613  0.00  0.00    +0.000 C 
BRANCH   9  11
ATOM     11  C   UNL     1       1.844   3.494  18.904  0.00  0.00    +0.000 C 
ATOM     12  C   UNL     1       2.255   2.628  17.742  0.00  0.00    +0.000 C 
ATOM     13  C   UNL     1       1.947   1.992  19.065  0.00  0.00    +0.000 C 
ENDBRANCH   9  11
ENDBRANCH   5   9
BRANCH   6  14
ATOM     14  O   UNL     1       5.605   3.620  19.047  0.00  0.00    +0.000 OA
ATOM     15  H   UNL     1       6.255   3.281  18.400  0.00  0.00    +0.000 HD
ENDBRANCH   6  14
TORSDOF 4
ENDMDL
MODEL 4
REMARK VINA RESULT:      -6.1      1.202      1.320
REMARK  Name = 
REMARK  6 active torsions:
REMARK  status: ('A' for Active; 'I' for Inactive)
REMARK    1  A    between atoms: C_1  and  C_2
REMARK    2  A    between atoms: C_2  and  C_3
REMARK    3  A    between atoms: C_7  and  C_8
REMARK    4  A    between atoms: C_8  and  C_9
REMARK    5  A    between atoms: C_8  and  C_10
REMARK    6  A    between atoms: C_13  and  O_14
REMARK                            x       y       z     vdW  Elec       q    Type
REMARK                         _______ _______ _______ _____ _____    ______ ____
ROOT
ATOM      1  C   UNL     1       2.885   3.039  19.657  0.00  0.00    +0.000 A 
ATOM      2  C   UNL     1       1.654   3.161  19.008  0.00  0.00    +0.000 A 
ATOM      3  C   UNL     1       1.599   3.580  17.677  0.00  0.00    +0.000 A 
ATOM      4  C   UNL     1       2.780   3.932  17.005  0.00  0.00    +0.000 A 
ATOM      5  C   UNL     1       4.036   3.819  17.626  0.00  0.00    +0.000 A 
ATOM      6  C   UNL     1       4.062   3.290  18.928  0.00  0.00    +0.000 A 
ENDROOT
BRANCH   1   8
ATOM      7  C   UNL     1       1.555   2.642  21.789  0.00  0.00    +0.000 C 
ATOM      8  C   UNL     1       2.921   2.710  21.132  0.00  0.00    +0.000 C 
ENDBRANCH   1   8
BRANCH   5   9
ATOM      9  C   UNL     1       5.245   4.454  16.937  0.00  0.00    +0.000 C 
ATOM     10  C   UNL     1       5.682   3.617  15.721  0.00  0.00    +0.000 C 
BRANCH   9  11
ATOM     11  C   UNL     1       5.047   5.888  16.493  0.00  0.00    +0.000 C 
ATOM     12  C   UNL     1       4.441   6.961  17.360  0.00  0.00    +0.000 C 
ATOM     13  C   UNL     1       5.922   6.954  17.117  0.00  0.00    +0.000 C 
ENDBRANCH   9  11
ENDBRANCH   5   9
BRANCH   6  14
ATOM     14  O   UNL     1       5.254   2.986  19.520  0.00  0.00    +0.000 OA
ATOM     15  H   UNL     1       5.867   2.854  18.771  0.00  0.00    +0.000 HD
ENDBRANCH   6  14
TORSDOF 4
ENDMDL
MODEL 5
REMARK VINA RESULT:      -6.0      1.818      4.756
REMARK  Name = 
REMARK  6 active torsions:
REMARK  status: ('A' for Active; 'I' for Inactive)
REMARK    1  A    between atoms: C_1  and  C_2
REMARK    2  A    between atoms: C_2  and  C_3
REMARK    3  A    between atoms: C_7  and  C_8
REMARK    4  A    between atoms: C_8  and  C_9
REMARK    5  A    between atoms: C_8  and  C_10
REMARK    6  A    between atoms: C_13  and  O_14
REMARK                            x       y       z     vdW  Elec       q    Type
REMARK                         _______ _______ _______ _____ _____    ______ ____
ROOT
ATOM      1  C   UNL     1       5.207   6.060  17.877  0.00  0.00    +0.000 A 
ATOM      2  C   UNL     1       4.263   7.022  17.509  0.00  0.00    +0.000 A 
ATOM      3  C   UNL     1       2.968   6.974  18.032  0.00  0.00    +0.000 A 
ATOM      4  C   UNL     1       2.599   5.924  18.888  0.00  0.00    +0.000 A 
ATOM      5  C   UNL     1       3.523   4.941  19.280  0.00  0.00    +0.000 A 
ATOM      6  C   UNL     1       4.844   5.083  18.822  0.00  0.00    +0.000 A 
ENDROOT
BRANCH   1   8
ATOM      7  C   UNL     1       7.409   7.275  17.491  0.00  0.00    +0.000 C 
ATOM      8  C   UNL     1       6.561   6.049  17.204  0.00  0.00    +0.000 C 
ENDBRANCH   1   8
BRANCH   5   9
ATOM      9  C   UNL     1       2.996   3.697  19.998  0.00  0.00    +0.000 C 
ATOM     10  C   UNL     1       1.946   4.082  21.056  0.00  0.00    +0.000 C 
BRANCH   9  11
ATOM     11  C   UNL     1       2.407   2.637  19.092  0.00  0.00    +0.000 C 
ATOM     12  C   UNL     1       2.631   2.584  17.603  0.00  0.00    +0.000 C 
ATOM     13  C   UNL     1       3.345   1.610  18.493  0.00  0.00    +0.000 C 
ENDBRANCH   9  11
ENDBRANCH   5   9
BRANCH   6  14
ATOM     14  O   UNL     1       5.828   4.271  19.307  0.00  0.00    +0.000 OA
ATOM     15  H   UNL     1       6.564   4.880  19.512  0.00  0.00    +0.000 HD
ENDBRANCH   6  14
TORSDOF 4
ENDMDL
MODEL 6
REMARK VINA RESULT:      -6.0      0.869      1.857
REMARK  Name = 
REMARK  6 active torsions:
REMARK  status: ('A' for Active; 'I' for Inactive)
REMARK    1  A    between atoms: C_1  and  C_2
REMARK    2  A    between atoms: C_2  and  C_3
REMARK    3  A    between atoms: C_7  and  C_8
REMARK    4  A    between atoms: C_8  and  C_9
REMARK    5  A    between atoms: C_8  and  C_10
REMARK    6  A    between atoms: C_13  and  O_14
REMARK                            x       y       z     vdW  Elec       q    Type
REMARK                         _______ _______ _______ _____ _____    ______ ____
ROOT
ATOM      1  C   UNL     1       3.067   3.564  19.614  0.00  0.00    +0.000 A 
ATOM      2  C   UNL     1       1.963   4.262  19.120  0.00  0.00    +0.000 A 
ATOM      3  C   UNL     1       2.123   5.200  18.097  0.00  0.00    +0.000 A 
ATOM      4  C   UNL     1       3.406   5.482  17.602  0.00  0.00    +0.000 A 
ATOM      5  C   UNL     1       4.539   4.798  18.074  0.00  0.00    +0.000 A 
ATOM      6  C   UNL     1       4.325   3.784  19.025  0.00  0.00    +0.000 A 
ENDROOT
BRANCH   1   8
ATOM      7  C   UNL     1       1.636   2.900  21.610  0.00  0.00    +0.000 C 
ATOM      8  C   UNL     1       2.899   2.650  20.806  0.00  0.00    +0.000 C 
ENDBRANCH   1   8
BRANCH   5   9
ATOM      9  C   UNL     1       5.920   5.327  17.683  0.00  0.00    +0.000 C 
ATOM     10  C   UNL     1       6.782   5.580  18.933  0.00  0.00    +0.000 C 
BRANCH   9  11
ATOM     11  C   UNL     1       6.696   4.443  16.729  0.00  0.00    +0.000 C 
ATOM     12  C   UNL     1       6.087   3.755  15.535  0.00  0.00    +0.000 C 
ATOM     13  C   UNL     1       6.957   4.961  15.331  0.00  0.00    +0.000 C 
ENDBRANCH   9  11
ENDBRANCH   5   9
BRANCH   6  14
ATOM     14  O   UNL     1       5.352   2.962  19.391  0.00  0.00    +0.000 OA
ATOM     15  H   UNL     1       5.050   2.557  20.226  0.00  0.00    +0.000 HD
ENDBRANCH   6  14
TORSDOF 4
ENDMDL
MODEL 7
REMARK VINA RESULT:      -6.0      1.798      5.085
REMARK  Name = 
REMARK  6 active torsions:
REMARK  status: ('A' for Active; 'I' for Inactive)
REMARK    1  A    between atoms: C_1  and  C_2
REMARK    2  A    between atoms: C_2  and  C_3
REMARK    3  A    between atoms: C_7  and  C_8
REMARK    4  A    between atoms: C_8  and  C_9
REMARK    5  A    between atoms: C_8  and  C_10
REMARK    6  A    between atoms: C_13  and  O_14
REMARK                            x       y       z     vdW  Elec       q    Type
REMARK                         _______ _______ _______ _____ _____    ______ ____
ROOT
ATOM      1  C   UNL     1       5.317   4.818  16.434  0.00  0.00    +0.000 A 
ATOM      2  C   UNL     1       5.192   6.155  16.049  0.00  0.00    +0.000 A 
ATOM      3  C   UNL     1       4.375   7.024  16.776  0.00  0.00    +0.000 A 
ATOM      4  C   UNL     1       3.633   6.538  17.865  0.00  0.00    +0.000 A 
ATOM      5  C   UNL     1       3.736   5.200  18.281  0.00  0.00    +0.000 A 
ATOM      6  C   UNL     1       4.651   4.383  17.594  0.00  0.00    +0.000 A 
ENDROOT
BRANCH   1   8
ATOM      7  C   UNL     1       5.893   4.061  14.074  0.00  0.00    +0.000 C 
ATOM      8  C   UNL     1       6.100   3.862  15.564  0.00  0.00    +0.000 C 
ENDBRANCH   1   8
BRANCH   5   9
ATOM      9  C   UNL     1       2.720   4.678  19.299  0.00  0.00    +0.000 C 
ATOM     10  C   UNL     1       2.187   5.827  20.176  0.00  0.00    +0.000 C 
BRANCH   9  11
ATOM     11  C   UNL     1       1.543   3.935  18.705  0.00  0.00    +0.000 C 
ATOM     12  C   UNL     1       1.567   2.472  18.345  0.00  0.00    +0.000 C 
ATOM     13  C   UNL     1       0.830   2.919  19.573  0.00  0.00    +0.000 C 
ENDBRANCH   9  11
ENDBRANCH   5   9
BRANCH   6  14
ATOM     14  O   UNL     1       4.932   3.131  18.058  0.00  0.00    +0.000 OA
ATOM     15  H   UNL     1       4.542   3.112  18.954  0.00  0.00    +0.000 HD
ENDBRANCH   6  14
TORSDOF 4
ENDMDL
MODEL 8
REMARK VINA RESULT:      -5.9      1.116      1.212
REMARK  Name = 
REMARK  6 active torsions:
REMARK  status: ('A' for Active; 'I' for Inactive)
REMARK    1  A    between atoms: C_1  and  C_2
REMARK    2  A    between atoms: C_2  and  C_3
REMARK    3  A    between atoms: C_7  and  C_8
REMARK    4  A    between atoms: C_8  and  C_9
REMARK    5  A    between atoms: C_8  and  C_10
REMARK    6  A    between atoms: C_13  and  O_14
REMARK                            x       y       z     vdW  Elec       q    Type
REMARK                         _______ _______ _______ _____ _____    ______ ____
ROOT
ATOM      1  C   UNL     1       2.743   3.786  19.040  0.00  0.00    +0.000 A 
ATOM      2  C   UNL     1       2.081   5.005  19.208  0.00  0.00    +0.000 A 
ATOM      3  C   UNL     1       2.470   6.125  18.469  0.00  0.00    +0.000 A 
ATOM      4  C   UNL     1       3.566   6.040  17.596  0.00  0.00    +0.000 A 
ATOM      5  C   UNL     1       4.253   4.830  17.401  0.00  0.00    +0.000 A 
ATOM      6  C   UNL     1       3.765   3.699  18.078  0.00  0.00    +0.000 A 
ENDROOT
BRANCH   1   8
ATOM      7  C   UNL     1       2.284   2.978  21.408  0.00  0.00    +0.000 C 
ATOM      8  C   UNL     1       2.397   2.620  19.938  0.00  0.00    +0.000 C 
ENDBRANCH   1   8
BRANCH   5   9
ATOM      9  C   UNL     1       5.581   4.866  16.642  0.00  0.00    +0.000 C 
ATOM     10  C   UNL     1       5.407   5.542  15.270  0.00  0.00    +0.000 C 
BRANCH   9  11
ATOM     11  C   UNL     1       6.719   5.542  17.376  0.00  0.00    +0.000 C 
ATOM     12  C   UNL     1       6.919   5.472  18.867  0.00  0.00    +0.000 C 
ATOM     13  C   UNL     1       7.807   4.669  17.964  0.00  0.00    +0.000 C 
ENDBRANCH   9  11
ENDBRANCH   5   9
BRANCH   6  14
ATOM     14  O   UNL     1       4.270   2.462  17.796  0.00  0.00    +0.000 OA
ATOM     15  H   UNL     1       4.832   2.251  18.567  0.00  0.00    +0.000 HD
ENDBRANCH   6  14
TORSDOF 4
ENDMDL
MODEL 9
REMARK VINA RESULT:      -5.9      1.570      2.449
REMARK  Name = 
REMARK  6 active torsions:
REMARK  status: ('A' for Active; 'I' for Inactive)
REMARK    1  A    between atoms: C_1  and  C_2
REMARK    2  A    between atoms: C_2  and  C_3
REMARK    3  A    between atoms: C_7  and  C_8
REMARK    4  A    between atoms: C_8  and  C_9
REMARK    5  A    between atoms: C_8  and  C_10
REMARK    6  A    between atoms: C_13  and  O_14
REMARK                            x       y       z     vdW  Elec       q    Type
REMARK                         _______ _______ _______ _____ _____    ______ ____
ROOT
ATOM      1  C   UNL     1       3.343   4.917  19.429  0.00  0.00    +0.000 A 
ATOM      2  C   UNL     1       2.559   6.007  19.044  0.00  0.00    +0.000 A 
ATOM      3  C   UNL     1       3.022   6.899  18.073  0.00  0.00    +0.000 A 
ATOM      4  C   UNL     1       4.302   6.731  17.523  0.00  0.00    +0.000 A 
ATOM      5  C   UNL     1       5.117   5.645  17.886  0.00  0.00    +0.000 A 
ATOM      6  C   UNL     1       4.575   4.708  18.782  0.00  0.00    +0.000 A 
ENDROOT
BRANCH   1   8
ATOM      7  C   UNL     1       1.437   3.597  20.477  0.00  0.00    +0.000 C 
ATOM      8  C   UNL     1       2.887   4.037  20.570  0.00  0.00    +0.000 C 
ENDBRANCH   1   8
BRANCH   5   9
ATOM      9  C   UNL     1       6.583   5.662  17.448  0.00  0.00    +0.000 C 
ATOM     10  C   UNL     1       7.518   5.655  18.672  0.00  0.00    +0.000 C 
BRANCH   9  11
ATOM     11  C   UNL     1       6.986   4.533  16.523  0.00  0.00    +0.000 C 
ATOM     12  C   UNL     1       6.043   3.851  15.567  0.00  0.00    +0.000 C 
ATOM     13  C   UNL     1       7.058   4.821  15.038  0.00  0.00    +0.000 C 
ENDBRANCH   9  11
ENDBRANCH   5   9
BRANCH   6  14
ATOM     14  O   UNL     1       5.237   3.542  19.036  0.00  0.00    +0.000 OA
ATOM     15  H   UNL     1       5.614   3.286  18.172  0.00  0.00    +0.000 HD
ENDBRANCH   6  14
TORSDOF 4
ENDMDL
