MODEL 1
REMARK VINA RESULT:      -7.7      0.000      0.000
REMARK  Name = 
REMARK  5 active torsions:
REMARK  status: ('A' for Active; 'I' for Inactive)
REMARK    1  A    between atoms: C_10  and  C_11
REMARK    2  A    between atoms: C_14  and  O_15
REMARK    3  A    between atoms: N_18  and  N_19
REMARK    4  A    between atoms: C_20  and  C_21
REMARK    5  A    between atoms: C_24  and  O_25
REMARK                            x       y       z     vdW  Elec       q    Type
REMARK                         _______ _______ _______ _____ _____    ______ ____
ROOT
ATOM      1  O   UNL     1       2.034   9.092  17.382  0.00  0.00    +0.000 OA
ATOM      2  C   UNL     1       1.988   8.374  18.380  0.00  0.00    +0.000 C 
ATOM      3  C   UNL     1       1.438   8.937  19.638  0.00  0.00    +0.000 A 
ATOM      4  C   UNL     1       1.037  10.280  19.691  0.00  0.00    +0.000 A 
ATOM      5  C   UNL     1       0.607  10.831  20.898  0.00  0.00    +0.000 A 
ATOM      6  C   UNL     1       0.579  10.044  22.046  0.00  0.00    +0.000 A 
ATOM      7  C   UNL     1       0.981   8.707  21.990  0.00  0.00    +0.000 A 
ATOM      8  C   UNL     1       1.394   8.132  20.782  0.00  0.00    +0.000 A 
ATOM      9  N   UNL     1       1.910   6.836  20.777  0.00  0.00    +0.000 N 
ATOM     10  C   UNL     1       1.925   6.167  19.482  0.00  0.00    +0.000 C 
ATOM     11  N   UNL     1       2.462   7.056  18.451  0.00  0.00    +0.000 N 
ATOM     12  H   UNL     1       1.547   6.242  21.515  0.00  0.00    +0.000 HD
ENDROOT
BRANCH  10  13
ATOM     13  C   UNL     1       2.737   4.885  19.653  0.00  0.00    +0.000 A 
ATOM     14  C   UNL     1       2.129   3.624  19.539  0.00  0.00    +0.000 A 
ATOM     15  C   UNL     1       2.881   2.456  19.694  0.00  0.00    +0.000 A 
ATOM     16  C   UNL     1       4.245   2.548  19.961  0.00  0.00    +0.000 A 
ATOM     17  C   UNL     1       4.869   3.781  20.072  0.00  0.00    +0.000 A 
ATOM     18  C   UNL     1       4.118   4.947  19.923  0.00  0.00    +0.000 A 
BRANCH  16  19
ATOM     19  O   UNL     1       5.014   1.432  20.121  0.00  0.00    +0.000 OA
ATOM     20  H   UNL     1       4.535   0.805  20.686  0.00  0.00    +0.000 HD
ENDBRANCH  16  19
ENDBRANCH  10  13
BRANCH  11  21
ATOM     21  N   UNL     1       3.015   6.439  17.330  0.00  0.00    +0.000 NA
ATOM     22  C   UNL     1       4.303   6.303  17.332  0.00  0.00    +0.000 C 
BRANCH  22  23
ATOM     23  C   UNL     1       5.008   5.546  16.278  0.00  0.00    +0.000 A 
ATOM     24  C   UNL     1       5.475   6.184  15.120  0.00  0.00    +0.000 A 
ATOM     25  C   UNL     1       6.048   5.429  14.096  0.00  0.00    +0.000 A 
ATOM     26  C   UNL     1       6.147   4.047  14.236  0.00  0.00    +0.000 A 
ATOM     27  C   UNL     1       5.695   3.410  15.388  0.00  0.00    +0.000 A 
ATOM     28  C   UNL     1       5.124   4.161  16.414  0.00  0.00    +0.000 A 
BRANCH  26  29
ATOM     29  O   UNL     1       6.677   3.267  13.250  0.00  0.00    +0.000 OA
ATOM     30  H   UNL     1       6.253   3.501  12.409  0.00  0.00    +0.000 HD
ENDBRANCH  26  29
ENDBRANCH  22  23
ENDBRANCH  11  21
TORSDOF 5
ENDMDL
MODEL 2
REMARK VINA RESULT:      -7.6      2.101      6.998
REMARK  Name = 
REMARK  5 active torsions:
REMARK  status: ('A' for Active; 'I' for Inactive)
REMARK    1  A    between atoms: C_10  and  C_11
REMARK    2  A    between atoms: C_14  and  O_15
REMARK    3  A    between atoms: N_18  and  N_19
REMARK    4  A    between atoms: C_20  and  C_21
REMARK    5  A    between atoms: C_24  and  O_25
REMARK                            x       y       z     vdW  Elec       q    Type
REMARK                         _______ _______ _______ _____ _____    ______ ____
ROOT
ATOM      1  O   UNL     1       5.994   7.499  16.291  0.00  0.00    +0.000 OA
ATOM      2  C   UNL     1       5.604   6.332  16.299  0.00  0.00    +0.000 C 
ATOM      3  C   UNL     1       6.107   5.406  15.255  0.00  0.00    +0.000 A 
ATOM      4  C   UNL     1       6.965   5.877  14.250  0.00  0.00    +0.000 A 
ATOM      5  C   UNL     1       7.364   5.027  13.219  0.00  0.00    +0.000 A 
ATOM      6  C   UNL     1       6.907   3.712  13.192  0.00  0.00    +0.000 A 
ATOM      7  C   UNL     1       6.051   3.246  14.194  0.00  0.00    +0.000 A 
ATOM      8  C   UNL     1       5.660   4.080  15.248  0.00  0.00    +0.000 A 
ATOM      9  N   UNL     1       4.707   3.632  16.163  0.00  0.00    +0.000 N 
ATOM     10  C   UNL     1       4.658   4.353  17.429  0.00  0.00    +0.000 C 
ATOM     11  N   UNL     1       4.668   5.798  17.197  0.00  0.00    +0.000 N 
ATOM     12  H   UNL     1       4.696   2.626  16.291  0.00  0.00    +0.000 HD
ENDROOT
BRANCH  10  13
ATOM     13  C   UNL     1       3.411   3.872  18.167  0.00  0.00    +0.000 A 
ATOM     14  C   UNL     1       3.444   3.613  19.548  0.00  0.00    +0.000 A 
ATOM     15  C   UNL     1       2.296   3.176  20.215  0.00  0.00    +0.000 A 
ATOM     16  C   UNL     1       1.112   2.999  19.504  0.00  0.00    +0.000 A 
ATOM     17  C   UNL     1       1.054   3.254  18.142  0.00  0.00    +0.000 A 
ATOM     18  C   UNL     1       2.199   3.685  17.474  0.00  0.00    +0.000 A 
BRANCH  16  19
ATOM     19  O   UNL     1      -0.029   2.572  20.118  0.00  0.00    +0.000 OA
ATOM     20  H   UNL     1       0.216   1.996  20.859  0.00  0.00    +0.000 HD
ENDBRANCH  16  19
ENDBRANCH  10  13
BRANCH  11  21
ATOM     21  N   UNL     1       4.119   6.590  18.204  0.00  0.00    +0.000 NA
ATOM     22  C   UNL     1       3.008   7.189  17.915  0.00  0.00    +0.000 C 
BRANCH  22  23
ATOM     23  C   UNL     1       2.245   7.945  18.928  0.00  0.00    +0.000 A 
ATOM     24  C   UNL     1       2.029   7.421  20.210  0.00  0.00    +0.000 A 
ATOM     25  C   UNL     1       1.221   8.111  21.115  0.00  0.00    +0.000 A 
ATOM     26  C   UNL     1       0.635   9.315  20.730  0.00  0.00    +0.000 A 
ATOM     27  C   UNL     1       0.855   9.845  19.463  0.00  0.00    +0.000 A 
ATOM     28  C   UNL     1       1.664   9.160  18.557  0.00  0.00    +0.000 A 
BRANCH  26  29
ATOM     29  O   UNL     1      -0.181  10.010  21.573  0.00  0.00    +0.000 OA
ATOM     30  H   UNL     1       0.325  10.739  21.966  0.00  0.00    +0.000 HD
ENDBRANCH  26  29
ENDBRANCH  22  23
ENDBRANCH  11  21
TORSDOF 5
ENDMDL
MODEL 3
REMARK VINA RESULT:      -7.6      4.429     10.487
REMARK  Name = 
REMARK  5 active torsions:
REMARK  status: ('A' for Active; 'I' for Inactive)
REMARK    1  A    between atoms: C_10  and  C_11
REMARK    2  A    between atoms: C_14  and  O_15
REMARK    3  A    between atoms: N_18  and  N_19
REMARK    4  A    between atoms: C_20  and  C_21
REMARK    5  A    between atoms: C_24  and  O_25
REMARK                            x       y       z     vdW  Elec       q    Type
REMARK                         _______ _______ _______ _____ _____    ______ ____
ROOT
ATOM      1  O   UNL     1       0.594   8.910  22.243  0.00  0.00    +0.000 OA
ATOM      2  C   UNL     1       0.873   9.400  21.149  0.00  0.00    +0.000 C 
ATOM      3  C   UNL     1       1.454   8.521  20.103  0.00  0.00    +0.000 A 
ATOM      4  C   UNL     1       1.728   7.176  20.387  0.00  0.00    +0.000 A 
ATOM      5  C   UNL     1       2.357   6.376  19.433  0.00  0.00    +0.000 A 
ATOM      6  C   UNL     1       2.710   6.920  18.201  0.00  0.00    +0.000 A 
ATOM      7  C   UNL     1       2.437   8.262  17.922  0.00  0.00    +0.000 A 
ATOM      8  C   UNL     1       1.786   9.071  18.859  0.00  0.00    +0.000 A 
ATOM      9  N   UNL     1       1.639  10.435  18.608  0.00  0.00    +0.000 N 
ATOM     10  C   UNL     1       0.619  11.118  19.396  0.00  0.00    +0.000 C 
ATOM     11  N   UNL     1       0.734  10.753  20.809  0.00  0.00    +0.000 N 
ATOM     12  H   UNL     1       1.589  10.672  17.623  0.00  0.00    +0.000 HD
ENDROOT
BRANCH  10  13
ATOM     13  C   UNL     1       0.791  12.614  19.145  0.00  0.00    +0.000 A 
ATOM     14  C   UNL     1      -0.320  13.437  18.900  0.00  0.00    +0.000 A 
ATOM     15  C   UNL     1      -0.153  14.807  18.675  0.00  0.00    +0.000 A 
ATOM     16  C   UNL     1       1.126  15.356  18.697  0.00  0.00    +0.000 A 
ATOM     17  C   UNL     1       2.238  14.565  18.943  0.00  0.00    +0.000 A 
ATOM     18  C   UNL     1       2.073  13.198  19.162  0.00  0.00    +0.000 A 
BRANCH  16  19
ATOM     19  O   UNL     1       1.331  16.687  18.480  0.00  0.00    +0.000 OA
ATOM     20  H   UNL     1       0.483  17.150  18.566  0.00  0.00    +0.000 HD
ENDBRANCH  16  19
ENDBRANCH  10  13
BRANCH  11  21
ATOM     21  N   UNL     1       0.216  11.667  21.726  0.00  0.00    +0.000 NA
ATOM     22  C   UNL     1      -1.074  11.708  21.823  0.00  0.00    +0.000 C 
BRANCH  22  23
ATOM     23  C   UNL     1      -1.752  12.525  22.848  0.00  0.00    +0.000 A 
ATOM     24  C   UNL     1      -3.025  12.179  23.323  0.00  0.00    +0.000 A 
ATOM     25  C   UNL     1      -3.684  13.023  24.219  0.00  0.00    +0.000 A 
ATOM     26  C   UNL     1      -3.068  14.203  24.629  0.00  0.00    +0.000 A 
ATOM     27  C   UNL     1      -1.800  14.546  24.168  0.00  0.00    +0.000 A 
ATOM     28  C   UNL     1      -1.137  13.705  23.276  0.00  0.00    +0.000 A 
BRANCH  26  29
ATOM     29  O   UNL     1      -3.686  15.069  25.482  0.00  0.00    +0.000 OA
ATOM     30  H   UNL     1      -3.737  14.657  26.360  0.00  0.00    +0.000 HD
ENDBRANCH  26  29
ENDBRANCH  22  23
ENDBRANCH  11  21
TORSDOF 5
ENDMDL
MODEL 4
REMARK VINA RESULT:      -7.5      1.929      6.774
REMARK  Name = 
REMARK  5 active torsions:
REMARK  status: ('A' for Active; 'I' for Inactive)
REMARK    1  A    between atoms: C_10  and  C_11
REMARK    2  A    between atoms: C_14  and  O_15
REMARK    3  A    between atoms: N_18  and  N_19
REMARK    4  A    between atoms: C_20  and  C_21
REMARK    5  A    between atoms: C_24  and  O_25
REMARK                            x       y       z     vdW  Elec       q    Type
REMARK                         _______ _______ _______ _____ _____    ______ ____
ROOT
ATOM      1  O   UNL     1       4.549   7.669  16.958  0.00  0.00    +0.000 OA
ATOM      2  C   UNL     1       4.494   6.465  17.209  0.00  0.00    +0.000 C 
ATOM      3  C   UNL     1       5.123   5.511  16.262  0.00  0.00    +0.000 A 
ATOM      4  C   UNL     1       5.713   5.979  15.080  0.00  0.00    +0.000 A 
ATOM      5  C   UNL     1       6.223   5.074  14.149  0.00  0.00    +0.000 A 
ATOM      6  C   UNL     1       6.142   3.707  14.399  0.00  0.00    +0.000 A 
ATOM      7  C   UNL     1       5.551   3.244  15.579  0.00  0.00    +0.000 A 
ATOM      8  C   UNL     1       5.056   4.140  16.533  0.00  0.00    +0.000 A 
ATOM      9  N   UNL     1       4.360   3.652  17.639  0.00  0.00    +0.000 N 
ATOM     10  C   UNL     1       4.244   4.568  18.767  0.00  0.00    +0.000 C 
ATOM     11  N   UNL     1       3.836   5.898  18.309  0.00  0.00    +0.000 N 
ATOM     12  H   UNL     1       4.636   2.720  17.925  0.00  0.00    +0.000 HD
ENDROOT
BRANCH  10  13
ATOM     13  C   UNL     1       3.257   3.942  19.749  0.00  0.00    +0.000 A 
ATOM     14  C   UNL     1       1.888   4.249  19.693  0.00  0.00    +0.000 A 
ATOM     15  C   UNL     1       0.992   3.668  20.595  0.00  0.00    +0.000 A 
ATOM     16  C   UNL     1       1.463   2.776  21.553  0.00  0.00    +0.000 A 
ATOM     17  C   UNL     1       2.810   2.452  21.626  0.00  0.00    +0.000 A 
ATOM     18  C   UNL     1       3.706   3.035  20.730  0.00  0.00    +0.000 A 
BRANCH  16  19
ATOM     19  O   UNL     1       0.622   2.189  22.453  0.00  0.00    +0.000 OA
ATOM     20  H   UNL     1       0.906   1.272  22.589  0.00  0.00    +0.000 HD
ENDBRANCH  16  19
ENDBRANCH  10  13
BRANCH  11  21
ATOM     21  N   UNL     1       3.196   6.705  19.249  0.00  0.00    +0.000 NA
ATOM     22  C   UNL     1       2.375   7.587  18.775  0.00  0.00    +0.000 C 
BRANCH  22  23
ATOM     23  C   UNL     1       1.527   8.413  19.658  0.00  0.00    +0.000 A 
ATOM     24  C   UNL     1       0.978   9.622  19.208  0.00  0.00    +0.000 A 
ATOM     25  C   UNL     1       0.264  10.431  20.094  0.00  0.00    +0.000 A 
ATOM     26  C   UNL     1       0.106  10.026  21.417  0.00  0.00    +0.000 A 
ATOM     27  C   UNL     1       0.639   8.822  21.866  0.00  0.00    +0.000 A 
ATOM     28  C   UNL     1       1.351   8.010  20.984  0.00  0.00    +0.000 A 
BRANCH  26  29
ATOM     29  O   UNL     1      -0.563  10.797  22.322  0.00  0.00    +0.000 OA
ATOM     30  H   UNL     1      -0.729  10.268  23.119  0.00  0.00    +0.000 HD
ENDBRANCH  26  29
ENDBRANCH  22  23
ENDBRANCH  11  21
TORSDOF 5
ENDMDL
MODEL 5
REMARK VINA RESULT:      -7.5      3.406      5.166
REMARK  Name = 
REMARK  5 active torsions:
REMARK  status: ('A' for Active; 'I' for Inactive)
REMARK    1  A    between atoms: C_10  and  C_11
REMARK    2  A    between atoms: C_14  and  O_15
REMARK    3  A    between atoms: N_18  and  N_19
REMARK    4  A    between atoms: C_20  and  C_21
REMARK    5  A    between atoms: C_24  and  O_25
REMARK                            x       y       z     vdW  Elec       q    Type
REMARK                         _______ _______ _______ _____ _____    ______ ____
ROOT
ATOM      1  O   UNL     1       3.456   1.768  17.419  0.00  0.00    +0.000 OA
ATOM      2  C   UNL     1       3.729   2.728  18.139  0.00  0.00    +0.000 C 
ATOM      3  C   UNL     1       2.924   2.950  19.366  0.00  0.00    +0.000 A 
ATOM      4  C   UNL     1       1.840   2.110  19.658  0.00  0.00    +0.000 A 
ATOM      5  C   UNL     1       1.030   2.376  20.762  0.00  0.00    +0.000 A 
ATOM      6  C   UNL     1       1.303   3.476  21.570  0.00  0.00    +0.000 A 
ATOM      7  C   UNL     1       2.384   4.312  21.275  0.00  0.00    +0.000 A 
ATOM      8  C   UNL     1       3.219   4.047  20.184  0.00  0.00    +0.000 A 
ATOM      9  N   UNL     1       4.211   4.965  19.837  0.00  0.00    +0.000 N 
ATOM     10  C   UNL     1       5.279   4.450  18.988  0.00  0.00    +0.000 C 
ATOM     11  N   UNL     1       4.724   3.681  17.874  0.00  0.00    +0.000 N 
ATOM     12  H   UNL     1       4.564   5.508  20.617  0.00  0.00    +0.000 HD
ENDROOT
BRANCH  10  13
ATOM     13  C   UNL     1       6.106   5.652  18.536  0.00  0.00    +0.000 A 
ATOM     14  C   UNL     1       7.428   5.826  18.977  0.00  0.00    +0.000 A 
ATOM     15  C   UNL     1       8.178   6.928  18.555  0.00  0.00    +0.000 A 
ATOM     16  C   UNL     1       7.607   7.856  17.689  0.00  0.00    +0.000 A 
ATOM     17  C   UNL     1       6.305   7.703  17.236  0.00  0.00    +0.000 A 
ATOM     18  C   UNL     1       5.555   6.607  17.660  0.00  0.00    +0.000 A 
BRANCH  16  19
ATOM     19  O   UNL     1       8.304   8.946  17.256  0.00  0.00    +0.000 OA
ATOM     20  H   UNL     1       9.251   8.740  17.287  0.00  0.00    +0.000 HD
ENDBRANCH  16  19
ENDBRANCH  10  13
BRANCH  11  21
ATOM     21  N   UNL     1       5.524   3.575  16.737  0.00  0.00    +0.000 NA
ATOM     22  C   UNL     1       5.027   4.063  15.644  0.00  0.00    +0.000 C 
BRANCH  22  23
ATOM     23  C   UNL     1       5.817   4.145  14.400  0.00  0.00    +0.000 A 
ATOM     24  C   UNL     1       6.960   4.952  14.321  0.00  0.00    +0.000 A 
ATOM     25  C   UNL     1       7.630   5.089  13.104  0.00  0.00    +0.000 A 
ATOM     26  C   UNL     1       7.152   4.420  11.979  0.00  0.00    +0.000 A 
ATOM     27  C   UNL     1       6.024   3.609  12.055  0.00  0.00    +0.000 A 
ATOM     28  C   UNL     1       5.353   3.468  13.269  0.00  0.00    +0.000 A 
BRANCH  26  29
ATOM     29  O   UNL     1       7.761   4.545  10.765  0.00  0.00    +0.000 OA
ATOM     30  H   UNL     1       7.112   4.344  10.071  0.00  0.00    +0.000 HD
ENDBRANCH  26  29
ENDBRANCH  22  23
ENDBRANCH  11  21
TORSDOF 5
ENDMDL
MODEL 6
REMARK VINA RESULT:      -7.5      0.971      1.316
REMARK  Name = 
REMARK  5 active torsions:
REMARK  status: ('A' for Active; 'I' for Inactive)
REMARK    1  A    between atoms: C_10  and  C_11
REMARK    2  A    between atoms: C_14  and  O_15
REMARK    3  A    between atoms: N_18  and  N_19
REMARK    4  A    between atoms: C_20  and  C_21
REMARK    5  A    between atoms: C_24  and  O_25
REMARK                            x       y       z     vdW  Elec       q    Type
REMARK                         _______ _______ _______ _____ _____    ______ ____
ROOT
ATOM      1  O   UNL     1       2.607   8.977  17.463  0.00  0.00    +0.000 OA
ATOM      2  C   UNL     1       2.378   8.095  18.290  0.00  0.00    +0.000 C 
ATOM      3  C   UNL     1       1.725   8.472  19.570  0.00  0.00    +0.000 A 
ATOM      4  C   UNL     1       1.435   9.816  19.842  0.00  0.00    +0.000 A 
ATOM      5  C   UNL     1       0.906  10.178  21.081  0.00  0.00    +0.000 A 
ATOM      6  C   UNL     1       0.670   9.200  22.043  0.00  0.00    +0.000 A 
ATOM      7  C   UNL     1       0.962   7.861  21.768  0.00  0.00    +0.000 A 
ATOM      8  C   UNL     1       1.472   7.478  20.522  0.00  0.00    +0.000 A 
ATOM      9  N   UNL     1       1.874   6.159  20.318  0.00  0.00    +0.000 N 
ATOM     10  C   UNL     1       1.993   5.742  18.926  0.00  0.00    +0.000 C 
ATOM     11  N   UNL     1       2.727   6.744  18.152  0.00  0.00    +0.000 N 
ATOM     12  H   UNL     1       1.373   5.481  20.883  0.00  0.00    +0.000 HD
ENDROOT
BRANCH  10  13
ATOM     13  C   UNL     1       2.667   4.372  18.928  0.00  0.00    +0.000 A 
ATOM     14  C   UNL     1       3.704   4.079  19.828  0.00  0.00    +0.000 A 
ATOM     15  C   UNL     1       4.313   2.820  19.823  0.00  0.00    +0.000 A 
ATOM     16  C   UNL     1       3.883   1.851  18.921  0.00  0.00    +0.000 A 
ATOM     17  C   UNL     1       2.856   2.115  18.026  0.00  0.00    +0.000 A 
ATOM     18  C   UNL     1       2.252   3.372  18.026  0.00  0.00    +0.000 A 
BRANCH  16  19
ATOM     19  O   UNL     1       4.452   0.612  18.883  0.00  0.00    +0.000 OA
ATOM     20  H   UNL     1       3.751  -0.047  18.765  0.00  0.00    +0.000 HD
ENDBRANCH  16  19
ENDBRANCH  10  13
BRANCH  11  21
ATOM     21  N   UNL     1       3.361   6.290  16.996  0.00  0.00    +0.000 NA
ATOM     22  C   UNL     1       4.623   6.019  17.108  0.00  0.00    +0.000 C 
BRANCH  22  23
ATOM     23  C   UNL     1       5.386   5.400  16.006  0.00  0.00    +0.000 A 
ATOM     24  C   UNL     1       6.725   5.744  15.772  0.00  0.00    +0.000 A 
ATOM     25  C   UNL     1       7.392   5.219  14.665  0.00  0.00    +0.000 A 
ATOM     26  C   UNL     1       6.717   4.358  13.802  0.00  0.00    +0.000 A 
ATOM     27  C   UNL     1       5.391   4.005  14.036  0.00  0.00    +0.000 A 
ATOM     28  C   UNL     1       4.722   4.525  15.143  0.00  0.00    +0.000 A 
BRANCH  26  29
ATOM     29  O   UNL     1       7.323   3.842  12.695  0.00  0.00    +0.000 OA
ATOM     30  H   UNL     1       7.641   4.576  12.144  0.00  0.00    +0.000 HD
ENDBRANCH  26  29
ENDBRANCH  22  23
ENDBRANCH  11  21
TORSDOF 5
ENDMDL
MODEL 7
REMARK VINA RESULT:      -7.4      2.085      6.892
REMARK  Name = 
REMARK  5 active torsions:
REMARK  status: ('A' for Active; 'I' for Inactive)
REMARK    1  A    between atoms: C_10  and  C_11
REMARK    2  A    between atoms: C_14  and  O_15
REMARK    3  A    between atoms: N_18  and  N_19
REMARK    4  A    between atoms: C_20  and  C_21
REMARK    5  A    between atoms: C_24  and  O_25
REMARK                            x       y       z     vdW  Elec       q    Type
REMARK                         _______ _______ _______ _____ _____    ______ ____
ROOT
ATOM      1  O   UNL     1       5.916   7.550  16.330  0.00  0.00    +0.000 OA
ATOM      2  C   UNL     1       5.537   6.379  16.344  0.00  0.00    +0.000 C 
ATOM      3  C   UNL     1       6.066   5.447  15.317  0.00  0.00    +0.000 A 
ATOM      4  C   UNL     1       6.934   5.916  14.321  0.00  0.00    +0.000 A 
ATOM      5  C   UNL     1       7.358   5.060  13.305  0.00  0.00    +0.000 A 
ATOM      6  C   UNL     1       6.914   3.740  13.285  0.00  0.00    +0.000 A 
ATOM      7  C   UNL     1       6.047   3.276  14.278  0.00  0.00    +0.000 A 
ATOM      8  C   UNL     1       5.632   4.116  15.317  0.00  0.00    +0.000 A 
ATOM      9  N   UNL     1       4.669   3.668  16.222  0.00  0.00    +0.000 N 
ATOM     10  C   UNL     1       4.593   4.402  17.480  0.00  0.00    +0.000 C 
ATOM     11  N   UNL     1       4.593   5.845  17.233  0.00  0.00    +0.000 N 
ATOM     12  H   UNL     1       4.666   2.663  16.360  0.00  0.00    +0.000 HD
ENDROOT
BRANCH  10  13
ATOM     13  C   UNL     1       3.340   3.916  18.203  0.00  0.00    +0.000 A 
ATOM     14  C   UNL     1       2.135   3.722  17.509  0.00  0.00    +0.000 A 
ATOM     15  C   UNL     1       0.993   3.273  18.180  0.00  0.00    +0.000 A 
ATOM     16  C   UNL     1       1.056   3.015  19.546  0.00  0.00    +0.000 A 
ATOM     17  C   UNL     1       2.236   3.193  20.253  0.00  0.00    +0.000 A 
ATOM     18  C   UNL     1       3.374   3.646  19.586  0.00  0.00    +0.000 A 
BRANCH  16  19
ATOM     19  O   UNL     1      -0.036   2.578  20.238  0.00  0.00    +0.000 OA
ATOM     20  H   UNL     1      -0.012   2.962  21.129  0.00  0.00    +0.000 HD
ENDBRANCH  16  19
ENDBRANCH  10  13
BRANCH  11  21
ATOM     21  N   UNL     1       4.020   6.641  18.223  0.00  0.00    +0.000 NA
ATOM     22  C   UNL     1       2.916   7.240  17.905  0.00  0.00    +0.000 C 
BRANCH  22  23
ATOM     23  C   UNL     1       2.130   8.000  18.896  0.00  0.00    +0.000 A 
ATOM     24  C   UNL     1       1.597   9.259  18.584  0.00  0.00    +0.000 A 
ATOM     25  C   UNL     1       0.943   9.999  19.570  0.00  0.00    +0.000 A 
ATOM     26  C   UNL     1       0.830   9.477  20.857  0.00  0.00    +0.000 A 
ATOM     27  C   UNL     1       1.347   8.224  21.169  0.00  0.00    +0.000 A 
ATOM     28  C   UNL     1       1.999   7.480  20.186  0.00  0.00    +0.000 A 
BRANCH  26  29
ATOM     29  O   UNL     1       0.222  10.177  21.857  0.00  0.00    +0.000 OA
ATOM     30  H   UNL     1      -0.680  10.402  21.575  0.00  0.00    +0.000 HD
ENDBRANCH  26  29
ENDBRANCH  22  23
ENDBRANCH  11  21
TORSDOF 5
ENDMDL
MODEL 8
REMARK VINA RESULT:      -7.4      4.599      8.061
REMARK  Name = 
REMARK  5 active torsions:
REMARK  status: ('A' for Active; 'I' for Inactive)
REMARK    1  A    between atoms: C_10  and  C_11
REMARK    2  A    between atoms: C_14  and  O_15
REMARK    3  A    between atoms: N_18  and  N_19
REMARK    4  A    between atoms: C_20  and  C_21
REMARK    5  A    between atoms: C_24  and  O_25
REMARK                            x       y       z     vdW  Elec       q    Type
REMARK                         _______ _______ _______ _____ _____    ______ ____
ROOT
ATOM      1  O   UNL     1      -0.308  11.527  22.774  0.00  0.00    +0.000 OA
ATOM      2  C   UNL     1      -1.078  12.104  22.008  0.00  0.00    +0.000 C 
ATOM      3  C   UNL     1      -1.729  13.358  22.463  0.00  0.00    +0.000 A 
ATOM      4  C   UNL     1      -1.507  13.833  23.764  0.00  0.00    +0.000 A 
ATOM      5  C   UNL     1      -2.190  14.960  24.220  0.00  0.00    +0.000 A 
ATOM      6  C   UNL     1      -3.091  15.609  23.380  0.00  0.00    +0.000 A 
ATOM      7  C   UNL     1      -3.311  15.132  22.085  0.00  0.00    +0.000 A 
ATOM      8  C   UNL     1      -2.617  14.016  21.604  0.00  0.00    +0.000 A 
ATOM      9  N   UNL     1      -2.946  13.485  20.357  0.00  0.00    +0.000 N 
ATOM     10  C   UNL     1      -1.940  12.618  19.753  0.00  0.00    +0.000 C 
ATOM     11  N   UNL     1      -1.442  11.650  20.732  0.00  0.00    +0.000 N 
ATOM     12  H   UNL     1      -3.315  14.164  19.701  0.00  0.00    +0.000 HD
ENDROOT
BRANCH  10  13
ATOM     13  C   UNL     1      -2.590  11.963  18.537  0.00  0.00    +0.000 A 
ATOM     14  C   UNL     1      -3.960  11.653  18.529  0.00  0.00    +0.000 A 
ATOM     15  C   UNL     1      -4.546  11.056  17.409  0.00  0.00    +0.000 A 
ATOM     16  C   UNL     1      -3.764  10.771  16.293  0.00  0.00    +0.000 A 
ATOM     17  C   UNL     1      -2.410  11.073  16.275  0.00  0.00    +0.000 A 
ATOM     18  C   UNL     1      -1.823  11.664  17.393  0.00  0.00    +0.000 A 
BRANCH  16  19
ATOM     19  O   UNL     1      -4.297  10.187  15.181  0.00  0.00    +0.000 OA
ATOM     20  H   UNL     1      -4.077  10.732  14.410  0.00  0.00    +0.000 HD
ENDBRANCH  16  19
ENDBRANCH  10  13
BRANCH  11  21
ATOM     21  N   UNL     1      -0.903  10.472  20.217  0.00  0.00    +0.000 NA
ATOM     22  C   UNL     1       0.356  10.507  19.914  0.00  0.00    +0.000 C 
BRANCH  22  23
ATOM     23  C   UNL     1       1.088   9.297  19.490  0.00  0.00    +0.000 A 
ATOM     24  C   UNL     1       1.405   8.286  20.408  0.00  0.00    +0.000 A 
ATOM     25  C   UNL     1       2.184   7.201  20.003  0.00  0.00    +0.000 A 
ATOM     26  C   UNL     1       2.638   7.137  18.688  0.00  0.00    +0.000 A 
ATOM     27  C   UNL     1       2.318   8.132  17.770  0.00  0.00    +0.000 A 
ATOM     28  C   UNL     1       1.538   9.216  18.170  0.00  0.00    +0.000 A 
BRANCH  26  29
ATOM     29  O   UNL     1       3.423   6.107  18.256  0.00  0.00    +0.000 OA
ATOM     30  H   UNL     1       4.334   6.430  18.162  0.00  0.00    +0.000 HD
ENDBRANCH  26  29
ENDBRANCH  22  23
ENDBRANCH  11  21
TORSDOF 5
ENDMDL
MODEL 9
REMARK VINA RESULT:      -7.3      4.640      8.104
REMARK  Name = 
REMARK  5 active torsions:
REMARK  status: ('A' for Active; 'I' for Inactive)
REMARK    1  A    between atoms: C_10  and  C_11
REMARK    2  A    between atoms: C_14  and  O_15
REMARK    3  A    between atoms: N_18  and  N_19
REMARK    4  A    between atoms: C_20  and  C_21
REMARK    5  A    between atoms: C_24  and  O_25
REMARK                            x       y       z     vdW  Elec       q    Type
REMARK                         _______ _______ _______ _____ _____    ______ ____
ROOT
ATOM      1  O   UNL     1      -0.385  11.571  22.844  0.00  0.00    +0.000 OA
ATOM      2  C   UNL     1      -1.169  12.128  22.076  0.00  0.00    +0.000 C 
ATOM      3  C   UNL     1      -1.883  13.343  22.544  0.00  0.00    +0.000 A 
ATOM      4  C   UNL     1      -1.704  13.802  23.857  0.00  0.00    +0.000 A 
ATOM      5  C   UNL     1      -2.444  14.888  24.322  0.00  0.00    +0.000 A 
ATOM      6  C   UNL     1      -3.360  15.512  23.479  0.00  0.00    +0.000 A 
ATOM      7  C   UNL     1      -3.536  15.050  22.171  0.00  0.00    +0.000 A 
ATOM      8  C   UNL     1      -2.785  13.976  21.682  0.00  0.00    +0.000 A 
ATOM      9  N   UNL     1      -3.070  13.455  20.420  0.00  0.00    +0.000 N 
ATOM     10  C   UNL     1      -2.016  12.646  19.817  0.00  0.00    +0.000 C 
ATOM     11  N   UNL     1      -1.491  11.683  20.786  0.00  0.00    +0.000 N 
ATOM     12  H   UNL     1      -3.458  14.130  19.770  0.00  0.00    +0.000 HD
ENDROOT
BRANCH  10  13
ATOM     13  C   UNL     1      -2.616  11.987  18.578  0.00  0.00    +0.000 A 
ATOM     14  C   UNL     1      -1.827  11.724  17.446  0.00  0.00    +0.000 A 
ATOM     15  C   UNL     1      -2.385  11.117  16.317  0.00  0.00    +0.000 A 
ATOM     16  C   UNL     1      -3.732  10.768  16.319  0.00  0.00    +0.000 A 
ATOM     17  C   UNL     1      -4.530  11.012  17.427  0.00  0.00    +0.000 A 
ATOM     18  C   UNL     1      -3.977  11.622  18.551  0.00  0.00    +0.000 A 
BRANCH  16  19
ATOM     19  O   UNL     1      -4.315  10.176  15.237  0.00  0.00    +0.000 OA
ATOM     20  H   UNL     1      -4.351   9.219  15.389  0.00  0.00    +0.000 HD
ENDBRANCH  16  19
ENDBRANCH  10  13
BRANCH  11  21
ATOM     21  N   UNL     1      -0.891  10.540  20.258  0.00  0.00    +0.000 NA
ATOM     22  C   UNL     1       0.351  10.658  19.911  0.00  0.00    +0.000 C 
BRANCH  22  23
ATOM     23  C   UNL     1       1.148   9.497  19.469  0.00  0.00    +0.000 A 
ATOM     24  C   UNL     1       1.560   9.369  18.135  0.00  0.00    +0.000 A 
ATOM     25  C   UNL     1       2.226   8.214  17.723  0.00  0.00    +0.000 A 
ATOM     26  C   UNL     1       2.474   7.200  18.645  0.00  0.00    +0.000 A 
ATOM     27  C   UNL     1       2.078   7.327  19.973  0.00  0.00    +0.000 A 
ATOM     28  C   UNL     1       1.414   8.480  20.389  0.00  0.00    +0.000 A 
BRANCH  26  29
ATOM     29  O   UNL     1       3.100   6.044  18.280  0.00  0.00    +0.000 OA
ATOM     30  H   UNL     1       3.365   6.115  17.349  0.00  0.00    +0.000 HD
ENDBRANCH  26  29
ENDBRANCH  22  23
ENDBRANCH  11  21
TORSDOF 5
ENDMDL
