MODEL 1
REMARK VINA RESULT:      -8.5      0.000      0.000
REMARK  Name = 
REMARK  6 active torsions:
REMARK  status: ('A' for Active; 'I' for Inactive)
REMARK    1  A    between atoms: C_1  and  O_2
REMARK    2  A    between atoms: O_2  and  C_3
REMARK    3  A    between atoms: C_7  and  C_8
REMARK    4  A    between atoms: C_14  and  N_15
REMARK    5  A    between atoms: C_17  and  C_18
REMARK    6  A    between atoms: C_20  and  C_21
REMARK                            x       y       z     vdW  Elec       q    Type
REMARK                         _______ _______ _______ _____ _____    ______ ____
ROOT
ATOM      1  C   UNL     1       1.843   6.829  20.156  0.00  0.00    +0.000 A 
ATOM      2  C   UNL     1       1.168   5.752  20.785  0.00  0.00    +0.000 A 
ATOM      3  C   UNL     1       1.473   4.416  20.511  0.00  0.00    +0.000 A 
ATOM      4  C   UNL     1       2.501   4.245  19.569  0.00  0.00    +0.000 A 
ATOM      5  N   UNL     1       2.938   3.063  19.123  0.00  0.00    +0.000 NA
ATOM      6  S   UNL     1       4.109   3.287  17.998  0.00  0.00    +0.000 S 
ATOM      7  C   UNL     1       4.151   5.018  18.032  0.00  0.00    +0.000 A 
ATOM      8  C   UNL     1       3.194   5.397  18.971  0.00  0.00    +0.000 A 
ATOM      9  N   UNL     1       2.879   6.697  19.269  0.00  0.00    +0.000 NA
ENDROOT
BRANCH   7  10
ATOM     10  N   UNL     1       5.006   5.752  17.245  0.00  0.00    +0.000 N 
ATOM     11  C   UNL     1       4.892   5.824  15.791  0.00  0.00    +0.000 C 
ATOM     12  C   UNL     1       6.180   5.330  15.100  0.00  0.00    +0.000 C 
ATOM     13  C   UNL     1       6.224   3.819  14.918  0.00  0.00    +0.000 C 
ATOM     14  O   UNL     1       7.395   5.841  15.679  0.00  0.00    +0.000 OA
ATOM     15  C   UNL     1       7.462   5.873  17.115  0.00  0.00    +0.000 C 
ATOM     16  C   UNL     1       7.883   4.532  17.712  0.00  0.00    +0.000 C 
ATOM     17  C   UNL     1       6.187   6.438  17.775  0.00  0.00    +0.000 C 
ENDBRANCH   7  10
BRANCH   1  22
ATOM     18  C   UNL     1       0.478   9.931  21.914  0.00  0.00    +0.000 A 
ATOM     19  C   UNL     1       0.464  10.850  20.867  0.00  0.00    +0.000 A 
ATOM     20  C   UNL     1       0.909  10.481  19.599  0.00  0.00    +0.000 A 
ATOM     21  C   UNL     1       1.369   9.181  19.370  0.00  0.00    +0.000 A 
ATOM     22  C   UNL     1       1.390   8.224  20.398  0.00  0.00    +0.000 A 
ATOM     23  C   UNL     1       0.937   8.633  21.674  0.00  0.00    +0.000 A 
BRANCH  18  25
ATOM     24  C   UNL     1      -1.202  11.154  23.078  0.00  0.00    +0.000 C 
ATOM     25  O   UNL     1       0.010  10.407  23.108  0.00  0.00    +0.000 OA
ENDBRANCH  18  25
ENDBRANCH   1  22
TORSDOF 3
ENDMDL
MODEL 2
REMARK VINA RESULT:      -8.0      1.040      1.704
REMARK  Name = 
REMARK  6 active torsions:
REMARK  status: ('A' for Active; 'I' for Inactive)
REMARK    1  A    between atoms: C_1  and  O_2
REMARK    2  A    between atoms: O_2  and  C_3
REMARK    3  A    between atoms: C_7  and  C_8
REMARK    4  A    between atoms: C_14  and  N_15
REMARK    5  A    between atoms: C_17  and  C_18
REMARK    6  A    between atoms: C_20  and  C_21
REMARK                            x       y       z     vdW  Elec       q    Type
REMARK                         _______ _______ _______ _____ _____    ______ ____
ROOT
ATOM      1  C   UNL     1       1.836   6.742  20.199  0.00  0.00    +0.000 A 
ATOM      2  C   UNL     1       1.151   5.654  20.796  0.00  0.00    +0.000 A 
ATOM      3  C   UNL     1       1.437   4.324  20.476  0.00  0.00    +0.000 A 
ATOM      4  C   UNL     1       2.458   4.171  19.523  0.00  0.00    +0.000 A 
ATOM      5  N   UNL     1       2.877   2.999  19.036  0.00  0.00    +0.000 NA
ATOM      6  S   UNL     1       4.044   3.245  17.912  0.00  0.00    +0.000 S 
ATOM      7  C   UNL     1       4.109   4.974  18.003  0.00  0.00    +0.000 A 
ATOM      8  C   UNL     1       3.162   5.334  18.960  0.00  0.00    +0.000 A 
ATOM      9  N   UNL     1       2.865   6.627  19.302  0.00  0.00    +0.000 NA
ENDROOT
BRANCH   7  10
ATOM     10  N   UNL     1       4.969   5.723  17.235  0.00  0.00    +0.000 N 
ATOM     11  C   UNL     1       4.887   5.793  15.779  0.00  0.00    +0.000 C 
ATOM     12  C   UNL     1       6.198   5.321  15.118  0.00  0.00    +0.000 C 
ATOM     13  C   UNL     1       6.273   3.811  14.937  0.00  0.00    +0.000 C 
ATOM     14  O   UNL     1       7.391   5.853  15.724  0.00  0.00    +0.000 OA
ATOM     15  C   UNL     1       7.425   5.886  17.161  0.00  0.00    +0.000 C 
ATOM     16  C   UNL     1       7.855   4.553  17.768  0.00  0.00    +0.000 C 
ATOM     17  C   UNL     1       6.125   6.429  17.792  0.00  0.00    +0.000 C 
ENDBRANCH   7  10
BRANCH   1  22
ATOM     18  C   UNL     1       0.959  10.427  19.719  0.00  0.00    +0.000 A 
ATOM     19  C   UNL     1       0.645  10.802  21.025  0.00  0.00    +0.000 A 
ATOM     20  C   UNL     1       0.697   9.868  22.057  0.00  0.00    +0.000 A 
ATOM     21  C   UNL     1       1.071   8.548  21.790  0.00  0.00    +0.000 A 
ATOM     22  C   UNL     1       1.402   8.134  20.489  0.00  0.00    +0.000 A 
ATOM     23  C   UNL     1       1.334   9.106  19.462  0.00  0.00    +0.000 A 
BRANCH  18  25
ATOM     24  C   UNL     1       1.844  12.475  18.886  0.00  0.00    +0.000 C 
ATOM     25  O   UNL     1       0.880  11.431  18.794  0.00  0.00    +0.000 OA
ENDBRANCH  18  25
ENDBRANCH   1  22
TORSDOF 3
ENDMDL
MODEL 3
REMARK VINA RESULT:      -7.9      1.203      2.108
REMARK  Name = 
REMARK  6 active torsions:
REMARK  status: ('A' for Active; 'I' for Inactive)
REMARK    1  A    between atoms: C_1  and  O_2
REMARK    2  A    between atoms: O_2  and  C_3
REMARK    3  A    between atoms: C_7  and  C_8
REMARK    4  A    between atoms: C_14  and  N_15
REMARK    5  A    between atoms: C_17  and  C_18
REMARK    6  A    between atoms: C_20  and  C_21
REMARK                            x       y       z     vdW  Elec       q    Type
REMARK                         _______ _______ _______ _____ _____    ______ ____
ROOT
ATOM      1  C   UNL     1       2.390   6.407  19.759  0.00  0.00    +0.000 A 
ATOM      2  C   UNL     1       1.716   5.712  20.794  0.00  0.00    +0.000 A 
ATOM      3  C   UNL     1       1.972   4.369  21.083  0.00  0.00    +0.000 A 
ATOM      4  C   UNL     1       2.952   3.784  20.264  0.00  0.00    +0.000 A 
ATOM      5  N   UNL     1       3.337   2.505  20.329  0.00  0.00    +0.000 NA
ATOM      6  S   UNL     1       4.461   2.199  19.176  0.00  0.00    +0.000 S 
ATOM      7  C   UNL     1       4.551   3.789  18.496  0.00  0.00    +0.000 A 
ATOM      8  C   UNL     1       3.648   4.560  19.225  0.00  0.00    +0.000 A 
ATOM      9  N   UNL     1       3.381   5.880  18.973  0.00  0.00    +0.000 NA
ENDROOT
BRANCH   7  10
ATOM     10  N   UNL     1       5.389   4.101  17.451  0.00  0.00    +0.000 N 
ATOM     11  C   UNL     1       6.836   4.224  17.597  0.00  0.00    +0.000 C 
ATOM     12  C   UNL     1       7.326   5.626  17.180  0.00  0.00    +0.000 C 
ATOM     13  C   UNL     1       7.230   6.655  18.298  0.00  0.00    +0.000 C 
ATOM     14  O   UNL     1       6.757   6.110  15.949  0.00  0.00    +0.000 OA
ATOM     15  C   UNL     1       5.349   5.888  15.758  0.00  0.00    +0.000 C 
ATOM     16  C   UNL     1       4.491   6.953  16.434  0.00  0.00    +0.000 C 
ATOM     17  C   UNL     1       4.902   4.455  16.117  0.00  0.00    +0.000 C 
ENDBRANCH   7  10
BRANCH   1  22
ATOM     18  C   UNL     1       0.918   9.917  20.062  0.00  0.00    +0.000 A 
ATOM     19  C   UNL     1       1.148  10.418  18.782  0.00  0.00    +0.000 A 
ATOM     20  C   UNL     1       1.791   9.635  17.825  0.00  0.00    +0.000 A 
ATOM     21  C   UNL     1       2.206   8.339  18.143  0.00  0.00    +0.000 A 
ATOM     22  C   UNL     1       1.985   7.797  19.420  0.00  0.00    +0.000 A 
ATOM     23  C   UNL     1       1.334   8.619  20.370  0.00  0.00    +0.000 A 
BRANCH  18  25
ATOM     24  C   UNL     1      -0.237  10.224  22.121  0.00  0.00    +0.000 C 
ATOM     25  O   UNL     1       0.272  10.774  20.911  0.00  0.00    +0.000 OA
ENDBRANCH  18  25
ENDBRANCH   1  22
TORSDOF 3
ENDMDL
MODEL 4
REMARK VINA RESULT:      -7.8      0.991      1.555
REMARK  Name = 
REMARK  6 active torsions:
REMARK  status: ('A' for Active; 'I' for Inactive)
REMARK    1  A    between atoms: C_1  and  O_2
REMARK    2  A    between atoms: O_2  and  C_3
REMARK    3  A    between atoms: C_7  and  C_8
REMARK    4  A    between atoms: C_14  and  N_15
REMARK    5  A    between atoms: C_17  and  C_18
REMARK    6  A    between atoms: C_20  and  C_21
REMARK                            x       y       z     vdW  Elec       q    Type
REMARK                         _______ _______ _______ _____ _____    ______ ____
ROOT
ATOM      1  C   UNL     1       2.166   6.425  20.110  0.00  0.00    +0.000 A 
ATOM      2  C   UNL     1       1.294   5.449  20.655  0.00  0.00    +0.000 A 
ATOM      3  C   UNL     1       1.597   4.085  20.642  0.00  0.00    +0.000 A 
ATOM      4  C   UNL     1       2.834   3.778  20.051  0.00  0.00    +0.000 A 
ATOM      5  N   UNL     1       3.318   2.542  19.892  0.00  0.00    +0.000 NA
ATOM      6  S   UNL     1       4.761   2.601  19.117  0.00  0.00    +0.000 S 
ATOM      7  C   UNL     1       4.876   4.321  18.949  0.00  0.00    +0.000 A 
ATOM      8  C   UNL     1       3.719   4.833  19.532  0.00  0.00    +0.000 A 
ATOM      9  N   UNL     1       3.398   6.164  19.569  0.00  0.00    +0.000 NA
ENDROOT
BRANCH   7  10
ATOM     10  N   UNL     1       5.950   4.935  18.346  0.00  0.00    +0.000 N 
ATOM     11  C   UNL     1       6.053   6.382  18.181  0.00  0.00    +0.000 C 
ATOM     12  C   UNL     1       6.192   6.769  16.694  0.00  0.00    +0.000 C 
ATOM     13  C   UNL     1       4.855   6.888  15.975  0.00  0.00    +0.000 C 
ATOM     14  O   UNL     1       7.133   5.966  15.959  0.00  0.00    +0.000 OA
ATOM     15  C   UNL     1       7.104   4.549  16.206  0.00  0.00    +0.000 C 
ATOM     16  C   UNL     1       6.033   3.833  15.387  0.00  0.00    +0.000 C 
ATOM     17  C   UNL     1       7.036   4.192  17.706  0.00  0.00    +0.000 C 
ENDBRANCH   7  10
BRANCH   1  22
ATOM     18  C   UNL     1       0.829   9.847  21.149  0.00  0.00    +0.000 A 
ATOM     19  C   UNL     1       0.843  10.523  19.931  0.00  0.00    +0.000 A 
ATOM     20  C   UNL     1       1.298   9.887  18.778  0.00  0.00    +0.000 A 
ATOM     21  C   UNL     1       1.740   8.562  18.836  0.00  0.00    +0.000 A 
ATOM     22  C   UNL     1       1.733   7.845  20.044  0.00  0.00    +0.000 A 
ATOM     23  C   UNL     1       1.270   8.522  21.197  0.00  0.00    +0.000 A 
BRANCH  18  25
ATOM     24  C   UNL     1      -0.471   9.886  23.144  0.00  0.00    +0.000 C 
ATOM     25  O   UNL     1       0.355  10.571  22.208  0.00  0.00    +0.000 OA
ENDBRANCH  18  25
ENDBRANCH   1  22
TORSDOF 3
ENDMDL
MODEL 5
REMARK VINA RESULT:      -7.7      2.944      4.351
REMARK  Name = 
REMARK  6 active torsions:
REMARK  status: ('A' for Active; 'I' for Inactive)
REMARK    1  A    between atoms: C_1  and  O_2
REMARK    2  A    between atoms: O_2  and  C_3
REMARK    3  A    between atoms: C_7  and  C_8
REMARK    4  A    between atoms: C_14  and  N_15
REMARK    5  A    between atoms: C_17  and  C_18
REMARK    6  A    between atoms: C_20  and  C_21
REMARK                            x       y       z     vdW  Elec       q    Type
REMARK                         _______ _______ _______ _____ _____    ______ ____
ROOT
ATOM      1  C   UNL     1       1.266   8.878  19.835  0.00  0.00    +0.000 A 
ATOM      2  C   UNL     1       1.476   9.645  18.661  0.00  0.00    +0.000 A 
ATOM      3  C   UNL     1       2.281   9.197  17.610  0.00  0.00    +0.000 A 
ATOM      4  C   UNL     1       2.850   7.931  17.823  0.00  0.00    +0.000 A 
ATOM      5  N   UNL     1       3.682   7.316  16.976  0.00  0.00    +0.000 NA
ATOM      6  S   UNL     1       4.164   5.882  17.607  0.00  0.00    +0.000 S 
ATOM      7  C   UNL     1       3.262   5.950  19.084  0.00  0.00    +0.000 A 
ATOM      8  C   UNL     1       2.571   7.160  19.045  0.00  0.00    +0.000 A 
ATOM      9  N   UNL     1       1.768   7.622  20.054  0.00  0.00    +0.000 NA
ENDROOT
BRANCH   7  10
ATOM     10  N   UNL     1       3.301   4.945  20.022  0.00  0.00    +0.000 N 
ATOM     11  C   UNL     1       4.330   3.910  20.041  0.00  0.00    +0.000 C 
ATOM     12  C   UNL     1       3.713   2.501  19.925  0.00  0.00    +0.000 C 
ATOM     13  C   UNL     1       3.456   2.073  18.486  0.00  0.00    +0.000 C 
ATOM     14  O   UNL     1       2.565   2.287  20.766  0.00  0.00    +0.000 OA
ATOM     15  C   UNL     1       1.605   3.355  20.833  0.00  0.00    +0.000 C 
ATOM     16  C   UNL     1       0.612   3.324  19.673  0.00  0.00    +0.000 C 
ATOM     17  C   UNL     1       2.249   4.745  21.020  0.00  0.00    +0.000 C 
ENDBRANCH   7  10
BRANCH   1  22
ATOM     18  C   UNL     1      -1.033  11.173  21.841  0.00  0.00    +0.000 A 
ATOM     19  C   UNL     1      -0.915  10.625  23.117  0.00  0.00    +0.000 A 
ATOM     20  C   UNL     1      -0.111   9.507  23.332  0.00  0.00    +0.000 A 
ATOM     21  C   UNL     1       0.587   8.931  22.266  0.00  0.00    +0.000 A 
ATOM     22  C   UNL     1       0.499   9.460  20.968  0.00  0.00    +0.000 A 
ATOM     23  C   UNL     1      -0.329  10.592  20.783  0.00  0.00    +0.000 A 
BRANCH  18  25
ATOM     24  C   UNL     1      -2.447  12.535  20.494  0.00  0.00    +0.000 C 
ATOM     25  O   UNL     1      -1.843  12.272  21.756  0.00  0.00    +0.000 OA
ENDBRANCH  18  25
ENDBRANCH   1  22
TORSDOF 3
ENDMDL
MODEL 6
REMARK VINA RESULT:      -7.6      2.525      4.436
REMARK  Name = 
REMARK  6 active torsions:
REMARK  status: ('A' for Active; 'I' for Inactive)
REMARK    1  A    between atoms: C_1  and  O_2
REMARK    2  A    between atoms: O_2  and  C_3
REMARK    3  A    between atoms: C_7  and  C_8
REMARK    4  A    between atoms: C_14  and  N_15
REMARK    5  A    between atoms: C_17  and  C_18
REMARK    6  A    between atoms: C_20  and  C_21
REMARK                            x       y       z     vdW  Elec       q    Type
REMARK                         _______ _______ _______ _____ _____    ______ ____
ROOT
ATOM      1  C   UNL     1       3.046   7.172  18.086  0.00  0.00    +0.000 A 
ATOM      2  C   UNL     1       3.830   7.881  17.141  0.00  0.00    +0.000 A 
ATOM      3  C   UNL     1       4.794   7.252  16.349  0.00  0.00    +0.000 A 
ATOM      4  C   UNL     1       4.907   5.870  16.572  0.00  0.00    +0.000 A 
ATOM      5  N   UNL     1       5.785   5.068  15.960  0.00  0.00    +0.000 NA
ATOM      6  S   UNL     1       5.635   3.538  16.529  0.00  0.00    +0.000 S 
ATOM      7  C   UNL     1       4.341   3.819  17.645  0.00  0.00    +0.000 A 
ATOM      8  C   UNL     1       4.044   5.176  17.541  0.00  0.00    +0.000 A 
ATOM      9  N   UNL     1       3.099   5.819  18.296  0.00  0.00    +0.000 NA
ENDROOT
BRANCH   7  10
ATOM     10  N   UNL     1       3.799   2.817  18.417  0.00  0.00    +0.000 N 
ATOM     11  C   UNL     1       2.689   1.978  17.974  0.00  0.00    +0.000 C 
ATOM     12  C   UNL     1       1.485   2.087  18.932  0.00  0.00    +0.000 C 
ATOM     13  C   UNL     1       0.576   3.270  18.626  0.00  0.00    +0.000 C 
ATOM     14  O   UNL     1       1.831   2.017  20.327  0.00  0.00    +0.000 OA
ATOM     15  C   UNL     1       2.992   2.757  20.742  0.00  0.00    +0.000 C 
ATOM     16  C   UNL     1       2.684   4.227  21.015  0.00  0.00    +0.000 C 
ATOM     17  C   UNL     1       4.203   2.572  19.803  0.00  0.00    +0.000 C 
ENDBRANCH   7  10
BRANCH   1  22
ATOM     18  C   UNL     1       0.586   9.795  19.368  0.00  0.00    +0.000 A 
ATOM     19  C   UNL     1       0.418   9.385  20.690  0.00  0.00    +0.000 A 
ATOM     20  C   UNL     1       1.081   8.256  21.166  0.00  0.00    +0.000 A 
ATOM     21  C   UNL     1       1.924   7.529  20.320  0.00  0.00    +0.000 A 
ATOM     22  C   UNL     1       2.124   7.916  18.984  0.00  0.00    +0.000 A 
ATOM     23  C   UNL     1       1.432   9.064  18.531  0.00  0.00    +0.000 A 
BRANCH  18  25
ATOM     24  C   UNL     1      -1.220  10.751  18.145  0.00  0.00    +0.000 C 
ATOM     25  O   UNL     1      -0.109  10.921  19.019  0.00  0.00    +0.000 OA
ENDBRANCH  18  25
ENDBRANCH   1  22
TORSDOF 3
ENDMDL
MODEL 7
REMARK VINA RESULT:      -7.6      0.902      1.410
REMARK  Name = 
REMARK  6 active torsions:
REMARK  status: ('A' for Active; 'I' for Inactive)
REMARK    1  A    between atoms: C_1  and  O_2
REMARK    2  A    between atoms: O_2  and  C_3
REMARK    3  A    between atoms: C_7  and  C_8
REMARK    4  A    between atoms: C_14  and  N_15
REMARK    5  A    between atoms: C_17  and  C_18
REMARK    6  A    between atoms: C_20  and  C_21
REMARK                            x       y       z     vdW  Elec       q    Type
REMARK                         _______ _______ _______ _____ _____    ______ ____
ROOT
ATOM      1  C   UNL     1       2.072   6.378  19.905  0.00  0.00    +0.000 A 
ATOM      2  C   UNL     1       1.482   5.478  20.828  0.00  0.00    +0.000 A 
ATOM      3  C   UNL     1       1.690   4.098  20.764  0.00  0.00    +0.000 A 
ATOM      4  C   UNL     1       2.533   3.693  19.715  0.00  0.00    +0.000 A 
ATOM      5  N   UNL     1       2.846   2.424  19.433  0.00  0.00    +0.000 NA
ATOM      6  S   UNL     1       3.810   2.366  18.109  0.00  0.00    +0.000 S 
ATOM      7  C   UNL     1       3.914   4.069  17.809  0.00  0.00    +0.000 A 
ATOM      8  C   UNL     1       3.149   4.672  18.805  0.00  0.00    +0.000 A 
ATOM      9  N   UNL     1       2.933   6.022  18.900  0.00  0.00    +0.000 NA
ENDROOT
BRANCH   7  10
ATOM     10  N   UNL     1       4.644   4.593  16.767  0.00  0.00    +0.000 N 
ATOM     11  C   UNL     1       5.728   3.871  16.108  0.00  0.00    +0.000 C 
ATOM     12  C   UNL     1       7.057   4.648  16.199  0.00  0.00    +0.000 C 
ATOM     13  C   UNL     1       7.816   4.395  17.494  0.00  0.00    +0.000 C 
ATOM     14  O   UNL     1       6.943   6.052  15.904  0.00  0.00    +0.000 OA
ATOM     15  C   UNL     1       5.811   6.739  16.465  0.00  0.00    +0.000 C 
ATOM     16  C   UNL     1       6.049   7.183  17.906  0.00  0.00    +0.000 C 
ATOM     17  C   UNL     1       4.484   5.970  16.296  0.00  0.00    +0.000 C 
ENDBRANCH   7  10
BRANCH   1  22
ATOM     18  C   UNL     1       0.964   9.785  21.223  0.00  0.00    +0.000 A 
ATOM     19  C   UNL     1       0.967  10.541  20.053  0.00  0.00    +0.000 A 
ATOM     20  C   UNL     1       1.340   9.963  18.841  0.00  0.00    +0.000 A 
ATOM     21  C   UNL     1       1.712   8.616  18.793  0.00  0.00    +0.000 A 
ATOM     22  C   UNL     1       1.714   7.820  19.950  0.00  0.00    +0.000 A 
ATOM     23  C   UNL     1       1.334   8.439  21.165  0.00  0.00    +0.000 A 
BRANCH  18  25
ATOM     24  C   UNL     1      -0.663  10.067  22.939  0.00  0.00    +0.000 C 
ATOM     25  O   UNL     1       0.571  10.459  22.347  0.00  0.00    +0.000 OA
ENDBRANCH  18  25
ENDBRANCH   1  22
TORSDOF 3
ENDMDL
MODEL 8
REMARK VINA RESULT:      -7.4      2.366      4.272
REMARK  Name = 
REMARK  6 active torsions:
REMARK  status: ('A' for Active; 'I' for Inactive)
REMARK    1  A    between atoms: C_1  and  O_2
REMARK    2  A    between atoms: O_2  and  C_3
REMARK    3  A    between atoms: C_7  and  C_8
REMARK    4  A    between atoms: C_14  and  N_15
REMARK    5  A    between atoms: C_17  and  C_18
REMARK    6  A    between atoms: C_20  and  C_21
REMARK                            x       y       z     vdW  Elec       q    Type
REMARK                         _______ _______ _______ _____ _____    ______ ____
ROOT
ATOM      1  C   UNL     1       3.136   7.180  17.847  0.00  0.00    +0.000 A 
ATOM      2  C   UNL     1       3.978   7.783  16.878  0.00  0.00    +0.000 A 
ATOM      3  C   UNL     1       4.946   7.061  16.176  0.00  0.00    +0.000 A 
ATOM      4  C   UNL     1       5.001   5.698  16.512  0.00  0.00    +0.000 A 
ATOM      5  N   UNL     1       5.869   4.820  15.999  0.00  0.00    +0.000 NA
ATOM      6  S   UNL     1       5.644   3.347  16.682  0.00  0.00    +0.000 S 
ATOM      7  C   UNL     1       4.322   3.760  17.722  0.00  0.00    +0.000 A 
ATOM      8  C   UNL     1       4.079   5.114  17.499  0.00  0.00    +0.000 A 
ATOM      9  N   UNL     1       3.133   5.847  18.165  0.00  0.00    +0.000 NA
ENDROOT
BRANCH   7  10
ATOM     10  N   UNL     1       3.718   2.843  18.550  0.00  0.00    +0.000 N 
ATOM     11  C   UNL     1       2.613   1.988  18.124  0.00  0.00    +0.000 C 
ATOM     12  C   UNL     1       1.364   2.205  19.002  0.00  0.00    +0.000 C 
ATOM     13  C   UNL     1       0.500   3.372  18.543  0.00  0.00    +0.000 C 
ATOM     14  O   UNL     1       1.634   2.255  20.415  0.00  0.00    +0.000 OA
ATOM     15  C   UNL     1       2.789   3.008  20.824  0.00  0.00    +0.000 C 
ATOM     16  C   UNL     1       2.502   4.502  20.947  0.00  0.00    +0.000 C 
ATOM     17  C   UNL     1       4.043   2.717  19.972  0.00  0.00    +0.000 C 
ENDBRANCH   7  10
BRANCH   1  22
ATOM     18  C   UNL     1       1.147   8.562  20.798  0.00  0.00    +0.000 A 
ATOM     19  C   UNL     1       0.413   9.572  20.180  0.00  0.00    +0.000 A 
ATOM     20  C   UNL     1       0.568   9.822  18.818  0.00  0.00    +0.000 A 
ATOM     21  C   UNL     1       1.460   9.056  18.062  0.00  0.00    +0.000 A 
ATOM     22  C   UNL     1       2.212   8.024  18.648  0.00  0.00    +0.000 A 
ATOM     23  C   UNL     1       2.035   7.800  20.034  0.00  0.00    +0.000 A 
BRANCH  18  25
ATOM     24  C   UNL     1       0.090   9.389  22.765  0.00  0.00    +0.000 C 
ATOM     25  O   UNL     1       0.904   8.405  22.135  0.00  0.00    +0.000 OA
ENDBRANCH  18  25
ENDBRANCH   1  22
TORSDOF 3
ENDMDL
MODEL 9
REMARK VINA RESULT:      -7.3      1.451      2.305
REMARK  Name = 
REMARK  6 active torsions:
REMARK  status: ('A' for Active; 'I' for Inactive)
REMARK    1  A    between atoms: C_1  and  O_2
REMARK    2  A    between atoms: O_2  and  C_3
REMARK    3  A    between atoms: C_7  and  C_8
REMARK    4  A    between atoms: C_14  and  N_15
REMARK    5  A    between atoms: C_17  and  C_18
REMARK    6  A    between atoms: C_20  and  C_21
REMARK                            x       y       z     vdW  Elec       q    Type
REMARK                         _______ _______ _______ _____ _____    ______ ____
ROOT
ATOM      1  C   UNL     1       2.019   6.345  20.240  0.00  0.00    +0.000 A 
ATOM      2  C   UNL     1       1.134   5.323  20.666  0.00  0.00    +0.000 A 
ATOM      3  C   UNL     1       1.433   3.966  20.520  0.00  0.00    +0.000 A 
ATOM      4  C   UNL     1       2.679   3.715  19.923  0.00  0.00    +0.000 A 
ATOM      5  N   UNL     1       3.162   2.499  19.648  0.00  0.00    +0.000 NA
ATOM      6  S   UNL     1       4.620   2.630  18.909  0.00  0.00    +0.000 S 
ATOM      7  C   UNL     1       4.744   4.357  18.919  0.00  0.00    +0.000 A 
ATOM      8  C   UNL     1       3.577   4.813  19.531  0.00  0.00    +0.000 A 
ATOM      9  N   UNL     1       3.260   6.135  19.697  0.00  0.00    +0.000 NA
ENDROOT
BRANCH   7  10
ATOM     10  N   UNL     1       5.829   5.024  18.402  0.00  0.00    +0.000 N 
ATOM     11  C   UNL     1       5.857   6.469  18.198  0.00  0.00    +0.000 C 
ATOM     12  C   UNL     1       6.116   6.824  16.719  0.00  0.00    +0.000 C 
ATOM     13  C   UNL     1       4.851   6.834  15.872  0.00  0.00    +0.000 C 
ATOM     14  O   UNL     1       7.173   6.065  16.105  0.00  0.00    +0.000 OA
ATOM     15  C   UNL     1       7.209   4.657  16.396  0.00  0.00    +0.000 C 
ATOM     16  C   UNL     1       6.271   3.849  15.503  0.00  0.00    +0.000 C 
ATOM     17  C   UNL     1       7.018   4.337  17.893  0.00  0.00    +0.000 C 
ENDBRANCH   7  10
BRANCH   1  22
ATOM     18  C   UNL     1       1.317   9.961  19.234  0.00  0.00    +0.000 A 
ATOM     19  C   UNL     1       0.848  10.489  20.436  0.00  0.00    +0.000 A 
ATOM     20  C   UNL     1       0.740   9.681  21.566  0.00  0.00    +0.000 A 
ATOM     21  C   UNL     1       1.107   8.333  21.501  0.00  0.00    +0.000 A 
ATOM     22  C   UNL     1       1.592   7.767  20.311  0.00  0.00    +0.000 A 
ATOM     23  C   UNL     1       1.684   8.613  19.181  0.00  0.00    +0.000 A 
BRANCH  18  25
ATOM     24  C   UNL     1       2.091  12.066  18.435  0.00  0.00    +0.000 C 
ATOM     25  O   UNL     1       1.387  10.852  18.199  0.00  0.00    +0.000 OA
ENDBRANCH  18  25
ENDBRANCH   1  22
TORSDOF 3
ENDMDL
