MODEL 1
REMARK VINA RESULT:      -7.7      0.000      0.000
REMARK  Name = 
REMARK  7 active torsions:
REMARK  status: ('A' for Active; 'I' for Inactive)
REMARK    1  A    between atoms: C_1  and  C_2
REMARK    2  A    between atoms: C_2  and  O_3
REMARK    3  A    between atoms: O_3  and  C_4
REMARK    4  A    between atoms: C_4  and  C_6
REMARK    5  A    between atoms: C_10  and  N_11
REMARK    6  A    between atoms: N_11  and  C_12
REMARK    7  A    between atoms: C_21  and  C_22
REMARK                            x       y       z     vdW  Elec       q    Type
REMARK                         _______ _______ _______ _____ _____    ______ ____
ROOT
ATOM      1  C   UNL     1       5.192   4.019  17.138  0.00  0.00    +0.000 C 
ATOM      2  C   UNL     1       5.796   4.687  18.345  0.00  0.00    +0.000 C 
ATOM      3  O   UNL     1       6.994   4.573  18.606  0.00  0.00    +0.000 OA
ATOM      4  C   UNL     1       4.961   5.489  19.246  0.00  0.00    +0.000 C 
ATOM      5  C   UNL     1       3.629   5.563  19.138  0.00  0.00    +0.000 C 
ATOM      6  C   UNL     1       2.873   4.883  18.024  0.00  0.00    +0.000 C 
ATOM      7  C   UNL     1       3.654   3.976  17.054  0.00  0.00    +0.000 C 
ATOM      8  C   UNL     1       3.164   2.523  17.154  0.00  0.00    +0.000 C 
ENDROOT
BRANCH   1   9
ATOM      9  C   UNL     1       5.732   4.643  15.877  0.00  0.00    +0.000 C 
ATOM     10  O   UNL     1       5.841   5.847  15.683  0.00  0.00    +0.000 OA
BRANCH   9  11
ATOM     11  O   UNL     1       5.963   3.672  14.946  0.00  0.00    +0.000 OA
BRANCH  11  13
ATOM     12  C   UNL     1       5.824   3.362  12.552  0.00  0.00    +0.000 C 
ATOM     13  C   UNL     1       6.475   4.131  13.687  0.00  0.00    +0.000 C 
ENDBRANCH  11  13
ENDBRANCH   9  11
ENDBRANCH   1   9
BRANCH   5  14
ATOM     14  N   UNL     1       2.853   6.307  20.025  0.00  0.00    +0.000 N 
ATOM     15  H   UNL     1       3.224   6.325  20.974  0.00  0.00    +0.000 HD
BRANCH  14  16
ATOM     16  C   UNL     1       2.197   7.526  19.715  0.00  0.00    +0.000 A 
ATOM     17  C   UNL     1       2.237   8.122  18.448  0.00  0.00    +0.000 A 
ATOM     18  C   UNL     1       1.550   9.311  18.182  0.00  0.00    +0.000 A 
ATOM     19  C   UNL     1       0.793   9.921  19.180  0.00  0.00    +0.000 A 
ATOM     20 CL   UNL     1      -0.007  11.400  18.791  0.00  0.00    +0.000 Cl
ATOM     21  C   UNL     1       0.710   9.325  20.441  0.00  0.00    +0.000 A 
ATOM     22 CL   UNL     1      -0.219  10.012  21.726  0.00  0.00    +0.000 Cl
ATOM     23  C   UNL     1       1.397   8.130  20.699  0.00  0.00    +0.000 A 
ENDBRANCH  14  16
ENDBRANCH   5  14
TORSDOF 5
ENDMDL
MODEL 2
REMARK VINA RESULT:      -7.5      2.313      3.907
REMARK  Name = 
REMARK  7 active torsions:
REMARK  status: ('A' for Active; 'I' for Inactive)
REMARK    1  A    between atoms: C_1  and  C_2
REMARK    2  A    between atoms: C_2  and  O_3
REMARK    3  A    between atoms: O_3  and  C_4
REMARK    4  A    between atoms: C_4  and  C_6
REMARK    5  A    between atoms: C_10  and  N_11
REMARK    6  A    between atoms: N_11  and  C_12
REMARK    7  A    between atoms: C_21  and  C_22
REMARK                            x       y       z     vdW  Elec       q    Type
REMARK                         _______ _______ _______ _____ _____    ______ ____
ROOT
ATOM      1  C   UNL     1       3.368   3.398  17.441  0.00  0.00    +0.000 C 
ATOM      2  C   UNL     1       2.108   4.189  17.674  0.00  0.00    +0.000 C 
ATOM      3  O   UNL     1       0.999   3.657  17.620  0.00  0.00    +0.000 OA
ATOM      4  C   UNL     1       2.176   5.625  17.968  0.00  0.00    +0.000 C 
ATOM      5  C   UNL     1       3.311   6.332  17.912  0.00  0.00    +0.000 C 
ATOM      6  C   UNL     1       4.644   5.691  17.613  0.00  0.00    +0.000 C 
ATOM      7  C   UNL     1       4.672   4.195  17.243  0.00  0.00    +0.000 C 
ATOM      8  C   UNL     1       5.193   3.999  15.810  0.00  0.00    +0.000 C 
ENDROOT
BRANCH   1   9
ATOM      9  C   UNL     1       3.569   2.404  18.556  0.00  0.00    +0.000 C 
ATOM     10  O   UNL     1       3.425   1.193  18.447  0.00  0.00    +0.000 OA
BRANCH   9  11
ATOM     11  O   UNL     1       3.814   3.066  19.723  0.00  0.00    +0.000 OA
BRANCH  11  13
ATOM     12  C   UNL     1       2.082   3.655  21.305  0.00  0.00    +0.000 C 
ATOM     13  C   UNL     1       3.081   2.600  20.865  0.00  0.00    +0.000 C 
ENDBRANCH  11  13
ENDBRANCH   9  11
ENDBRANCH   1   9
BRANCH   5  14
ATOM     14  N   UNL     1       3.347   7.702  18.164  0.00  0.00    +0.000 N 
ATOM     15  H   UNL     1       3.901   8.226  17.487  0.00  0.00    +0.000 HD
BRANCH  14  16
ATOM     16  C   UNL     1       2.256   8.477  18.634  0.00  0.00    +0.000 A 
ATOM     17  C   UNL     1       1.486   9.303  17.805  0.00  0.00    +0.000 A 
ATOM     18  C   UNL     1       0.401  10.028  18.309  0.00  0.00    +0.000 A 
ATOM     19  C   UNL     1       0.054   9.926  19.655  0.00  0.00    +0.000 A 
ATOM     20 CL   UNL     1      -1.279  10.868  20.215  0.00  0.00    +0.000 Cl
ATOM     21  C   UNL     1       0.787   9.080  20.491  0.00  0.00    +0.000 A 
ATOM     22 CL   UNL     1       0.411   8.890  22.168  0.00  0.00    +0.000 Cl
ATOM     23  C   UNL     1       1.871   8.353  19.978  0.00  0.00    +0.000 A 
ENDBRANCH  14  16
ENDBRANCH   5  14
TORSDOF 5
ENDMDL
MODEL 3
REMARK VINA RESULT:      -7.5      2.398      4.226
REMARK  Name = 
REMARK  7 active torsions:
REMARK  status: ('A' for Active; 'I' for Inactive)
REMARK    1  A    between atoms: C_1  and  C_2
REMARK    2  A    between atoms: C_2  and  O_3
REMARK    3  A    between atoms: O_3  and  C_4
REMARK    4  A    between atoms: C_4  and  C_6
REMARK    5  A    between atoms: C_10  and  N_11
REMARK    6  A    between atoms: N_11  and  C_12
REMARK    7  A    between atoms: C_21  and  C_22
REMARK                            x       y       z     vdW  Elec       q    Type
REMARK                         _______ _______ _______ _____ _____    ______ ____
ROOT
ATOM      1  C   UNL     1       4.234   3.336  18.407  0.00  0.00    +0.000 C 
ATOM      2  C   UNL     1       2.898   3.659  17.791  0.00  0.00    +0.000 C 
ATOM      3  O   UNL     1       2.183   2.777  17.315  0.00  0.00    +0.000 OA
ATOM      4  C   UNL     1       2.419   5.045  17.742  0.00  0.00    +0.000 C 
ATOM      5  C   UNL     1       3.170   6.094  18.099  0.00  0.00    +0.000 C 
ATOM      6  C   UNL     1       4.561   5.932  18.661  0.00  0.00    +0.000 C 
ATOM      7  C   UNL     1       5.174   4.519  18.709  0.00  0.00    +0.000 C 
ATOM      8  C   UNL     1       6.423   4.438  17.817  0.00  0.00    +0.000 C 
ENDROOT
BRANCH   1   9
ATOM      9  C   UNL     1       4.043   2.532  19.667  0.00  0.00    +0.000 C 
ATOM     10  O   UNL     1       4.948   2.020  20.314  0.00  0.00    +0.000 OA
BRANCH   9  11
ATOM     11  O   UNL     1       2.710   2.360  19.906  0.00  0.00    +0.000 OA
BRANCH  11  13
ATOM     12  C   UNL     1       2.194   4.173  21.422  0.00  0.00    +0.000 C 
ATOM     13  C   UNL     1       2.275   2.668  21.238  0.00  0.00    +0.000 C 
ENDBRANCH  11  13
ENDBRANCH   9  11
ENDBRANCH   1   9
BRANCH   5  14
ATOM     14  N   UNL     1       2.705   7.404  18.013  0.00  0.00    +0.000 N 
ATOM     15  H   UNL     1       2.368   7.656  17.084  0.00  0.00    +0.000 HD
BRANCH  14  16
ATOM     16  C   UNL     1       1.968   8.080  19.019  0.00  0.00    +0.000 A 
ATOM     17  C   UNL     1       1.870   7.621  20.339  0.00  0.00    +0.000 A 
ATOM     18  C   UNL     1       1.154   8.336  21.305  0.00  0.00    +0.000 A 
ATOM     19  C   UNL     1       0.534   9.539  20.970  0.00  0.00    +0.000 A 
ATOM     20 CL   UNL     1      -0.355  10.356  22.204  0.00  0.00    +0.000 Cl
ATOM     21  C   UNL     1       0.649  10.032  19.668  0.00  0.00    +0.000 A 
ATOM     22 CL   UNL     1      -0.079  11.521  19.179  0.00  0.00    +0.000 Cl
ATOM     23  C   UNL     1       1.373   9.312  18.706  0.00  0.00    +0.000 A 
ENDBRANCH  14  16
ENDBRANCH   5  14
TORSDOF 5
ENDMDL
MODEL 4
REMARK VINA RESULT:      -7.5      1.250      1.799
REMARK  Name = 
REMARK  7 active torsions:
REMARK  status: ('A' for Active; 'I' for Inactive)
REMARK    1  A    between atoms: C_1  and  C_2
REMARK    2  A    between atoms: C_2  and  O_3
REMARK    3  A    between atoms: O_3  and  C_4
REMARK    4  A    between atoms: C_4  and  C_6
REMARK    5  A    between atoms: C_10  and  N_11
REMARK    6  A    between atoms: N_11  and  C_12
REMARK    7  A    between atoms: C_21  and  C_22
REMARK                            x       y       z     vdW  Elec       q    Type
REMARK                         _______ _______ _______ _____ _____    ______ ____
ROOT
ATOM      1  C   UNL     1       4.591   3.837  17.604  0.00  0.00    +0.000 C 
ATOM      2  C   UNL     1       5.137   4.496  18.843  0.00  0.00    +0.000 C 
ATOM      3  O   UNL     1       6.280   4.267  19.237  0.00  0.00    +0.000 OA
ATOM      4  C   UNL     1       4.308   5.430  19.614  0.00  0.00    +0.000 C 
ATOM      5  C   UNL     1       3.012   5.642  19.358  0.00  0.00    +0.000 C 
ATOM      6  C   UNL     1       2.304   4.991  18.196  0.00  0.00    +0.000 C 
ATOM      7  C   UNL     1       3.075   3.956  17.354  0.00  0.00    +0.000 C 
ATOM      8  C   UNL     1       2.416   2.572  17.457  0.00  0.00    +0.000 C 
ENDROOT
BRANCH   1   9
ATOM      9  C   UNL     1       5.326   4.333  16.385  0.00  0.00    +0.000 C 
ATOM     10  O   UNL     1       5.750   3.619  15.485  0.00  0.00    +0.000 OA
BRANCH   9  11
ATOM     11  O   UNL     1       5.551   5.674  16.498  0.00  0.00    +0.000 OA
BRANCH  11  13
ATOM     12  C   UNL     1       7.253   7.138  17.397  0.00  0.00    +0.000 C 
ATOM     13  C   UNL     1       6.917   6.087  16.354  0.00  0.00    +0.000 C 
ENDBRANCH  11  13
ENDBRANCH   9  11
ENDBRANCH   1   9
BRANCH   5  14
ATOM     14  N   UNL     1       2.236   6.509  20.125  0.00  0.00    +0.000 N 
ATOM     15  H   UNL     1       2.431   6.454  21.124  0.00  0.00    +0.000 HD
BRANCH  14  16
ATOM     16  C   UNL     1       1.873   7.829  19.752  0.00  0.00    +0.000 A 
ATOM     17  C   UNL     1       2.105   8.360  18.477  0.00  0.00    +0.000 A 
ATOM     18  C   UNL     1       1.703   9.659  18.147  0.00  0.00    +0.000 A 
ATOM     19  C   UNL     1       1.043  10.448  19.087  0.00  0.00    +0.000 A 
ATOM     20 CL   UNL     1       0.599  12.050  18.622  0.00  0.00    +0.000 Cl
ATOM     21  C   UNL     1       0.770   9.926  20.353  0.00  0.00    +0.000 A 
ATOM     22 CL   UNL     1      -0.055  10.836  21.568  0.00  0.00    +0.000 Cl
ATOM     23  C   UNL     1       1.172   8.620  20.676  0.00  0.00    +0.000 A 
ENDBRANCH  14  16
ENDBRANCH   5  14
TORSDOF 5
ENDMDL
MODEL 5
REMARK VINA RESULT:      -7.4      0.961      1.628
REMARK  Name = 
REMARK  7 active torsions:
REMARK  status: ('A' for Active; 'I' for Inactive)
REMARK    1  A    between atoms: C_1  and  C_2
REMARK    2  A    between atoms: C_2  and  O_3
REMARK    3  A    between atoms: O_3  and  C_4
REMARK    4  A    between atoms: C_4  and  C_6
REMARK    5  A    between atoms: C_10  and  N_11
REMARK    6  A    between atoms: N_11  and  C_12
REMARK    7  A    between atoms: C_21  and  C_22
REMARK                            x       y       z     vdW  Elec       q    Type
REMARK                         _______ _______ _______ _____ _____    ______ ____
ROOT
ATOM      1  C   UNL     1       4.599   3.812  17.498  0.00  0.00    +0.000 C 
ATOM      2  C   UNL     1       5.241   4.418  18.717  0.00  0.00    +0.000 C 
ATOM      3  O   UNL     1       6.450   4.308  18.925  0.00  0.00    +0.000 OA
ATOM      4  C   UNL     1       4.432   5.156  19.694  0.00  0.00    +0.000 C 
ATOM      5  C   UNL     1       3.096   5.216  19.642  0.00  0.00    +0.000 C 
ATOM      6  C   UNL     1       2.305   4.589  18.520  0.00  0.00    +0.000 C 
ATOM      7  C   UNL     1       3.060   3.750  17.470  0.00  0.00    +0.000 C 
ATOM      8  C   UNL     1       2.592   2.287  17.505  0.00  0.00    +0.000 C 
ENDROOT
BRANCH   1   9
ATOM      9  C   UNL     1       5.081   4.514  16.254  0.00  0.00    +0.000 C 
ATOM     10  O   UNL     1       4.817   5.673  15.959  0.00  0.00    +0.000 OA
BRANCH   9  11
ATOM     11  O   UNL     1       5.749   3.632  15.456  0.00  0.00    +0.000 OA
BRANCH  11  13
ATOM     12  C   UNL     1       5.953   3.684  13.047  0.00  0.00    +0.000 C 
ATOM     13  C   UNL     1       6.482   4.212  14.369  0.00  0.00    +0.000 C 
ENDBRANCH  11  13
ENDBRANCH   9  11
ENDBRANCH   1   9
BRANCH   5  14
ATOM     14  N   UNL     1       2.345   5.896  20.599  0.00  0.00    +0.000 N 
ATOM     15  H   UNL     1       2.709   5.798  21.546  0.00  0.00    +0.000 HD
BRANCH  14  16
ATOM     16  C   UNL     1       1.744   7.167  20.416  0.00  0.00    +0.000 A 
ATOM     17  C   UNL     1       0.883   7.753  21.353  0.00  0.00    +0.000 A 
ATOM     18  C   UNL     1       0.336   9.023  21.143  0.00  0.00    +0.000 A 
ATOM     19  C   UNL     1       0.654   9.741  19.991  0.00  0.00    +0.000 A 
ATOM     20 CL   UNL     1      -0.078  11.290  19.782  0.00  0.00    +0.000 Cl
ATOM     21  C   UNL     1       1.538   9.191  19.060  0.00  0.00    +0.000 A 
ATOM     22 CL   UNL     1       1.992  10.023  17.616  0.00  0.00    +0.000 Cl
ATOM     23  C   UNL     1       2.087   7.919  19.281  0.00  0.00    +0.000 A 
ENDBRANCH  14  16
ENDBRANCH   5  14
TORSDOF 5
ENDMDL
MODEL 6
REMARK VINA RESULT:      -7.2      1.797      3.204
REMARK  Name = 
REMARK  7 active torsions:
REMARK  status: ('A' for Active; 'I' for Inactive)
REMARK    1  A    between atoms: C_1  and  C_2
REMARK    2  A    between atoms: C_2  and  O_3
REMARK    3  A    between atoms: O_3  and  C_4
REMARK    4  A    between atoms: C_4  and  C_6
REMARK    5  A    between atoms: C_10  and  N_11
REMARK    6  A    between atoms: N_11  and  C_12
REMARK    7  A    between atoms: C_21  and  C_22
REMARK                            x       y       z     vdW  Elec       q    Type
REMARK                         _______ _______ _______ _____ _____    ______ ____
ROOT
ATOM      1  C   UNL     1       6.127   4.641  17.200  0.00  0.00    +0.000 C 
ATOM      2  C   UNL     1       5.265   4.828  18.421  0.00  0.00    +0.000 C 
ATOM      3  O   UNL     1       5.345   4.064  19.383  0.00  0.00    +0.000 OA
ATOM      4  C   UNL     1       4.299   5.930  18.486  0.00  0.00    +0.000 C 
ATOM      5  C   UNL     1       4.029   6.730  17.448  0.00  0.00    +0.000 C 
ATOM      6  C   UNL     1       4.757   6.614  16.132  0.00  0.00    +0.000 C 
ATOM      7  C   UNL     1       5.757   5.456  15.946  0.00  0.00    +0.000 C 
ATOM      8  C   UNL     1       5.293   4.512  14.825  0.00  0.00    +0.000 C 
ENDROOT
BRANCH   1   9
ATOM      9  C   UNL     1       7.571   4.901  17.541  0.00  0.00    +0.000 C 
ATOM     10  O   UNL     1       8.306   4.111  18.122  0.00  0.00    +0.000 OA
BRANCH   9  11
ATOM     11  O   UNL     1       7.897   6.185  17.216  0.00  0.00    +0.000 OA
BRANCH  11  13
ATOM     12  C   UNL     1       7.904   8.534  17.793  0.00  0.00    +0.000 C 
ATOM     13  C   UNL     1       7.947   7.108  18.313  0.00  0.00    +0.000 C 
ENDBRANCH  11  13
ENDBRANCH   9  11
ENDBRANCH   1   9
BRANCH   5  14
ATOM     14  N   UNL     1       3.084   7.752  17.523  0.00  0.00    +0.000 N 
ATOM     15  H   UNL     1       2.560   7.886  16.659  0.00  0.00    +0.000 HD
BRANCH  14  16
ATOM     16  C   UNL     1       2.277   8.040  18.654  0.00  0.00    +0.000 A 
ATOM     17  C   UNL     1       2.236   7.229  19.796  0.00  0.00    +0.000 A 
ATOM     18  C   UNL     1       1.446   7.569  20.899  0.00  0.00    +0.000 A 
ATOM     19  C   UNL     1       0.691   8.741  20.887  0.00  0.00    +0.000 A 
ATOM     20 CL   UNL     1      -0.282   9.085  22.270  0.00  0.00    +0.000 Cl
ATOM     21  C   UNL     1       0.745   9.581  19.772  0.00  0.00    +0.000 A 
ATOM     22 CL   UNL     1      -0.150  11.056  19.686  0.00  0.00    +0.000 Cl
ATOM     23  C   UNL     1       1.544   9.236  18.671  0.00  0.00    +0.000 A 
ENDBRANCH  14  16
ENDBRANCH   5  14
TORSDOF 5
ENDMDL
MODEL 7
REMARK VINA RESULT:      -7.1      1.187      1.468
REMARK  Name = 
REMARK  7 active torsions:
REMARK  status: ('A' for Active; 'I' for Inactive)
REMARK    1  A    between atoms: C_1  and  C_2
REMARK    2  A    between atoms: C_2  and  O_3
REMARK    3  A    between atoms: O_3  and  C_4
REMARK    4  A    between atoms: C_4  and  C_6
REMARK    5  A    between atoms: C_10  and  N_11
REMARK    6  A    between atoms: N_11  and  C_12
REMARK    7  A    between atoms: C_21  and  C_22
REMARK                            x       y       z     vdW  Elec       q    Type
REMARK                         _______ _______ _______ _____ _____    ______ ____
ROOT
ATOM      1  C   UNL     1       5.473   3.806  17.788  0.00  0.00    +0.000 C 
ATOM      2  C   UNL     1       5.824   4.711  18.940  0.00  0.00    +0.000 C 
ATOM      3  O   UNL     1       6.981   4.802  19.351  0.00  0.00    +0.000 OA
ATOM      4  C   UNL     1       4.785   5.505  19.604  0.00  0.00    +0.000 C 
ATOM      5  C   UNL     1       3.480   5.378  19.333  0.00  0.00    +0.000 C 
ATOM      6  C   UNL     1       2.968   4.452  18.258  0.00  0.00    +0.000 C 
ATOM      7  C   UNL     1       3.977   3.538  17.535  0.00  0.00    +0.000 C 
ATOM      8  C   UNL     1       3.657   2.059  17.800  0.00  0.00    +0.000 C 
ENDROOT
BRANCH   1   9
ATOM      9  C   UNL     1       6.098   4.320  16.516  0.00  0.00    +0.000 C 
ATOM     10  O   UNL     1       7.301   4.458  16.334  0.00  0.00    +0.000 OA
BRANCH   9  11
ATOM     11  O   UNL     1       5.121   4.719  15.652  0.00  0.00    +0.000 OA
BRANCH  11  13
ATOM     12  C   UNL     1       4.952   7.064  16.219  0.00  0.00    +0.000 C 
ATOM     13  C   UNL     1       5.258   6.049  15.133  0.00  0.00    +0.000 C 
ENDBRANCH  11  13
ENDBRANCH   9  11
ENDBRANCH   1   9
BRANCH   5  14
ATOM     14  N   UNL     1       2.507   6.120  19.999  0.00  0.00    +0.000 N 
ATOM     15  H   UNL     1       2.530   6.005  21.012  0.00  0.00    +0.000 HD
BRANCH  14  16
ATOM     16  C   UNL     1       2.095   7.431  19.649  0.00  0.00    +0.000 A 
ATOM     17  C   UNL     1       2.280   7.981  18.374  0.00  0.00    +0.000 A 
ATOM     18  C   UNL     1       1.831   9.270  18.066  0.00  0.00    +0.000 A 
ATOM     19  C   UNL     1       1.169  10.030  19.028  0.00  0.00    +0.000 A 
ATOM     20 CL   UNL     1       0.666  11.621  18.590  0.00  0.00    +0.000 Cl
ATOM     21  C   UNL     1       0.942   9.487  20.296  0.00  0.00    +0.000 A 
ATOM     22 CL   UNL     1       0.118  10.361  21.538  0.00  0.00    +0.000 Cl
ATOM     23  C   UNL     1       1.391   8.192  20.595  0.00  0.00    +0.000 A 
ENDBRANCH  14  16
ENDBRANCH   5  14
TORSDOF 5
ENDMDL
MODEL 8
REMARK VINA RESULT:      -7.1      2.238      3.703
REMARK  Name = 
REMARK  7 active torsions:
REMARK  status: ('A' for Active; 'I' for Inactive)
REMARK    1  A    between atoms: C_1  and  C_2
REMARK    2  A    between atoms: C_2  and  O_3
REMARK    3  A    between atoms: O_3  and  C_4
REMARK    4  A    between atoms: C_4  and  C_6
REMARK    5  A    between atoms: C_10  and  N_11
REMARK    6  A    between atoms: N_11  and  C_12
REMARK    7  A    between atoms: C_21  and  C_22
REMARK                            x       y       z     vdW  Elec       q    Type
REMARK                         _______ _______ _______ _____ _____    ______ ____
ROOT
ATOM      1  C   UNL     1       3.381   3.713  17.755  0.00  0.00    +0.000 C 
ATOM      2  C   UNL     1       1.987   3.964  18.268  0.00  0.00    +0.000 C 
ATOM      3  O   UNL     1       1.050   3.228  17.959  0.00  0.00    +0.000 OA
ATOM      4  C   UNL     1       1.715   5.103  19.152  0.00  0.00    +0.000 C 
ATOM      5  C   UNL     1       2.624   6.043  19.437  0.00  0.00    +0.000 C 
ATOM      6  C   UNL     1       4.043   5.970  18.930  0.00  0.00    +0.000 C 
ATOM      7  C   UNL     1       4.417   4.836  17.955  0.00  0.00    +0.000 C 
ATOM      8  C   UNL     1       4.840   5.408  16.593  0.00  0.00    +0.000 C 
ENDROOT
BRANCH   1   9
ATOM      9  C   UNL     1       3.927   2.437  18.341  0.00  0.00    +0.000 C 
ATOM     10  O   UNL     1       3.633   1.310  17.960  0.00  0.00    +0.000 OA
BRANCH   9  11
ATOM     11  O   UNL     1       4.698   2.723  19.430  0.00  0.00    +0.000 OA
BRANCH  11  13
ATOM     12  C   UNL     1       3.126   2.519  21.256  0.00  0.00    +0.000 C 
ATOM     13  C   UNL     1       4.393   1.979  20.617  0.00  0.00    +0.000 C 
ENDBRANCH  11  13
ENDBRANCH   9  11
ENDBRANCH   1   9
BRANCH   5  14
ATOM     14  N   UNL     1       2.334   7.134  20.253  0.00  0.00    +0.000 N 
ATOM     15  H   UNL     1       3.069   7.345  20.928  0.00  0.00    +0.000 HD
BRANCH  14  16
ATOM     16  C   UNL     1       1.677   8.320  19.834  0.00  0.00    +0.000 A 
ATOM     17  C   UNL     1       1.721   8.799  18.519  0.00  0.00    +0.000 A 
ATOM     18  C   UNL     1       1.034   9.959  18.145  0.00  0.00    +0.000 A 
ATOM     19  C   UNL     1       0.272  10.655  19.082  0.00  0.00    +0.000 A 
ATOM     20 CL   UNL     1      -0.528  12.092  18.560  0.00  0.00    +0.000 Cl
ATOM     21  C   UNL     1       0.185  10.174  20.391  0.00  0.00    +0.000 A 
ATOM     22 CL   UNL     1      -0.749  10.971  21.606  0.00  0.00    +0.000 Cl
ATOM     23  C   UNL     1       0.873   9.007  20.757  0.00  0.00    +0.000 A 
ENDBRANCH  14  16
ENDBRANCH   5  14
TORSDOF 5
ENDMDL
MODEL 9
REMARK VINA RESULT:      -7.0      2.001      3.191
REMARK  Name = 
REMARK  7 active torsions:
REMARK  status: ('A' for Active; 'I' for Inactive)
REMARK    1  A    between atoms: C_1  and  C_2
REMARK    2  A    between atoms: C_2  and  O_3
REMARK    3  A    between atoms: O_3  and  C_4
REMARK    4  A    between atoms: C_4  and  C_6
REMARK    5  A    between atoms: C_10  and  N_11
REMARK    6  A    between atoms: N_11  and  C_12
REMARK    7  A    between atoms: C_21  and  C_22
REMARK                            x       y       z     vdW  Elec       q    Type
REMARK                         _______ _______ _______ _____ _____    ______ ____
ROOT
ATOM      1  C   UNL     1       6.323   5.062  17.658  0.00  0.00    +0.000 C 
ATOM      2  C   UNL     1       5.350   4.557  18.692  0.00  0.00    +0.000 C 
ATOM      3  O   UNL     1       5.649   3.642  19.458  0.00  0.00    +0.000 OA
ATOM      4  C   UNL     1       4.012   5.150  18.804  0.00  0.00    +0.000 C 
ATOM      5  C   UNL     1       3.534   6.048  17.935  0.00  0.00    +0.000 C 
ATOM      6  C   UNL     1       4.365   6.591  16.799  0.00  0.00    +0.000 C 
ATOM      7  C   UNL     1       5.768   5.998  16.567  0.00  0.00    +0.000 C 
ATOM      8  C   UNL     1       5.846   5.308  15.196  0.00  0.00    +0.000 C 
ENDROOT
BRANCH   1   9
ATOM      9  C   UNL     1       7.490   5.737  18.331  0.00  0.00    +0.000 C 
ATOM     10  O   UNL     1       8.093   5.291  19.300  0.00  0.00    +0.000 OA
BRANCH   9  11
ATOM     11  O   UNL     1       7.691   6.968  17.778  0.00  0.00    +0.000 OA
BRANCH  11  13
ATOM     12  C   UNL     1       8.273   9.304  18.011  0.00  0.00    +0.000 C 
ATOM     13  C   UNL     1       8.392   7.910  18.601  0.00  0.00    +0.000 C 
ENDBRANCH  11  13
ENDBRANCH   9  11
ENDBRANCH   1   9
BRANCH   5  14
ATOM     14  N   UNL     1       2.248   6.574  18.043  0.00  0.00    +0.000 N 
ATOM     15  H   UNL     1       1.541   5.875  18.270  0.00  0.00    +0.000 HD
BRANCH  14  16
ATOM     16  C   UNL     1       1.921   7.829  18.617  0.00  0.00    +0.000 A 
ATOM     17  C   UNL     1       1.731   8.994  17.862  0.00  0.00    +0.000 A 
ATOM     18  C   UNL     1       1.382  10.204  18.471  0.00  0.00    +0.000 A 
ATOM     19  C   UNL     1       1.199  10.268  19.851  0.00  0.00    +0.000 A 
ATOM     20 CL   UNL     1       0.796  11.799  20.539  0.00  0.00    +0.000 Cl
ATOM     21  C   UNL     1       1.350   9.110  20.618  0.00  0.00    +0.000 A 
ATOM     22 CL   UNL     1       1.128   9.105  22.332  0.00  0.00    +0.000 Cl
ATOM     23  C   UNL     1       1.695   7.899  20.000  0.00  0.00    +0.000 A 
ENDBRANCH  14  16
ENDBRANCH   5  14
TORSDOF 5
ENDMDL
