MODEL 1
REMARK VINA RESULT:      -7.1      0.000      0.000
REMARK  Name = 
REMARK  4 active torsions:
REMARK  status: ('A' for Active; 'I' for Inactive)
REMARK    1  A    between atoms: C_1  and  C_2
REMARK    2  A    between atoms: C_5  and  O_6
REMARK    3  A    between atoms: C_7  and  C_8
REMARK    4  A    between atoms: C_13  and  C_15
REMARK                            x       y       z     vdW  Elec       q    Type
REMARK                         _______ _______ _______ _____ _____    ______ ____
ROOT
ATOM      1  C   UNL     1       5.731   4.422  18.446  0.00  0.00    +0.000 C 
ATOM      2  C   UNL     1       6.408   5.516  19.288  0.00  0.00    +0.000 C 
ATOM      3  C   UNL     1       7.584   5.951  18.438  0.00  0.00    +0.000 C 
ATOM      4  C   UNL     1       7.064   5.842  17.022  0.00  0.00    +0.000 C 
ATOM      5  N   UNL     1       5.911   4.938  17.062  0.00  0.00    +0.000 N 
ATOM      6  C   UNL     1       5.341   4.362  15.941  0.00  0.00    +0.000 C 
ATOM      7  O   UNL     1       4.555   3.416  16.045  0.00  0.00    +0.000 OA
ENDROOT
BRANCH   1  13
ATOM      8  C   UNL     1       1.236   4.834  19.861  0.00  0.00    +0.000 C 
ATOM      9  C   UNL     1       2.408   4.294  20.688  0.00  0.00    +0.000 C 
ATOM     10  C   UNL     1       2.300   2.766  20.815  0.00  0.00    +0.000 C 
ATOM     11  C   UNL     1       2.821   2.020  19.586  0.00  0.00    +0.000 C 
ATOM     12  C   UNL     1       4.233   2.463  19.202  0.00  0.00    +0.000 C 
ATOM     13  C   UNL     1       4.310   3.993  18.946  0.00  0.00    +0.000 C 
ATOM     14  C   UNL     1       3.791   4.766  20.172  0.00  0.00    +0.000 C 
BRANCH  12  15
ATOM     15  O   UNL     1       5.118   2.032  20.235  0.00  0.00    +0.000 OA
ATOM     16  H   UNL     1       6.021   2.323  20.020  0.00  0.00    +0.000 HD
ENDBRANCH  12  15
ENDBRANCH   1  13
BRANCH   6  17
ATOM     17  C   UNL     1       5.676   4.860  14.511  0.00  0.00    +0.000 C 
ATOM     18  C   UNL     1       7.152   4.873  14.099  0.00  0.00    +0.000 C 
ATOM     19  C   UNL     1       7.210   3.921  12.943  0.00  0.00    +0.000 C 
ATOM     20  C   UNL     1       5.995   3.521  12.559  0.00  0.00    +0.000 C 
ATOM     21  C   UNL     1       4.913   4.129  13.395  0.00  0.00    +0.000 C 
ENDBRANCH   6  17
TORSDOF 3
ENDMDL
MODEL 2
REMARK VINA RESULT:      -7.1      3.173      6.363
REMARK  Name = 
REMARK  4 active torsions:
REMARK  status: ('A' for Active; 'I' for Inactive)
REMARK    1  A    between atoms: C_1  and  C_2
REMARK    2  A    between atoms: C_5  and  O_6
REMARK    3  A    between atoms: C_7  and  C_8
REMARK    4  A    between atoms: C_13  and  C_15
REMARK                            x       y       z     vdW  Elec       q    Type
REMARK                         _______ _______ _______ _____ _____    ______ ____
ROOT
ATOM      1  C   UNL     1       3.983   5.441  19.272  0.00  0.00    +0.000 C 
ATOM      2  C   UNL     1       3.507   4.076  19.795  0.00  0.00    +0.000 C 
ATOM      3  C   UNL     1       2.446   4.429  20.817  0.00  0.00    +0.000 C 
ATOM      4  C   UNL     1       1.782   5.657  20.235  0.00  0.00    +0.000 C 
ATOM      5  N   UNL     1       2.722   6.230  19.267  0.00  0.00    +0.000 N 
ATOM      6  C   UNL     1       2.607   7.504  18.739  0.00  0.00    +0.000 C 
ATOM      7  O   UNL     1       3.552   8.029  18.144  0.00  0.00    +0.000 OA
ENDROOT
BRANCH   1  13
ATOM      8  C   UNL     1       5.191   4.632  14.771  0.00  0.00    +0.000 C 
ATOM      9  C   UNL     1       5.789   3.960  16.012  0.00  0.00    +0.000 C 
ATOM     10  C   UNL     1       7.196   4.516  16.281  0.00  0.00    +0.000 C 
ATOM     11  C   UNL     1       7.185   5.859  17.012  0.00  0.00    +0.000 C 
ATOM     12  C   UNL     1       6.335   5.814  18.282  0.00  0.00    +0.000 C 
ATOM     13  C   UNL     1       4.875   5.377  17.986  0.00  0.00    +0.000 C 
ATOM     14  C   UNL     1       4.861   4.025  17.251  0.00  0.00    +0.000 C 
BRANCH  12  15
ATOM     15  O   UNL     1       6.991   4.952  19.211  0.00  0.00    +0.000 OA
ATOM     16  H   UNL     1       6.779   5.242  20.115  0.00  0.00    +0.000 HD
ENDBRANCH  12  15
ENDBRANCH   1  13
BRANCH   6  17
ATOM     17  C   UNL     1       1.305   8.331  18.887  0.00  0.00    +0.000 C 
ATOM     18  C   UNL     1       1.038   8.987  20.247  0.00  0.00    +0.000 C 
ATOM     19  C   UNL     1       1.016  10.453  19.940  0.00  0.00    +0.000 C 
ATOM     20  C   UNL     1       1.064  10.693  18.627  0.00  0.00    +0.000 C 
ATOM     21  C   UNL     1       1.134   9.431  17.827  0.00  0.00    +0.000 C 
ENDBRANCH   6  17
TORSDOF 3
ENDMDL
MODEL 3
REMARK VINA RESULT:      -7.1      2.338      6.444
REMARK  Name = 
REMARK  4 active torsions:
REMARK  status: ('A' for Active; 'I' for Inactive)
REMARK    1  A    between atoms: C_1  and  C_2
REMARK    2  A    between atoms: C_5  and  O_6
REMARK    3  A    between atoms: C_7  and  C_8
REMARK    4  A    between atoms: C_13  and  C_15
REMARK                            x       y       z     vdW  Elec       q    Type
REMARK                         _______ _______ _______ _____ _____    ______ ____
ROOT
ATOM      1  C   UNL     1       3.517   6.578  17.335  0.00  0.00    +0.000 C 
ATOM      2  C   UNL     1       3.624   8.102  17.502  0.00  0.00    +0.000 C 
ATOM      3  C   UNL     1       2.299   8.492  18.123  0.00  0.00    +0.000 C 
ATOM      4  C   UNL     1       1.968   7.325  19.026  0.00  0.00    +0.000 C 
ATOM      5  N   UNL     1       2.755   6.183  18.550  0.00  0.00    +0.000 N 
ATOM      6  C   UNL     1       2.522   4.873  18.927  0.00  0.00    +0.000 C 
ATOM      7  O   UNL     1       3.029   3.936  18.304  0.00  0.00    +0.000 OA
ENDROOT
BRANCH   1  13
ATOM      8  C   UNL     1       7.727   4.523  17.990  0.00  0.00    +0.000 C 
ATOM      9  C   UNL     1       7.451   5.808  17.202  0.00  0.00    +0.000 C 
ATOM     10  C   UNL     1       7.560   5.532  15.695  0.00  0.00    +0.000 C 
ATOM     11  C   UNL     1       6.300   4.897  15.104  0.00  0.00    +0.000 C 
ATOM     12  C   UNL     1       5.041   5.694  15.451  0.00  0.00    +0.000 C 
ATOM     13  C   UNL     1       4.864   5.859  16.984  0.00  0.00    +0.000 C 
ATOM     14  C   UNL     1       6.122   6.498  17.601  0.00  0.00    +0.000 C 
BRANCH  12  15
ATOM     15  O   UNL     1       5.118   6.945  14.767  0.00  0.00    +0.000 OA
ATOM     16  H   UNL     1       5.426   6.789  13.858  0.00  0.00    +0.000 HD
ENDBRANCH  12  15
ENDBRANCH   1  13
BRANCH   6  17
ATOM     17  C   UNL     1       1.604   4.522  20.126  0.00  0.00    +0.000 C 
ATOM     18  C   UNL     1       0.768   3.241  20.021  0.00  0.00    +0.000 C 
ATOM     19  C   UNL     1       1.265   2.395  21.152  0.00  0.00    +0.000 C 
ATOM     20  C   UNL     1       2.110   3.060  21.945  0.00  0.00    +0.000 C 
ATOM     21  C   UNL     1       2.330   4.464  21.479  0.00  0.00    +0.000 C 
ENDBRANCH   6  17
TORSDOF 3
ENDMDL
MODEL 4
REMARK VINA RESULT:      -7.0      2.311      3.024
REMARK  Name = 
REMARK  4 active torsions:
REMARK  status: ('A' for Active; 'I' for Inactive)
REMARK    1  A    between atoms: C_1  and  C_2
REMARK    2  A    between atoms: C_5  and  O_6
REMARK    3  A    between atoms: C_7  and  C_8
REMARK    4  A    between atoms: C_13  and  C_15
REMARK                            x       y       z     vdW  Elec       q    Type
REMARK                         _______ _______ _______ _____ _____    ______ ____
ROOT
ATOM      1  C   UNL     1       3.245   6.231  18.891  0.00  0.00    +0.000 C 
ATOM      2  C   UNL     1       2.127   7.246  18.599  0.00  0.00    +0.000 C 
ATOM      3  C   UNL     1       2.826   8.340  17.819  0.00  0.00    +0.000 C 
ATOM      4  C   UNL     1       3.853   7.595  16.996  0.00  0.00    +0.000 C 
ATOM      5  N   UNL     1       4.058   6.297  17.647  0.00  0.00    +0.000 N 
ATOM      6  C   UNL     1       5.117   5.451  17.368  0.00  0.00    +0.000 C 
ATOM      7  O   UNL     1       5.389   4.511  18.119  0.00  0.00    +0.000 OA
ENDROOT
BRANCH   1  13
ATOM      8  C   UNL     1       1.825   1.719  18.842  0.00  0.00    +0.000 C 
ATOM      9  C   UNL     1       1.005   2.930  19.303  0.00  0.00    +0.000 C 
ATOM     10  C   UNL     1       0.900   2.938  20.836  0.00  0.00    +0.000 C 
ATOM     11  C   UNL     1       2.139   3.513  21.523  0.00  0.00    +0.000 C 
ATOM     12  C   UNL     1       2.516   4.887  20.968  0.00  0.00    +0.000 C 
ATOM     13  C   UNL     1       2.750   4.847  19.434  0.00  0.00    +0.000 C 
ATOM     14  C   UNL     1       1.514   4.272  18.719  0.00  0.00    +0.000 C 
BRANCH  12  15
ATOM     15  O   UNL     1       1.488   5.804  21.345  0.00  0.00    +0.000 OA
ATOM     16  H   UNL     1       0.656   5.538  20.918  0.00  0.00    +0.000 HD
ENDBRANCH  12  15
ENDBRANCH   1  13
BRANCH   6  17
ATOM     17  C   UNL     1       6.015   5.656  16.122  0.00  0.00    +0.000 C 
ATOM     18  C   UNL     1       7.235   4.739  15.975  0.00  0.00    +0.000 C 
ATOM     19  C   UNL     1       6.972   3.993  14.703  0.00  0.00    +0.000 C 
ATOM     20  C   UNL     1       5.902   4.463  14.056  0.00  0.00    +0.000 C 
ATOM     21  C   UNL     1       5.259   5.600  14.784  0.00  0.00    +0.000 C 
ENDBRANCH   6  17
TORSDOF 3
ENDMDL
MODEL 5
REMARK VINA RESULT:      -6.6      2.347      6.097
REMARK  Name = 
REMARK  4 active torsions:
REMARK  status: ('A' for Active; 'I' for Inactive)
REMARK    1  A    between atoms: C_1  and  C_2
REMARK    2  A    between atoms: C_5  and  O_6
REMARK    3  A    between atoms: C_7  and  C_8
REMARK    4  A    between atoms: C_13  and  C_15
REMARK                            x       y       z     vdW  Elec       q    Type
REMARK                         _______ _______ _______ _____ _____    ______ ____
ROOT
ATOM      1  C   UNL     1       3.574   6.875  17.207  0.00  0.00    +0.000 C 
ATOM      2  C   UNL     1       3.593   8.387  17.482  0.00  0.00    +0.000 C 
ATOM      3  C   UNL     1       2.226   8.664  18.074  0.00  0.00    +0.000 C 
ATOM      4  C   UNL     1       1.924   7.421  18.880  0.00  0.00    +0.000 C 
ATOM      5  N   UNL     1       2.789   6.357  18.359  0.00  0.00    +0.000 N 
ATOM      6  C   UNL     1       2.612   5.013  18.635  0.00  0.00    +0.000 C 
ATOM      7  O   UNL     1       3.192   4.150  17.971  0.00  0.00    +0.000 OA
ENDROOT
BRANCH   1  13
ATOM      8  C   UNL     1       6.936   4.680  14.706  0.00  0.00    +0.000 C 
ATOM      9  C   UNL     1       6.313   4.197  16.020  0.00  0.00    +0.000 C 
ATOM     10  C   UNL     1       7.309   4.390  17.175  0.00  0.00    +0.000 C 
ATOM     11  C   UNL     1       7.339   5.821  17.714  0.00  0.00    +0.000 C 
ATOM     12  C   UNL     1       5.941   6.327  18.073  0.00  0.00    +0.000 C 
ATOM     13  C   UNL     1       4.970   6.252  16.864  0.00  0.00    +0.000 C 
ATOM     14  C   UNL     1       4.922   4.819  16.305  0.00  0.00    +0.000 C 
BRANCH  12  15
ATOM     15  O   UNL     1       5.483   5.574  19.195  0.00  0.00    +0.000 OA
ATOM     16  H   UNL     1       5.072   6.179  19.836  0.00  0.00    +0.000 HD
ENDBRANCH  12  15
ENDBRANCH   1  13
BRANCH   6  17
ATOM     17  C   UNL     1       1.670   4.532  19.767  0.00  0.00    +0.000 C 
ATOM     18  C   UNL     1       1.030   3.148  19.610  0.00  0.00    +0.000 C 
ATOM     19  C   UNL     1       1.558   2.374  20.778  0.00  0.00    +0.000 C 
ATOM     20  C   UNL     1       2.244   3.146  21.625  0.00  0.00    +0.000 C 
ATOM     21  C   UNL     1       2.299   4.569  21.169  0.00  0.00    +0.000 C 
ENDBRANCH   6  17
TORSDOF 3
ENDMDL
MODEL 6
REMARK VINA RESULT:      -6.6      2.871      4.202
REMARK  Name = 
REMARK  4 active torsions:
REMARK  status: ('A' for Active; 'I' for Inactive)
REMARK    1  A    between atoms: C_1  and  C_2
REMARK    2  A    between atoms: C_5  and  O_6
REMARK    3  A    between atoms: C_7  and  C_8
REMARK    4  A    between atoms: C_13  and  C_15
REMARK                            x       y       z     vdW  Elec       q    Type
REMARK                         _______ _______ _______ _____ _____    ______ ____
ROOT
ATOM      1  C   UNL     1       3.175   6.028  18.979  0.00  0.00    +0.000 C 
ATOM      2  C   UNL     1       2.206   6.833  18.098  0.00  0.00    +0.000 C 
ATOM      3  C   UNL     1       3.018   8.042  17.681  0.00  0.00    +0.000 C 
ATOM      4  C   UNL     1       4.421   7.500  17.531  0.00  0.00    +0.000 C 
ATOM      5  N   UNL     1       4.477   6.251  18.297  0.00  0.00    +0.000 N 
ATOM      6  C   UNL     1       5.653   5.608  18.642  0.00  0.00    +0.000 C 
ATOM      7  O   UNL     1       5.660   4.721  19.499  0.00  0.00    +0.000 OA
ENDROOT
BRANCH   1  13
ATOM      8  C   UNL     1       2.352   1.407  18.391  0.00  0.00    +0.000 C 
ATOM      9  C   UNL     1       1.302   2.500  18.617  0.00  0.00    +0.000 C 
ATOM     10  C   UNL     1       0.748   2.408  20.047  0.00  0.00    +0.000 C 
ATOM     11  C   UNL     1       1.657   3.063  21.089  0.00  0.00    +0.000 C 
ATOM     12  C   UNL     1       2.023   4.498  20.708  0.00  0.00    +0.000 C 
ATOM     13  C   UNL     1       2.702   4.572  19.314  0.00  0.00    +0.000 C 
ATOM     14  C   UNL     1       1.805   3.918  18.247  0.00  0.00    +0.000 C 
BRANCH  12  15
ATOM     15  O   UNL     1       0.833   5.283  20.784  0.00  0.00    +0.000 OA
ATOM     16  H   UNL     1       0.682   5.712  19.924  0.00  0.00    +0.000 HD
ENDBRANCH  12  15
ENDBRANCH   1  13
BRANCH   6  17
ATOM     17  C   UNL     1       7.007   5.983  17.987  0.00  0.00    +0.000 C 
ATOM     18  C   UNL     1       6.991   7.080  16.917  0.00  0.00    +0.000 C 
ATOM     19  C   UNL     1       7.856   8.158  17.494  0.00  0.00    +0.000 C 
ATOM     20  C   UNL     1       8.464   7.766  18.617  0.00  0.00    +0.000 C 
ATOM     21  C   UNL     1       8.108   6.363  18.990  0.00  0.00    +0.000 C 
ENDBRANCH   6  17
TORSDOF 3
ENDMDL
MODEL 7
REMARK VINA RESULT:      -6.4      2.140      3.151
REMARK  Name = 
REMARK  4 active torsions:
REMARK  status: ('A' for Active; 'I' for Inactive)
REMARK    1  A    between atoms: C_1  and  C_2
REMARK    2  A    between atoms: C_5  and  O_6
REMARK    3  A    between atoms: C_7  and  C_8
REMARK    4  A    between atoms: C_13  and  C_15
REMARK                            x       y       z     vdW  Elec       q    Type
REMARK                         _______ _______ _______ _____ _____    ______ ____
ROOT
ATOM      1  C   UNL     1       2.717   6.377  19.046  0.00  0.00    +0.000 C 
ATOM      2  C   UNL     1       1.674   7.426  18.628  0.00  0.00    +0.000 C 
ATOM      3  C   UNL     1       2.503   8.536  18.016  0.00  0.00    +0.000 C 
ATOM      4  C   UNL     1       3.635   7.804  17.331  0.00  0.00    +0.000 C 
ATOM      5  N   UNL     1       3.717   6.476  17.949  0.00  0.00    +0.000 N 
ATOM      6  C   UNL     1       4.794   5.620  17.802  0.00  0.00    +0.000 C 
ATOM      7  O   UNL     1       4.931   4.644  18.544  0.00  0.00    +0.000 OA
ENDROOT
BRANCH   1  13
ATOM      8  C   UNL     1       1.564   2.681  21.765  0.00  0.00    +0.000 C 
ATOM      9  C   UNL     1       2.505   2.667  20.555  0.00  0.00    +0.000 C 
ATOM     10  C   UNL     1       1.811   1.994  19.360  0.00  0.00    +0.000 C 
ATOM     11  C   UNL     1       0.859   2.927  18.610  0.00  0.00    +0.000 C 
ATOM     12  C   UNL     1       1.537   4.239  18.214  0.00  0.00    +0.000 C 
ATOM     13  C   UNL     1       2.124   4.982  19.444  0.00  0.00    +0.000 C 
ATOM     14  C   UNL     1       3.088   4.062  20.214  0.00  0.00    +0.000 C 
BRANCH  12  15
ATOM     15  O   UNL     1       2.526   3.936  17.230  0.00  0.00    +0.000 OA
ATOM     16  H   UNL     1       3.279   4.540  17.343  0.00  0.00    +0.000 HD
ENDBRANCH  12  15
ENDBRANCH   1  13
BRANCH   6  17
ATOM     17  C   UNL     1       5.879   5.857  16.721  0.00  0.00    +0.000 C 
ATOM     18  C   UNL     1       7.131   4.973  16.776  0.00  0.00    +0.000 C 
ATOM     19  C   UNL     1       7.102   4.229  15.476  0.00  0.00    +0.000 C 
ATOM     20  C   UNL     1       6.141   4.675  14.662  0.00  0.00    +0.000 C 
ATOM     21  C   UNL     1       5.356   5.790  15.277  0.00  0.00    +0.000 C 
ENDBRANCH   6  17
TORSDOF 3
ENDMDL
MODEL 8
REMARK VINA RESULT:      -6.4     10.177     12.194
REMARK  Name = 
REMARK  4 active torsions:
REMARK  status: ('A' for Active; 'I' for Inactive)
REMARK    1  A    between atoms: C_1  and  C_2
REMARK    2  A    between atoms: C_5  and  O_6
REMARK    3  A    between atoms: C_7  and  C_8
REMARK    4  A    between atoms: C_13  and  C_15
REMARK                            x       y       z     vdW  Elec       q    Type
REMARK                         _______ _______ _______ _____ _____    ______ ____
ROOT
ATOM      1  C   UNL     1       9.452  15.496  17.936  0.00  0.00    +0.000 C 
ATOM      2  C   UNL     1      10.314  16.675  18.417  0.00  0.00    +0.000 C 
ATOM      3  C   UNL     1       9.452  17.889  18.143  0.00  0.00    +0.000 C 
ATOM      4  C   UNL     1       8.046  17.399  18.406  0.00  0.00    +0.000 C 
ATOM      5  N   UNL     1       8.083  15.936  18.315  0.00  0.00    +0.000 N 
ATOM      6  C   UNL     1       6.957  15.140  18.211  0.00  0.00    +0.000 C 
ATOM      7  O   UNL     1       7.048  13.956  17.874  0.00  0.00    +0.000 OA
ENDROOT
BRANCH   1  13
ATOM      8  C   UNL     1      10.537  11.866  20.768  0.00  0.00    +0.000 C 
ATOM      9  C   UNL     1      11.515  12.688  19.921  0.00  0.00    +0.000 C 
ATOM     10  C   UNL     1      11.974  11.866  18.706  0.00  0.00    +0.000 C 
ATOM     11  C   UNL     1      10.967  11.877  17.555  0.00  0.00    +0.000 C 
ATOM     12  C   UNL     1      10.558  13.297  17.164  0.00  0.00    +0.000 C 
ATOM     13  C   UNL     1       9.972  14.083  18.368  0.00  0.00    +0.000 C 
ATOM     14  C   UNL     1      10.970  14.087  19.540  0.00  0.00    +0.000 C 
BRANCH  12  15
ATOM     15  O   UNL     1      11.700  13.935  16.594  0.00  0.00    +0.000 OA
ATOM     16  H   UNL     1      12.456  13.325  16.635  0.00  0.00    +0.000 HD
ENDBRANCH  12  15
ENDBRANCH   1  13
BRANCH   6  17
ATOM     17  C   UNL     1       5.537  15.697  18.490  0.00  0.00    +0.000 C 
ATOM     18  C   UNL     1       4.403  15.223  17.574  0.00  0.00    +0.000 C 
ATOM     19  C   UNL     1       3.464  14.516  18.503  0.00  0.00    +0.000 C 
ATOM     20  C   UNL     1       3.815  14.666  19.783  0.00  0.00    +0.000 C 
ATOM     21  C   UNL     1       5.052  15.492  19.933  0.00  0.00    +0.000 C 
ENDBRANCH   6  17
TORSDOF 3
ENDMDL
MODEL 9
REMARK VINA RESULT:      -6.4      2.084      2.915
REMARK  Name = 
REMARK  4 active torsions:
REMARK  status: ('A' for Active; 'I' for Inactive)
REMARK    1  A    between atoms: C_1  and  C_2
REMARK    2  A    between atoms: C_5  and  O_6
REMARK    3  A    between atoms: C_7  and  C_8
REMARK    4  A    between atoms: C_13  and  C_15
REMARK                            x       y       z     vdW  Elec       q    Type
REMARK                         _______ _______ _______ _____ _____    ______ ____
ROOT
ATOM      1  C   UNL     1       3.680   5.695  18.751  0.00  0.00    +0.000 C 
ATOM      2  C   UNL     1       2.765   6.766  18.134  0.00  0.00    +0.000 C 
ATOM      3  C   UNL     1       3.714   7.633  17.332  0.00  0.00    +0.000 C 
ATOM      4  C   UNL     1       4.740   6.654  16.808  0.00  0.00    +0.000 C 
ATOM      5  N   UNL     1       4.669   5.466  17.665  0.00  0.00    +0.000 N 
ATOM      6  C   UNL     1       5.633   4.474  17.691  0.00  0.00    +0.000 C 
ATOM      7  O   UNL     1       5.661   3.644  18.604  0.00  0.00    +0.000 OA
ENDROOT
BRANCH   1  13
ATOM      8  C   UNL     1       1.362   1.582  19.042  0.00  0.00    +0.000 C 
ATOM      9  C   UNL     1       0.822   2.963  19.428  0.00  0.00    +0.000 C 
ATOM     10  C   UNL     1       0.765   3.094  20.958  0.00  0.00    +0.000 C 
ATOM     11  C   UNL     1       2.116   3.444  21.585  0.00  0.00    +0.000 C 
ATOM     12  C   UNL     1       2.751   4.671  20.929  0.00  0.00    +0.000 C 
ATOM     13  C   UNL     1       2.928   4.482  19.398  0.00  0.00    +0.000 C 
ATOM     14  C   UNL     1       1.579   4.130  18.744  0.00  0.00    +0.000 C 
BRANCH  12  15
ATOM     15  O   UNL     1       1.945   5.803  21.255  0.00  0.00    +0.000 OA
ATOM     16  H   UNL     1       1.655   5.728  22.181  0.00  0.00    +0.000 HD
ENDBRANCH  12  15
ENDBRANCH   1  13
BRANCH   6  17
ATOM     17  C   UNL     1       6.725   4.370  16.596  0.00  0.00    +0.000 C 
ATOM     18  C   UNL     1       6.373   3.591  15.323  0.00  0.00    +0.000 C 
ATOM     19  C   UNL     1       6.475   4.615  14.235  0.00  0.00    +0.000 C 
ATOM     20  C   UNL     1       6.975   5.771  14.678  0.00  0.00    +0.000 C 
ATOM     21  C   UNL     1       7.290   5.725  16.140  0.00  0.00    +0.000 C 
ENDBRANCH   6  17
TORSDOF 3
ENDMDL
