MODEL 1
REMARK VINA RESULT:      -7.7      0.000      0.000
REMARK  Name = 
REMARK  2 active torsions:
REMARK  status: ('A' for Active; 'I' for Inactive)
REMARK    1  A    between atoms: C_5  and  C_6
REMARK    2  A    between atoms: N_9  and  C_10
REMARK                            x       y       z     vdW  Elec       q    Type
REMARK                         _______ _______ _______ _____ _____    ______ ____
ROOT
ATOM      1  C   UNL     1       1.053  10.766  18.731  0.00  0.00    +0.000 A 
ATOM      2  N   UNL     1      -0.278  10.956  18.614  0.00  0.00    +0.000 NA
ATOM      3  C   UNL     1      -0.707  12.227  18.497  0.00  0.00    +0.000 A 
ATOM      4  N   UNL     1      -2.037  12.490  18.170  0.00  0.00    +0.000 N 
ATOM      5  C   UNL     1       0.183  13.318  18.621  0.00  0.00    +0.000 A 
ATOM      6  C   UNL     1      -0.193  14.682  18.701  0.00  0.00    +0.000 A 
ATOM      7  C   UNL     1       0.768  15.694  18.781  0.00  0.00    +0.000 A 
ATOM      8  C   UNL     1       2.114  15.361  18.759  0.00  0.00    +0.000 A 
ATOM      9  C   UNL     1       2.486  14.018  18.722  0.00  0.00    +0.000 A 
ATOM     10  C   UNL     1       1.542  12.997  18.689  0.00  0.00    +0.000 A 
ATOM     11  N   UNL     1       1.975  11.742  18.728  0.00  0.00    +0.000 NA
ATOM     12  H   UNL     1      -2.121  12.984  17.288  0.00  0.00    +0.000 HD
ENDROOT
BRANCH   4  13
ATOM     13  C   UNL     1      -3.187  11.635  18.484  0.00  0.00    +0.000 C 
ATOM     14  C   UNL     1      -4.032  11.200  17.273  0.00  0.00    +0.000 C 
ATOM     15  C   UNL     1      -5.347  11.939  17.031  0.00  0.00    +0.000 C 
ATOM     16  C   UNL     1      -6.168  12.201  18.283  0.00  0.00    +0.000 C 
ATOM     17  C   UNL     1      -5.354  12.647  19.463  0.00  0.00    +0.000 A 
ATOM     18  C   UNL     1      -6.019  13.309  20.512  0.00  0.00    +0.000 A 
ATOM     19  C   UNL     1      -5.341  13.682  21.670  0.00  0.00    +0.000 A 
ATOM     20  C   UNL     1      -3.987  13.389  21.797  0.00  0.00    +0.000 A 
ATOM     21  C   UNL     1      -3.321  12.727  20.764  0.00  0.00    +0.000 A 
ATOM     22  C   UNL     1      -3.984  12.348  19.579  0.00  0.00    +0.000 A 
ENDBRANCH   4  13
BRANCH   1  27
ATOM     23  C   UNL     1       2.668   7.430  17.888  0.00  0.00    +0.000 A 
ATOM     24  C   UNL     1       2.525   6.807  19.110  0.00  0.00    +0.000 A 
ATOM     25  N   UNL     1       1.951   7.387  20.187  0.00  0.00    +0.000 NA
ATOM     26  C   UNL     1       1.493   8.658  20.022  0.00  0.00    +0.000 A 
ATOM     27  C   UNL     1       1.570   9.394  18.848  0.00  0.00    +0.000 A 
ATOM     28  C   UNL     1       2.189   8.736  17.761  0.00  0.00    +0.000 A 
ENDBRANCH   1  27
TORSDOF 2
ENDMDL
MODEL 2
REMARK VINA RESULT:      -7.6      2.748      6.486
REMARK  Name = 
REMARK  2 active torsions:
REMARK  status: ('A' for Active; 'I' for Inactive)
REMARK    1  A    between atoms: C_5  and  C_6
REMARK    2  A    between atoms: N_9  and  C_10
REMARK                            x       y       z     vdW  Elec       q    Type
REMARK                         _______ _______ _______ _____ _____    ______ ____
ROOT
ATOM      1  C   UNL     1      -3.894  12.061  19.373  0.00  0.00    +0.000 A 
ATOM      2  N   UNL     1      -2.950  12.304  20.307  0.00  0.00    +0.000 NA
ATOM      3  C   UNL     1      -3.351  12.908  21.440  0.00  0.00    +0.000 A 
ATOM      4  N   UNL     1      -2.482  13.008  22.527  0.00  0.00    +0.000 N 
ATOM      5  C   UNL     1      -4.673  13.385  21.592  0.00  0.00    +0.000 A 
ATOM      6  C   UNL     1      -5.141  14.193  22.658  0.00  0.00    +0.000 A 
ATOM      7  C   UNL     1      -6.481  14.579  22.740  0.00  0.00    +0.000 A 
ATOM      8  C   UNL     1      -7.377  14.145  21.773  0.00  0.00    +0.000 A 
ATOM      9  C   UNL     1      -6.912  13.385  20.702  0.00  0.00    +0.000 A 
ATOM     10  C   UNL     1      -5.572  13.031  20.581  0.00  0.00    +0.000 A 
ATOM     11  N   UNL     1      -5.196  12.367  19.495  0.00  0.00    +0.000 NA
ATOM     12  H   UNL     1      -2.835  12.516  23.341  0.00  0.00    +0.000 HD
ENDROOT
BRANCH   4  13
ATOM     13  C   UNL     1      -1.019  13.069  22.457  0.00  0.00    +0.000 C 
ATOM     14  C   UNL     1      -0.451  14.124  21.490  0.00  0.00    +0.000 C 
ATOM     15  C   UNL     1       0.055  13.635  20.134  0.00  0.00    +0.000 C 
ATOM     16  C   UNL     1       0.872  12.354  20.186  0.00  0.00    +0.000 C 
ATOM     17  C   UNL     1       0.313  11.312  21.110  0.00  0.00    +0.000 A 
ATOM     18  C   UNL     1       0.722   9.977  20.925  0.00  0.00    +0.000 A 
ATOM     19  C   UNL     1       0.304   8.972  21.793  0.00  0.00    +0.000 A 
ATOM     20  C   UNL     1      -0.524   9.291  22.864  0.00  0.00    +0.000 A 
ATOM     21  C   UNL     1      -0.929  10.612  23.059  0.00  0.00    +0.000 A 
ATOM     22  C   UNL     1      -0.527  11.645  22.188  0.00  0.00    +0.000 A 
ENDBRANCH   4  13
BRANCH   1  27
ATOM     23  C   UNL     1      -1.976   9.981  16.835  0.00  0.00    +0.000 A 
ATOM     24  C   UNL     1      -2.808  10.148  15.747  0.00  0.00    +0.000 A 
ATOM     25  N   UNL     1      -3.945  10.878  15.775  0.00  0.00    +0.000 NA
ATOM     26  C   UNL     1      -4.256  11.474  16.959  0.00  0.00    +0.000 A 
ATOM     27  C   UNL     1      -3.506  11.391  18.124  0.00  0.00    +0.000 A 
ATOM     28  C   UNL     1      -2.334  10.605  18.032  0.00  0.00    +0.000 A 
ENDBRANCH   1  27
TORSDOF 2
ENDMDL
MODEL 3
REMARK VINA RESULT:      -7.5      2.733      6.920
REMARK  Name = 
REMARK  2 active torsions:
REMARK  status: ('A' for Active; 'I' for Inactive)
REMARK    1  A    between atoms: C_5  and  C_6
REMARK    2  A    between atoms: N_9  and  C_10
REMARK                            x       y       z     vdW  Elec       q    Type
REMARK                         _______ _______ _______ _____ _____    ______ ____
ROOT
ATOM      1  C   UNL     1      -4.270  12.163  19.985  0.00  0.00    +0.000 A 
ATOM      2  N   UNL     1      -3.326  12.360  20.930  0.00  0.00    +0.000 NA
ATOM      3  C   UNL     1      -3.755  12.686  22.163  0.00  0.00    +0.000 A 
ATOM      4  N   UNL     1      -2.860  12.706  23.233  0.00  0.00    +0.000 N 
ATOM      5  C   UNL     1      -5.120  12.939  22.425  0.00  0.00    +0.000 A 
ATOM      6  C   UNL     1      -5.644  13.467  23.631  0.00  0.00    +0.000 A 
ATOM      7  C   UNL     1      -7.019  13.642  23.809  0.00  0.00    +0.000 A 
ATOM      8  C   UNL     1      -7.891  13.272  22.795  0.00  0.00    +0.000 A 
ATOM      9  C   UNL     1      -7.376  12.791  21.592  0.00  0.00    +0.000 A 
ATOM     10  C   UNL     1      -6.008  12.654  21.383  0.00  0.00    +0.000 A 
ATOM     11  N   UNL     1      -5.594  12.257  20.185  0.00  0.00    +0.000 NA
ATOM     12  H   UNL     1      -3.107  12.031  23.948  0.00  0.00    +0.000 HD
ENDROOT
BRANCH   4  13
ATOM     13  C   UNL     1      -1.422  12.982  23.149  0.00  0.00    +0.000 C 
ATOM     14  C   UNL     1      -1.045  14.293  22.434  0.00  0.00    +0.000 C 
ATOM     15  C   UNL     1      -0.550  14.191  20.993  0.00  0.00    +0.000 C 
ATOM     16  C   UNL     1       0.427  13.055  20.736  0.00  0.00    +0.000 C 
ATOM     17  C   UNL     1       0.055  11.767  21.411  0.00  0.00    +0.000 A 
ATOM     18  C   UNL     1       0.623  10.576  20.920  0.00  0.00    +0.000 A 
ATOM     19  C   UNL     1       0.383   9.356  21.546  0.00  0.00    +0.000 A 
ATOM     20  C   UNL     1      -0.424   9.312  22.679  0.00  0.00    +0.000 A 
ATOM     21  C   UNL     1      -0.986  10.489  23.176  0.00  0.00    +0.000 A 
ATOM     22  C   UNL     1      -0.764  11.735  22.554  0.00  0.00    +0.000 A 
ENDBRANCH   4  13
BRANCH   1  27
ATOM     23  C   UNL     1      -4.374  11.205  16.308  0.00  0.00    +0.000 A 
ATOM     24  C   UNL     1      -3.019  11.084  16.079  0.00  0.00    +0.000 A 
ATOM     25  N   UNL     1      -2.075  11.296  17.022  0.00  0.00    +0.000 NA
ATOM     26  C   UNL     1      -2.520  11.640  18.262  0.00  0.00    +0.000 A 
ATOM     27  C   UNL     1      -3.851  11.790  18.625  0.00  0.00    +0.000 A 
ATOM     28  C   UNL     1      -4.789  11.565  17.592  0.00  0.00    +0.000 A 
ENDBRANCH   1  27
TORSDOF 2
ENDMDL
MODEL 4
REMARK VINA RESULT:      -7.3      2.654      6.481
REMARK  Name = 
REMARK  2 active torsions:
REMARK  status: ('A' for Active; 'I' for Inactive)
REMARK    1  A    between atoms: C_5  and  C_6
REMARK    2  A    between atoms: N_9  and  C_10
REMARK                            x       y       z     vdW  Elec       q    Type
REMARK                         _______ _______ _______ _____ _____    ______ ____
ROOT
ATOM      1  C   UNL     1      -4.150  11.919  19.020  0.00  0.00    +0.000 A 
ATOM      2  N   UNL     1      -3.267  12.296  19.968  0.00  0.00    +0.000 NA
ATOM      3  C   UNL     1      -3.767  12.882  21.072  0.00  0.00    +0.000 A 
ATOM      4  N   UNL     1      -2.945  13.113  22.175  0.00  0.00    +0.000 N 
ATOM      5  C   UNL     1      -5.138  13.206  21.176  0.00  0.00    +0.000 A 
ATOM      6  C   UNL     1      -5.725  13.986  22.204  0.00  0.00    +0.000 A 
ATOM      7  C   UNL     1      -7.103  14.216  22.241  0.00  0.00    +0.000 A 
ATOM      8  C   UNL     1      -7.916  13.654  21.267  0.00  0.00    +0.000 A 
ATOM      9  C   UNL     1      -7.337  12.922  20.232  0.00  0.00    +0.000 A 
ATOM     10  C   UNL     1      -5.962  12.723  20.155  0.00  0.00    +0.000 A 
ATOM     11  N   UNL     1      -5.482  12.075  19.100  0.00  0.00    +0.000 NA
ATOM     12  H   UNL     1      -3.262  12.607  22.996  0.00  0.00    +0.000 HD
ENDROOT
BRANCH   4  13
ATOM     13  C   UNL     1      -1.497  13.341  22.139  0.00  0.00    +0.000 C 
ATOM     14  C   UNL     1      -1.013  14.311  21.047  0.00  0.00    +0.000 C 
ATOM     15  C   UNL     1      -0.392  13.702  19.791  0.00  0.00    +0.000 C 
ATOM     16  C   UNL     1       0.565  12.550  20.050  0.00  0.00    +0.000 C 
ATOM     17  C   UNL     1       0.089  11.587  21.099  0.00  0.00    +0.000 A 
ATOM     18  C   UNL     1       0.659  10.300  21.121  0.00  0.00    +0.000 A 
ATOM     19  C   UNL     1       0.321   9.383  22.112  0.00  0.00    +0.000 A 
ATOM     20  C   UNL     1      -0.587   9.745  23.102  0.00  0.00    +0.000 A 
ATOM     21  C   UNL     1      -1.151  11.021  23.092  0.00  0.00    +0.000 A 
ATOM     22  C   UNL     1      -0.831  11.964  22.093  0.00  0.00    +0.000 A 
ENDBRANCH   4  13
BRANCH   1  27
ATOM     23  C   UNL     1      -3.857  10.720  15.425  0.00  0.00    +0.000 A 
ATOM     24  C   UNL     1      -2.684  10.001  15.533  0.00  0.00    +0.000 A 
ATOM     25  N   UNL     1      -1.979   9.881  16.680  0.00  0.00    +0.000 NA
ATOM     26  C   UNL     1      -2.485  10.513  17.774  0.00  0.00    +0.000 A 
ATOM     27  C   UNL     1      -3.653  11.262  17.802  0.00  0.00    +0.000 A 
ATOM     28  C   UNL     1      -4.339  11.357  16.570  0.00  0.00    +0.000 A 
ENDBRANCH   1  27
TORSDOF 2
ENDMDL
MODEL 5
REMARK VINA RESULT:      -7.2      3.139      5.554
REMARK  Name = 
REMARK  2 active torsions:
REMARK  status: ('A' for Active; 'I' for Inactive)
REMARK    1  A    between atoms: C_5  and  C_6
REMARK    2  A    between atoms: N_9  and  C_10
REMARK                            x       y       z     vdW  Elec       q    Type
REMARK                         _______ _______ _______ _____ _____    ______ ____
ROOT
ATOM      1  C   UNL     1       0.919  10.263  20.292  0.00  0.00    +0.000 A 
ATOM      2  N   UNL     1       1.223  11.471  19.774  0.00  0.00    +0.000 NA
ATOM      3  C   UNL     1       0.683  12.548  20.374  0.00  0.00    +0.000 A 
ATOM      4  N   UNL     1       1.109  13.830  20.026  0.00  0.00    +0.000 N 
ATOM      5  C   UNL     1      -0.261  12.414  21.417  0.00  0.00    +0.000 A 
ATOM      6  C   UNL     1      -1.021  13.468  21.982  0.00  0.00    +0.000 A 
ATOM      7  C   UNL     1      -1.901  13.239  23.043  0.00  0.00    +0.000 A 
ATOM      8  C   UNL     1      -2.018  11.960  23.569  0.00  0.00    +0.000 A 
ATOM      9  C   UNL     1      -1.304  10.913  22.988  0.00  0.00    +0.000 A 
ATOM     10  C   UNL     1      -0.458  11.117  21.903  0.00  0.00    +0.000 A 
ATOM     11  N   UNL     1       0.132  10.058  21.362  0.00  0.00    +0.000 NA
ATOM     12  H   UNL     1       1.530  14.316  20.811  0.00  0.00    +0.000 HD
ENDROOT
BRANCH   4  13
ATOM     13  C   UNL     1       1.637  14.239  18.721  0.00  0.00    +0.000 C 
ATOM     14  C   UNL     1       3.159  14.078  18.549  0.00  0.00    +0.000 C 
ATOM     15  C   UNL     1       4.016  15.336  18.673  0.00  0.00    +0.000 C 
ATOM     16  C   UNL     1       3.451  16.562  17.975  0.00  0.00    +0.000 C 
ATOM     17  C   UNL     1       1.971  16.738  18.156  0.00  0.00    +0.000 A 
ATOM     18  C   UNL     1       1.425  18.015  17.929  0.00  0.00    +0.000 A 
ATOM     19  C   UNL     1       0.052  18.232  18.003  0.00  0.00    +0.000 A 
ATOM     20  C   UNL     1      -0.796  17.169  18.298  0.00  0.00    +0.000 A 
ATOM     21  C   UNL     1      -0.264  15.898  18.518  0.00  0.00    +0.000 A 
ATOM     22  C   UNL     1       1.124  15.656  18.457  0.00  0.00    +0.000 A 
ENDBRANCH   4  13
BRANCH   1  27
ATOM     23  C   UNL     1       2.420   7.868  17.751  0.00  0.00    +0.000 A 
ATOM     24  C   UNL     1       2.572   6.762  18.561  0.00  0.00    +0.000 A 
ATOM     25  N   UNL     1       2.231   6.735  19.869  0.00  0.00    +0.000 NA
ATOM     26  C   UNL     1       1.705   7.880  20.384  0.00  0.00    +0.000 A 
ATOM     27  C   UNL     1       1.495   9.057  19.679  0.00  0.00    +0.000 A 
ATOM     28  C   UNL     1       1.881   9.024  18.319  0.00  0.00    +0.000 A 
ENDBRANCH   1  27
TORSDOF 2
ENDMDL
MODEL 6
REMARK VINA RESULT:      -7.1      3.642      5.920
REMARK  Name = 
REMARK  2 active torsions:
REMARK  status: ('A' for Active; 'I' for Inactive)
REMARK    1  A    between atoms: C_5  and  C_6
REMARK    2  A    between atoms: N_9  and  C_10
REMARK                            x       y       z     vdW  Elec       q    Type
REMARK                         _______ _______ _______ _____ _____    ______ ____
ROOT
ATOM      1  C   UNL     1       3.664  15.895  18.318  0.00  0.00    +0.000 A 
ATOM      2  N   UNL     1       2.967  14.839  18.790  0.00  0.00    +0.000 NA
ATOM      3  C   UNL     1       1.625  14.937  18.776  0.00  0.00    +0.000 A 
ATOM      4  N   UNL     1       0.839  13.818  19.054  0.00  0.00    +0.000 N 
ATOM      5  C   UNL     1       0.978  16.138  18.407  0.00  0.00    +0.000 A 
ATOM      6  C   UNL     1      -0.408  16.401  18.539  0.00  0.00    +0.000 A 
ATOM      7  C   UNL     1      -0.960  17.609  18.105  0.00  0.00    +0.000 A 
ATOM      8  C   UNL     1      -0.142  18.561  17.514  0.00  0.00    +0.000 A 
ATOM      9  C   UNL     1       1.228  18.322  17.421  0.00  0.00    +0.000 A 
ATOM     10  C   UNL     1       1.800  17.144  17.890  0.00  0.00    +0.000 A 
ATOM     11  N   UNL     1       3.121  17.022  17.831  0.00  0.00    +0.000 NA
ATOM     12  H   UNL     1       0.257  13.558  18.265  0.00  0.00    +0.000 HD
ENDROOT
BRANCH   4  13
ATOM     13  C   UNL     1       1.217  12.690  19.911  0.00  0.00    +0.000 C 
ATOM     14  C   UNL     1       1.354  11.336  19.192  0.00  0.00    +0.000 C 
ATOM     15  C   UNL     1       0.201  10.345  19.335  0.00  0.00    +0.000 C 
ATOM     16  C   UNL     1      -0.370  10.233  20.739  0.00  0.00    +0.000 C 
ATOM     17  C   UNL     1      -0.528  11.552  21.439  0.00  0.00    +0.000 A 
ATOM     18  C   UNL     1      -1.411  11.617  22.533  0.00  0.00    +0.000 A 
ATOM     19  C   UNL     1      -1.547  12.787  23.276  0.00  0.00    +0.000 A 
ATOM     20  C   UNL     1      -0.793  13.906  22.939  0.00  0.00    +0.000 A 
ATOM     21  C   UNL     1       0.090  13.848  21.859  0.00  0.00    +0.000 A 
ATOM     22  C   UNL     1       0.238  12.678  21.087  0.00  0.00    +0.000 A 
ENDBRANCH   4  13
BRANCH   1  27
ATOM     23  C   UNL     1       7.326  16.830  18.718  0.00  0.00    +0.000 A 
ATOM     24  C   UNL     1       7.898  15.668  18.243  0.00  0.00    +0.000 A 
ATOM     25  N   UNL     1       7.188  14.603  17.809  0.00  0.00    +0.000 NA
ATOM     26  C   UNL     1       5.832  14.718  17.851  0.00  0.00    +0.000 A 
ATOM     27  C   UNL     1       5.133  15.830  18.300  0.00  0.00    +0.000 A 
ATOM     28  C   UNL     1       5.933  16.906  18.750  0.00  0.00    +0.000 A 
ENDBRANCH   1  27
TORSDOF 2
ENDMDL
MODEL 7
REMARK VINA RESULT:      -7.1      3.551      5.692
REMARK  Name = 
REMARK  2 active torsions:
REMARK  status: ('A' for Active; 'I' for Inactive)
REMARK    1  A    between atoms: C_5  and  C_6
REMARK    2  A    between atoms: N_9  and  C_10
REMARK                            x       y       z     vdW  Elec       q    Type
REMARK                         _______ _______ _______ _____ _____    ______ ____
ROOT
ATOM      1  C   UNL     1      -3.055  12.572  20.335  0.00  0.00    +0.000 A 
ATOM      2  N   UNL     1      -4.348  12.825  20.044  0.00  0.00    +0.000 NA
ATOM      3  C   UNL     1      -4.845  12.261  18.928  0.00  0.00    +0.000 A 
ATOM      4  N   UNL     1      -6.215  12.308  18.669  0.00  0.00    +0.000 N 
ATOM      5  C   UNL     1      -4.017  11.544  18.033  0.00  0.00    +0.000 A 
ATOM      6  C   UNL     1      -4.399  11.078  16.751  0.00  0.00    +0.000 A 
ATOM      7  C   UNL     1      -3.517  10.340  15.956  0.00  0.00    +0.000 A 
ATOM      8  C   UNL     1      -2.253  10.038  16.440  0.00  0.00    +0.000 A 
ATOM      9  C   UNL     1      -1.860  10.531  17.683  0.00  0.00    +0.000 A 
ATOM     10  C   UNL     1      -2.709  11.306  18.466  0.00  0.00    +0.000 A 
ATOM     11  N   UNL     1      -2.236  11.797  19.605  0.00  0.00    +0.000 NA
ATOM     12  H   UNL     1      -6.627  11.381  18.634  0.00  0.00    +0.000 HD
ENDROOT
BRANCH   4  13
ATOM     13  C   UNL     1      -7.141  13.352  19.118  0.00  0.00    +0.000 C 
ATOM     14  C   UNL     1      -6.765  14.786  18.702  0.00  0.00    +0.000 C 
ATOM     15  C   UNL     1      -6.117  15.677  19.760  0.00  0.00    +0.000 C 
ATOM     16  C   UNL     1      -6.750  15.589  21.139  0.00  0.00    +0.000 C 
ATOM     17  C   UNL     1      -7.099  14.192  21.561  0.00  0.00    +0.000 A 
ATOM     18  C   UNL     1      -7.286  13.944  22.934  0.00  0.00    +0.000 A 
ATOM     19  C   UNL     1      -7.687  12.690  23.389  0.00  0.00    +0.000 A 
ATOM     20  C   UNL     1      -7.915  11.668  22.473  0.00  0.00    +0.000 A 
ATOM     21  C   UNL     1      -7.739  11.907  21.109  0.00  0.00    +0.000 A 
ATOM     22  C   UNL     1      -7.325  13.166  20.626  0.00  0.00    +0.000 A 
ENDBRANCH   4  13
BRANCH   1  27
ATOM     23  C   UNL     1      -2.503  14.788  23.374  0.00  0.00    +0.000 A 
ATOM     24  C   UNL     1      -1.332  14.227  23.840  0.00  0.00    +0.000 A 
ATOM     25  N   UNL     1      -0.711  13.183  23.248  0.00  0.00    +0.000 NA
ATOM     26  C   UNL     1      -1.299  12.682  22.126  0.00  0.00    +0.000 A 
ATOM     27  C   UNL     1      -2.471  13.155  21.552  0.00  0.00    +0.000 A 
ATOM     28  C   UNL     1      -3.076  14.242  22.224  0.00  0.00    +0.000 A 
ENDBRANCH   1  27
TORSDOF 2
ENDMDL
MODEL 8
REMARK VINA RESULT:      -7.1      1.653      1.839
REMARK  Name = 
REMARK  2 active torsions:
REMARK  status: ('A' for Active; 'I' for Inactive)
REMARK    1  A    between atoms: C_5  and  C_6
REMARK    2  A    between atoms: N_9  and  C_10
REMARK                            x       y       z     vdW  Elec       q    Type
REMARK                         _______ _______ _______ _____ _____    ______ ____
ROOT
ATOM      1  C   UNL     1       0.283  11.213  19.827  0.00  0.00    +0.000 A 
ATOM      2  N   UNL     1      -1.028  11.342  19.534  0.00  0.00    +0.000 NA
ATOM      3  C   UNL     1      -1.616  12.508  19.859  0.00  0.00    +0.000 A 
ATOM      4  N   UNL     1      -2.906  12.792  19.408  0.00  0.00    +0.000 N 
ATOM      5  C   UNL     1      -0.927  13.501  20.592  0.00  0.00    +0.000 A 
ATOM      6  C   UNL     1      -1.508  14.670  21.142  0.00  0.00    +0.000 A 
ATOM      7  C   UNL     1      -0.731  15.616  21.817  0.00  0.00    +0.000 A 
ATOM      8  C   UNL     1       0.638  15.419  21.932  0.00  0.00    +0.000 A 
ATOM      9  C   UNL     1       1.205  14.249  21.428  0.00  0.00    +0.000 A 
ATOM     10  C   UNL     1       0.438  13.277  20.795  0.00  0.00    +0.000 A 
ATOM     11  N   UNL     1       1.040  12.159  20.407  0.00  0.00    +0.000 NA
ATOM     12  H   UNL     1      -2.926  13.608  18.806  0.00  0.00    +0.000 HD
ENDROOT
BRANCH   4  13
ATOM     13  C   UNL     1      -3.951  11.807  19.111  0.00  0.00    +0.000 C 
ATOM     14  C   UNL     1      -4.144  11.485  17.618  0.00  0.00    +0.000 C 
ATOM     15  C   UNL     1      -5.326  12.139  16.904  0.00  0.00    +0.000 C 
ATOM     16  C   UNL     1      -6.622  12.144  17.698  0.00  0.00    +0.000 C 
ATOM     17  C   UNL     1      -6.446  12.480  19.150  0.00  0.00    +0.000 A 
ATOM     18  C   UNL     1      -7.573  12.922  19.868  0.00  0.00    +0.000 A 
ATOM     19  C   UNL     1      -7.499  13.176  21.234  0.00  0.00    +0.000 A 
ATOM     20  C   UNL     1      -6.296  12.983  21.905  0.00  0.00    +0.000 A 
ATOM     21  C   UNL     1      -5.175  12.538  21.203  0.00  0.00    +0.000 A 
ATOM     22  C   UNL     1      -5.223  12.283  19.817  0.00  0.00    +0.000 A 
ENDBRANCH   4  13
BRANCH   1  27
ATOM     23  C   UNL     1       2.093   8.516  17.853  0.00  0.00    +0.000 A 
ATOM     24  C   UNL     1       2.263   7.589  18.861  0.00  0.00    +0.000 A 
ATOM     25  N   UNL     1       1.841   7.774  20.132  0.00  0.00    +0.000 NA
ATOM     26  C   UNL     1       1.211   8.951  20.398  0.00  0.00    +0.000 A 
ATOM     27  C   UNL     1       0.973   9.963  19.478  0.00  0.00    +0.000 A 
ATOM     28  C   UNL     1       1.447   9.713  18.169  0.00  0.00    +0.000 A 
ENDBRANCH   1  27
TORSDOF 2
ENDMDL
MODEL 9
REMARK VINA RESULT:      -7.1      4.290      7.944
REMARK  Name = 
REMARK  2 active torsions:
REMARK  status: ('A' for Active; 'I' for Inactive)
REMARK    1  A    between atoms: C_5  and  C_6
REMARK    2  A    between atoms: N_9  and  C_10
REMARK                            x       y       z     vdW  Elec       q    Type
REMARK                         _______ _______ _______ _____ _____    ______ ____
ROOT
ATOM      1  C   UNL     1       4.340   4.979  17.854  0.00  0.00    +0.000 A 
ATOM      2  N   UNL     1       3.478   5.993  18.080  0.00  0.00    +0.000 NA
ATOM      3  C   UNL     1       2.698   5.901  19.172  0.00  0.00    +0.000 A 
ATOM      4  N   UNL     1       1.933   6.994  19.581  0.00  0.00    +0.000 N 
ATOM      5  C   UNL     1       2.688   4.737  19.974  0.00  0.00    +0.000 A 
ATOM      6  C   UNL     1       1.776   4.468  21.025  0.00  0.00    +0.000 A 
ATOM      7  C   UNL     1       1.876   3.303  21.790  0.00  0.00    +0.000 A 
ATOM      8  C   UNL     1       2.900   2.403  21.532  0.00  0.00    +0.000 A 
ATOM      9  C   UNL     1       3.773   2.644  20.473  0.00  0.00    +0.000 A 
ATOM     10  C   UNL     1       3.658   3.777  19.673  0.00  0.00    +0.000 A 
ATOM     11  N   UNL     1       4.483   3.899  18.640  0.00  0.00    +0.000 NA
ATOM     12  H   UNL     1       2.201   7.322  20.502  0.00  0.00    +0.000 HD
ENDROOT
BRANCH   4  13
ATOM     13  C   UNL     1       1.395   8.044  18.709  0.00  0.00    +0.000 C 
ATOM     14  C   UNL     1       2.320   8.479  17.558  0.00  0.00    +0.000 C 
ATOM     15  C   UNL     1       3.093   9.785  17.732  0.00  0.00    +0.000 C 
ATOM     16  C   UNL     1       2.285  10.926  18.328  0.00  0.00    +0.000 C 
ATOM     17  C   UNL     1       1.396  10.514  19.466  0.00  0.00    +0.000 A 
ATOM     18  C   UNL     1       0.942  11.516  20.345  0.00  0.00    +0.000 A 
ATOM     19  C   UNL     1       0.055  11.217  21.375  0.00  0.00    +0.000 A 
ATOM     20  C   UNL     1      -0.398   9.912  21.535  0.00  0.00    +0.000 A 
ATOM     21  C   UNL     1       0.042   8.914  20.664  0.00  0.00    +0.000 A 
ATOM     22  C   UNL     1       0.948   9.190  19.619  0.00  0.00    +0.000 A 
ENDBRANCH   4  13
BRANCH   1  27
ATOM     23  C   UNL     1       5.797   4.386  14.395  0.00  0.00    +0.000 A 
ATOM     24  C   UNL     1       6.919   5.182  14.494  0.00  0.00    +0.000 A 
ATOM     25  N   UNL     1       7.236   5.901  15.594  0.00  0.00    +0.000 NA
ATOM     26  C   UNL     1       6.381   5.807  16.649  0.00  0.00    +0.000 A 
ATOM     27  C   UNL     1       5.224   5.041  16.681  0.00  0.00    +0.000 A 
ATOM     28  C   UNL     1       4.943   4.321  15.497  0.00  0.00    +0.000 A 
ENDBRANCH   1  27
TORSDOF 2
ENDMDL
