MODEL 1
REMARK VINA RESULT:      -7.4      0.000      0.000
REMARK  Name = 
REMARK  11 active torsions:
REMARK  status: ('A' for Active; 'I' for Inactive)
REMARK    1  A    between atoms: C_1  and  N_2
REMARK    2  A    between atoms: C_8  and  O_9
REMARK    3  A    between atoms: O_9  and  C_10
REMARK    4  A    between atoms: C_21  and  O_22
REMARK    5  A    between atoms: O_22  and  C_23
REMARK    6  A    between atoms: C_23  and  C_24
REMARK    7  A    between atoms: C_24  and  O_25
REMARK    8  A    between atoms: C_24  and  C_26
REMARK    9  A    between atoms: C_26  and  O_27
REMARK   10  A    between atoms: C_30  and  C_31
REMARK   11  A    between atoms: C_30  and  C_32
REMARK                            x       y       z     vdW  Elec       q    Type
REMARK                         _______ _______ _______ _____ _____    ______ ____
ROOT
ATOM      1  C   UNL     1      -0.743  13.079  18.342  0.00  0.00    +0.000 C 
ATOM      2  N   UNL     1      -0.649  12.254  19.529  0.00  0.00    +0.000 N 
ATOM      3  C   UNL     1       0.009  11.059  19.707  0.00  0.00    +0.000 A 
ATOM      4  C   UNL     1      -0.139  10.689  21.036  0.00  0.00    +0.000 A 
ATOM      5  C   UNL     1      -0.926  11.695  21.684  0.00  0.00    +0.000 A 
ATOM      6  C   UNL     1      -1.409  11.906  22.994  0.00  0.00    +0.000 A 
ATOM      7  C   UNL     1      -2.204  13.033  23.273  0.00  0.00    +0.000 A 
ATOM      8  C   UNL     1      -2.545  13.939  22.273  0.00  0.00    +0.000 A 
ATOM      9  C   UNL     1      -2.066  13.758  20.977  0.00  0.00    +0.000 A 
ATOM     10  C   UNL     1      -1.257  12.638  20.711  0.00  0.00    +0.000 A 
ATOM     11  C   UNL     1       0.438   9.459  21.566  0.00  0.00    +0.000 C 
ATOM     12  O   UNL     1       0.342   9.124  22.741  0.00  0.00    +0.000 OA
ATOM     13  C   UNL     1       1.161   8.579  20.580  0.00  0.00    +0.000 A 
ATOM     14  C   UNL     1       1.684   7.348  21.018  0.00  0.00    +0.000 A 
ATOM     15  C   UNL     1       2.342   6.479  20.129  0.00  0.00    +0.000 A 
ATOM     16  C   UNL     1       2.495   6.839  18.796  0.00  0.00    +0.000 A 
ATOM     17  C   UNL     1       2.010   8.071  18.368  0.00  0.00    +0.000 A 
ATOM     18  C   UNL     1       1.316   8.951  19.231  0.00  0.00    +0.000 A 
ATOM     19  C   UNL     1       0.746  10.262  18.650  0.00  0.00    +0.000 C 
ATOM     20  C   UNL     1      -0.257   9.847  17.546  0.00  0.00    +0.000 C 
ATOM     21  C   UNL     1       1.948  11.081  18.124  0.00  0.00    +0.000 C 
ENDROOT
BRANCH   8  22
ATOM     22  O   UNL     1      -3.331  15.004  22.649  0.00  0.00    +0.000 OA
BRANCH  22  23
ATOM     23  C   UNL     1      -4.276  14.813  23.732  0.00  0.00    +0.000 C 
ATOM     24  C   UNL     1      -4.950  16.062  24.317  0.00  0.00    +0.000 C 
ATOM     25  O   UNL     1      -6.271  15.525  24.074  0.00  0.00    +0.000 OA
ATOM     26  C   UNL     1      -5.702  14.425  23.326  0.00  0.00    +0.000 C 
ENDBRANCH  22  23
ENDBRANCH   8  22
BRANCH  16  27
ATOM     27  O   UNL     1       3.139   6.115  17.832  0.00  0.00    +0.000 OA
BRANCH  27  28
ATOM     28  C   UNL     1       2.999   4.692  17.931  0.00  0.00    +0.000 C 
BRANCH  28  29
ATOM     29  C   UNL     1       4.380   4.047  17.743  0.00  0.00    +0.000 C 
BRANCH  29  30
ATOM     30  O   UNL     1       4.287   2.619  17.909  0.00  0.00    +0.000 OA
ATOM     31  H   UNL     1       3.766   2.290  17.152  0.00  0.00    +0.000 HD
ENDBRANCH  29  30
BRANCH  29  32
ATOM     32  C   UNL     1       5.434   4.558  18.731  0.00  0.00    +0.000 C 
BRANCH  32  33
ATOM     33  O   UNL     1       6.729   4.127  18.302  0.00  0.00    +0.000 OA
ATOM     34  H   UNL     1       6.715   3.150  18.345  0.00  0.00    +0.000 HD
ENDBRANCH  32  33
ENDBRANCH  29  32
ENDBRANCH  28  29
ENDBRANCH  27  28
ENDBRANCH  16  27
TORSDOF 8
ENDMDL
MODEL 2
REMARK VINA RESULT:      -7.4      1.271      1.637
REMARK  Name = 
REMARK  11 active torsions:
REMARK  status: ('A' for Active; 'I' for Inactive)
REMARK    1  A    between atoms: C_1  and  N_2
REMARK    2  A    between atoms: C_8  and  O_9
REMARK    3  A    between atoms: O_9  and  C_10
REMARK    4  A    between atoms: C_21  and  O_22
REMARK    5  A    between atoms: O_22  and  C_23
REMARK    6  A    between atoms: C_23  and  C_24
REMARK    7  A    between atoms: C_24  and  O_25
REMARK    8  A    between atoms: C_24  and  C_26
REMARK    9  A    between atoms: C_26  and  O_27
REMARK   10  A    between atoms: C_30  and  C_31
REMARK   11  A    between atoms: C_30  and  C_32
REMARK                            x       y       z     vdW  Elec       q    Type
REMARK                         _______ _______ _______ _____ _____    ______ ____
ROOT
ATOM      1  C   UNL     1      -0.845  12.804  18.449  0.00  0.00    +0.000 C 
ATOM      2  N   UNL     1      -0.695  11.905  19.575  0.00  0.00    +0.000 N 
ATOM      3  C   UNL     1       0.051  10.754  19.675  0.00  0.00    +0.000 A 
ATOM      4  C   UNL     1      -0.075  10.279  20.971  0.00  0.00    +0.000 A 
ATOM      5  C   UNL     1      -0.940  11.173  21.681  0.00  0.00    +0.000 A 
ATOM      6  C   UNL     1      -1.445  11.253  22.998  0.00  0.00    +0.000 A 
ATOM      7  C   UNL     1      -2.326  12.293  23.348  0.00  0.00    +0.000 A 
ATOM      8  C   UNL     1      -2.729  13.240  22.411  0.00  0.00    +0.000 A 
ATOM      9  C   UNL     1      -2.230  13.190  21.112  0.00  0.00    +0.000 A 
ATOM     10  C   UNL     1      -1.337  12.156  20.775  0.00  0.00    +0.000 A 
ATOM     11  C   UNL     1       0.590   9.061  21.419  0.00  0.00    +0.000 C 
ATOM     12  O   UNL     1       0.514   8.636  22.566  0.00  0.00    +0.000 OA
ATOM     13  C   UNL     1       1.383   8.312  20.380  0.00  0.00    +0.000 A 
ATOM     14  C   UNL     1       1.997   7.095  20.735  0.00  0.00    +0.000 A 
ATOM     15  C   UNL     1       2.723   6.345  19.793  0.00  0.00    +0.000 A 
ATOM     16  C   UNL     1       2.856   6.810  18.491  0.00  0.00    +0.000 A 
ATOM     17  C   UNL     1       2.281   8.029  18.147  0.00  0.00    +0.000 A 
ATOM     18  C   UNL     1       1.517   8.791  19.063  0.00  0.00    +0.000 A 
ATOM     19  C   UNL     1       0.852  10.093  18.571  0.00  0.00    +0.000 C 
ATOM     20  C   UNL     1      -0.110   9.684  17.429  0.00  0.00    +0.000 C 
ATOM     21  C   UNL     1       1.991  11.037  18.118  0.00  0.00    +0.000 C 
ENDROOT
BRANCH   8  22
ATOM     22  O   UNL     1      -3.595  14.213  22.854  0.00  0.00    +0.000 OA
BRANCH  22  23
ATOM     23  C   UNL     1      -5.018  14.006  22.661  0.00  0.00    +0.000 C 
ATOM     24  C   UNL     1      -5.453  12.807  21.807  0.00  0.00    +0.000 C 
ATOM     25  O   UNL     1      -6.286  12.288  22.870  0.00  0.00    +0.000 OA
ATOM     26  C   UNL     1      -5.753  13.271  23.788  0.00  0.00    +0.000 C 
ENDBRANCH  22  23
ENDBRANCH   8  22
BRANCH  16  27
ATOM     27  O   UNL     1       3.559   6.208  17.485  0.00  0.00    +0.000 OA
BRANCH  27  28
ATOM     28  C   UNL     1       4.981   6.178  17.658  0.00  0.00    +0.000 C 
BRANCH  28  29
ATOM     29  C   UNL     1       5.621   5.620  16.378  0.00  0.00    +0.000 C 
BRANCH  29  30
ATOM     30  O   UNL     1       5.298   6.462  15.255  0.00  0.00    +0.000 OA
ATOM     31  H   UNL     1       5.094   7.343  15.623  0.00  0.00    +0.000 HD
ENDBRANCH  29  30
BRANCH  29  32
ATOM     32  C   UNL     1       5.166   4.199  16.035  0.00  0.00    +0.000 C 
BRANCH  32  33
ATOM     33  O   UNL     1       4.943   3.470  17.245  0.00  0.00    +0.000 OA
ATOM     34  H   UNL     1       5.409   3.966  17.947  0.00  0.00    +0.000 HD
ENDBRANCH  32  33
ENDBRANCH  29  32
ENDBRANCH  28  29
ENDBRANCH  27  28
ENDBRANCH  16  27
TORSDOF 8
ENDMDL
MODEL 3
REMARK VINA RESULT:      -7.4      0.874      1.059
REMARK  Name = 
REMARK  11 active torsions:
REMARK  status: ('A' for Active; 'I' for Inactive)
REMARK    1  A    between atoms: C_1  and  N_2
REMARK    2  A    between atoms: C_8  and  O_9
REMARK    3  A    between atoms: O_9  and  C_10
REMARK    4  A    between atoms: C_21  and  O_22
REMARK    5  A    between atoms: O_22  and  C_23
REMARK    6  A    between atoms: C_23  and  C_24
REMARK    7  A    between atoms: C_24  and  O_25
REMARK    8  A    between atoms: C_24  and  C_26
REMARK    9  A    between atoms: C_26  and  O_27
REMARK   10  A    between atoms: C_30  and  C_31
REMARK   11  A    between atoms: C_30  and  C_32
REMARK                            x       y       z     vdW  Elec       q    Type
REMARK                         _______ _______ _______ _____ _____    ______ ____
ROOT
ATOM      1  C   UNL     1      -0.818  12.875  18.443  0.00  0.00    +0.000 C 
ATOM      2  N   UNL     1      -0.699  11.989  19.583  0.00  0.00    +0.000 N 
ATOM      3  C   UNL     1       0.019  10.823  19.707  0.00  0.00    +0.000 A 
ATOM      4  C   UNL     1      -0.130  10.370  21.010  0.00  0.00    +0.000 A 
ATOM      5  C   UNL     1      -0.980  11.295  21.698  0.00  0.00    +0.000 A 
ATOM      6  C   UNL     1      -1.495  11.405  23.008  0.00  0.00    +0.000 A 
ATOM      7  C   UNL     1      -2.354  12.471  23.334  0.00  0.00    +0.000 A 
ATOM      8  C   UNL     1      -2.727  13.413  22.380  0.00  0.00    +0.000 A 
ATOM      9  C   UNL     1      -2.218  13.332  21.086  0.00  0.00    +0.000 A 
ATOM     10  C   UNL     1      -1.346  12.273  20.773  0.00  0.00    +0.000 A 
ATOM     11  C   UNL     1       0.503   9.144  21.481  0.00  0.00    +0.000 C 
ATOM     12  O   UNL     1       0.407   8.739  22.633  0.00  0.00    +0.000 OA
ATOM     13  C   UNL     1       1.288   8.362  20.461  0.00  0.00    +0.000 A 
ATOM     14  C   UNL     1       1.870   7.136  20.840  0.00  0.00    +0.000 A 
ATOM     15  C   UNL     1       2.588   6.356  19.916  0.00  0.00    +0.000 A 
ATOM     16  C   UNL     1       2.743   6.798  18.608  0.00  0.00    +0.000 A 
ATOM     17  C   UNL     1       2.200   8.025  18.241  0.00  0.00    +0.000 A 
ATOM     18  C   UNL     1       1.446   8.818  19.139  0.00  0.00    +0.000 A 
ATOM     19  C   UNL     1       0.816  10.128  18.621  0.00  0.00    +0.000 C 
ATOM     20  C   UNL     1      -0.146   9.724  17.476  0.00  0.00    +0.000 C 
ATOM     21  C   UNL     1       1.980  11.038  18.165  0.00  0.00    +0.000 C 
ENDROOT
BRANCH   8  22
ATOM     22  O   UNL     1      -3.575  14.412  22.800  0.00  0.00    +0.000 OA
BRANCH  22  23
ATOM     23  C   UNL     1      -5.004  14.191  22.693  0.00  0.00    +0.000 C 
ATOM     24  C   UNL     1      -5.486  13.113  21.711  0.00  0.00    +0.000 C 
ATOM     25  O   UNL     1      -6.218  12.423  22.750  0.00  0.00    +0.000 OA
ATOM     26  C   UNL     1      -5.630  13.281  23.755  0.00  0.00    +0.000 C 
ENDBRANCH  22  23
ENDBRANCH   8  22
BRANCH  16  27
ATOM     27  O   UNL     1       3.441   6.165  17.618  0.00  0.00    +0.000 OA
BRANCH  27  28
ATOM     28  C   UNL     1       3.233   4.751  17.524  0.00  0.00    +0.000 C 
BRANCH  28  29
ATOM     29  C   UNL     1       4.585   4.071  17.261  0.00  0.00    +0.000 C 
BRANCH  29  30
ATOM     30  O   UNL     1       4.661   2.824  17.978  0.00  0.00    +0.000 OA
ATOM     31  H   UNL     1       3.746   2.487  18.038  0.00  0.00    +0.000 HD
ENDBRANCH  29  30
BRANCH  29  32
ATOM     32  C   UNL     1       5.790   4.919  17.683  0.00  0.00    +0.000 C 
BRANCH  32  33
ATOM     33  O   UNL     1       6.668   4.123  18.484  0.00  0.00    +0.000 OA
ATOM     34  H   UNL     1       6.442   3.192  18.287  0.00  0.00    +0.000 HD
ENDBRANCH  32  33
ENDBRANCH  29  32
ENDBRANCH  28  29
ENDBRANCH  27  28
ENDBRANCH  16  27
TORSDOF 8
ENDMDL
MODEL 4
REMARK VINA RESULT:      -7.3      2.855      4.117
REMARK  Name = 
REMARK  11 active torsions:
REMARK  status: ('A' for Active; 'I' for Inactive)
REMARK    1  A    between atoms: C_1  and  N_2
REMARK    2  A    between atoms: C_8  and  O_9
REMARK    3  A    between atoms: O_9  and  C_10
REMARK    4  A    between atoms: C_21  and  O_22
REMARK    5  A    between atoms: O_22  and  C_23
REMARK    6  A    between atoms: C_23  and  C_24
REMARK    7  A    between atoms: C_24  and  O_25
REMARK    8  A    between atoms: C_24  and  C_26
REMARK    9  A    between atoms: C_26  and  O_27
REMARK   10  A    between atoms: C_30  and  C_31
REMARK   11  A    between atoms: C_30  and  C_32
REMARK                            x       y       z     vdW  Elec       q    Type
REMARK                         _______ _______ _______ _____ _____    ______ ____
ROOT
ATOM      1  C   UNL     1      -0.773  11.315  22.642  0.00  0.00    +0.000 C 
ATOM      2  N   UNL     1      -0.141  11.305  21.338  0.00  0.00    +0.000 N 
ATOM      3  C   UNL     1       0.491  10.272  20.687  0.00  0.00    +0.000 A 
ATOM      4  C   UNL     1       0.877  10.733  19.437  0.00  0.00    +0.000 A 
ATOM      5  C   UNL     1       0.470  12.103  19.332  0.00  0.00    +0.000 A 
ATOM      6  C   UNL     1       0.556  13.105  18.342  0.00  0.00    +0.000 A 
ATOM      7  C   UNL     1       0.055  14.393  18.606  0.00  0.00    +0.000 A 
ATOM      8  C   UNL     1      -0.510  14.708  19.839  0.00  0.00    +0.000 A 
ATOM      9  C   UNL     1      -0.619  13.729  20.824  0.00  0.00    +0.000 A 
ATOM     10  C   UNL     1      -0.130  12.439  20.545  0.00  0.00    +0.000 A 
ATOM     11  C   UNL     1       1.583   9.886  18.482  0.00  0.00    +0.000 C 
ATOM     12  O   UNL     1       1.910  10.263  17.364  0.00  0.00    +0.000 OA
ATOM     13  C   UNL     1       1.921   8.493  18.946  0.00  0.00    +0.000 A 
ATOM     14  C   UNL     1       2.657   7.649  18.093  0.00  0.00    +0.000 A 
ATOM     15  C   UNL     1       3.022   6.351  18.492  0.00  0.00    +0.000 A 
ATOM     16  C   UNL     1       2.642   5.878  19.743  0.00  0.00    +0.000 A 
ATOM     17  C   UNL     1       1.884   6.697  20.573  0.00  0.00    +0.000 A 
ATOM     18  C   UNL     1       1.529   8.019  20.212  0.00  0.00    +0.000 A 
ATOM     19  C   UNL     1       0.753   8.882  21.229  0.00  0.00    +0.000 C 
ATOM     20  C   UNL     1       1.657   8.994  22.482  0.00  0.00    +0.000 C 
ATOM     21  C   UNL     1      -0.592   8.164  21.494  0.00  0.00    +0.000 C 
ENDROOT
BRANCH   8  22
ATOM     22  O   UNL     1      -0.965  15.997  19.996  0.00  0.00    +0.000 OA
BRANCH  22  23
ATOM     23  C   UNL     1       0.012  17.058  20.144  0.00  0.00    +0.000 C 
ATOM     24  C   UNL     1      -0.299  18.174  21.152  0.00  0.00    +0.000 C 
ATOM     25  O   UNL     1       0.947  17.955  21.855  0.00  0.00    +0.000 OA
ATOM     26  C   UNL     1       1.195  16.763  21.073  0.00  0.00    +0.000 C 
ENDBRANCH  22  23
ENDBRANCH   8  22
BRANCH  16  27
ATOM     27  O   UNL     1       2.894   4.633  20.247  0.00  0.00    +0.000 OA
BRANCH  27  28
ATOM     28  C   UNL     1       3.355   3.664  19.297  0.00  0.00    +0.000 C 
BRANCH  28  29
ATOM     29  C   UNL     1       2.482   2.406  19.414  0.00  0.00    +0.000 C 
BRANCH  29  30
ATOM     30  O   UNL     1       2.933   1.401  18.486  0.00  0.00    +0.000 OA
ATOM     31  H   UNL     1       3.333   1.882  17.736  0.00  0.00    +0.000 HD
ENDBRANCH  29  30
BRANCH  29  32
ATOM     32  C   UNL     1       0.998   2.661  19.130  0.00  0.00    +0.000 C 
BRANCH  32  33
ATOM     33  O   UNL     1       0.372   3.164  20.314  0.00  0.00    +0.000 OA
ATOM     34  H   UNL     1      -0.587   3.187  20.121  0.00  0.00    +0.000 HD
ENDBRANCH  32  33
ENDBRANCH  29  32
ENDBRANCH  28  29
ENDBRANCH  27  28
ENDBRANCH  16  27
TORSDOF 8
ENDMDL
MODEL 5
REMARK VINA RESULT:      -7.3      0.863      1.020
REMARK  Name = 
REMARK  11 active torsions:
REMARK  status: ('A' for Active; 'I' for Inactive)
REMARK    1  A    between atoms: C_1  and  N_2
REMARK    2  A    between atoms: C_8  and  O_9
REMARK    3  A    between atoms: O_9  and  C_10
REMARK    4  A    between atoms: C_21  and  O_22
REMARK    5  A    between atoms: O_22  and  C_23
REMARK    6  A    between atoms: C_23  and  C_24
REMARK    7  A    between atoms: C_24  and  O_25
REMARK    8  A    between atoms: C_24  and  C_26
REMARK    9  A    between atoms: C_26  and  O_27
REMARK   10  A    between atoms: C_30  and  C_31
REMARK   11  A    between atoms: C_30  and  C_32
REMARK                            x       y       z     vdW  Elec       q    Type
REMARK                         _______ _______ _______ _____ _____    ______ ____
ROOT
ATOM      1  C   UNL     1      -0.609  12.929  18.403  0.00  0.00    +0.000 C 
ATOM      2  N   UNL     1      -0.534  12.043  19.547  0.00  0.00    +0.000 N 
ATOM      3  C   UNL     1       0.136  10.850  19.680  0.00  0.00    +0.000 A 
ATOM      4  C   UNL     1      -0.042  10.406  20.982  0.00  0.00    +0.000 A 
ATOM      5  C   UNL     1      -0.862  11.365  21.660  0.00  0.00    +0.000 A 
ATOM      6  C   UNL     1      -1.384  11.499  22.965  0.00  0.00    +0.000 A 
ATOM      7  C   UNL     1      -2.204  12.598  23.281  0.00  0.00    +0.000 A 
ATOM      8  C   UNL     1      -2.531  13.552  22.322  0.00  0.00    +0.000 A 
ATOM      9  C   UNL     1      -2.013  13.448  21.033  0.00  0.00    +0.000 A 
ATOM     10  C   UNL     1      -1.181  12.354  20.730  0.00  0.00    +0.000 A 
ATOM     11  C   UNL     1       0.538   9.158  21.462  0.00  0.00    +0.000 C 
ATOM     12  O   UNL     1       0.416   8.759  22.614  0.00  0.00    +0.000 OA
ATOM     13  C   UNL     1       1.301   8.342  20.451  0.00  0.00    +0.000 A 
ATOM     14  C   UNL     1       1.832   7.096  20.837  0.00  0.00    +0.000 A 
ATOM     15  C   UNL     1       2.527   6.286  19.922  0.00  0.00    +0.000 A 
ATOM     16  C   UNL     1       2.710   6.719  18.615  0.00  0.00    +0.000 A 
ATOM     17  C   UNL     1       2.219   7.965  18.239  0.00  0.00    +0.000 A 
ATOM     18  C   UNL     1       1.488   8.789  19.129  0.00  0.00    +0.000 A 
ATOM     19  C   UNL     1       0.915  10.121  18.603  0.00  0.00    +0.000 C 
ATOM     20  C   UNL     1      -0.052   9.752  17.450  0.00  0.00    +0.000 C 
ATOM     21  C   UNL     1       2.118  10.984  18.155  0.00  0.00    +0.000 C 
ENDROOT
BRANCH   8  22
ATOM     22  O   UNL     1      -3.343  14.584  22.732  0.00  0.00    +0.000 OA
BRANCH  22  23
ATOM     23  C   UNL     1      -4.527  14.262  23.505  0.00  0.00    +0.000 C 
ATOM     24  C   UNL     1      -5.501  15.406  23.823  0.00  0.00    +0.000 C 
ATOM     25  O   UNL     1      -6.612  14.692  23.232  0.00  0.00    +0.000 OA
ATOM     26  C   UNL     1      -5.709  13.683  22.721  0.00  0.00    +0.000 C 
ENDBRANCH  22  23
ENDBRANCH   8  22
BRANCH  16  27
ATOM     27  O   UNL     1       3.392   6.057  17.632  0.00  0.00    +0.000 OA
BRANCH  27  28
ATOM     28  C   UNL     1       4.047   4.849  18.042  0.00  0.00    +0.000 C 
BRANCH  28  29
ATOM     29  C   UNL     1       5.480   4.854  17.487  0.00  0.00    +0.000 C 
BRANCH  29  30
ATOM     30  O   UNL     1       6.324   4.007  18.289  0.00  0.00    +0.000 OA
ATOM     31  H   UNL     1       6.531   3.227  17.738  0.00  0.00    +0.000 HD
ENDBRANCH  29  30
BRANCH  29  32
ATOM     32  C   UNL     1       6.120   6.246  17.456  0.00  0.00    +0.000 C 
BRANCH  32  33
ATOM     33  O   UNL     1       5.767   6.900  16.234  0.00  0.00    +0.000 OA
ATOM     34  H   UNL     1       6.432   6.617  15.576  0.00  0.00    +0.000 HD
ENDBRANCH  32  33
ENDBRANCH  29  32
ENDBRANCH  28  29
ENDBRANCH  27  28
ENDBRANCH  16  27
TORSDOF 8
ENDMDL
MODEL 6
REMARK VINA RESULT:      -7.3      2.319      3.551
REMARK  Name = 
REMARK  11 active torsions:
REMARK  status: ('A' for Active; 'I' for Inactive)
REMARK    1  A    between atoms: C_1  and  N_2
REMARK    2  A    between atoms: C_8  and  O_9
REMARK    3  A    between atoms: O_9  and  C_10
REMARK    4  A    between atoms: C_21  and  O_22
REMARK    5  A    between atoms: O_22  and  C_23
REMARK    6  A    between atoms: C_23  and  C_24
REMARK    7  A    between atoms: C_24  and  O_25
REMARK    8  A    between atoms: C_24  and  C_26
REMARK    9  A    between atoms: C_26  and  O_27
REMARK   10  A    between atoms: C_30  and  C_31
REMARK   11  A    between atoms: C_30  and  C_32
REMARK                            x       y       z     vdW  Elec       q    Type
REMARK                         _______ _______ _______ _____ _____    ______ ____
ROOT
ATOM      1  C   UNL     1      -0.808  11.290  22.708  0.00  0.00    +0.000 C 
ATOM      2  N   UNL     1      -0.188  11.315  21.399  0.00  0.00    +0.000 N 
ATOM      3  C   UNL     1       0.458  10.307  20.724  0.00  0.00    +0.000 A 
ATOM      4  C   UNL     1       0.824  10.797  19.479  0.00  0.00    +0.000 A 
ATOM      5  C   UNL     1       0.390  12.160  19.402  0.00  0.00    +0.000 A 
ATOM      6  C   UNL     1       0.447  13.181  18.429  0.00  0.00    +0.000 A 
ATOM      7  C   UNL     1      -0.076  14.455  18.720  0.00  0.00    +0.000 A 
ATOM      8  C   UNL     1      -0.635  14.736  19.963  0.00  0.00    +0.000 A 
ATOM      9  C   UNL     1      -0.716  13.739  20.932  0.00  0.00    +0.000 A 
ATOM     10  C   UNL     1      -0.205  12.464  20.626  0.00  0.00    +0.000 A 
ATOM     11  C   UNL     1       1.537   9.981  18.503  0.00  0.00    +0.000 C 
ATOM     12  O   UNL     1       1.847  10.384  17.388  0.00  0.00    +0.000 OA
ATOM     13  C   UNL     1       1.905   8.587  18.939  0.00  0.00    +0.000 A 
ATOM     14  C   UNL     1       2.650   7.771  18.065  0.00  0.00    +0.000 A 
ATOM     15  C   UNL     1       3.043   6.474  18.437  0.00  0.00    +0.000 A 
ATOM     16  C   UNL     1       2.684   5.972  19.682  0.00  0.00    +0.000 A 
ATOM     17  C   UNL     1       1.918   6.762  20.534  0.00  0.00    +0.000 A 
ATOM     18  C   UNL     1       1.535   8.083  20.200  0.00  0.00    +0.000 A 
ATOM     19  C   UNL     1       0.751   8.912  21.239  0.00  0.00    +0.000 C 
ATOM     20  C   UNL     1       1.664   9.020  22.485  0.00  0.00    +0.000 C 
ATOM     21  C   UNL     1      -0.577   8.164  21.502  0.00  0.00    +0.000 C 
ENDROOT
BRANCH   8  22
ATOM     22  O   UNL     1      -1.113  16.013  20.148  0.00  0.00    +0.000 OA
BRANCH  22  23
ATOM     23  C   UNL     1      -2.076  16.241  21.207  0.00  0.00    +0.000 C 
ATOM     24  C   UNL     1      -2.332  17.693  21.636  0.00  0.00    +0.000 C 
ATOM     25  O   UNL     1      -3.754  17.566  21.398  0.00  0.00    +0.000 OA
ATOM     26  C   UNL     1      -3.550  16.270  20.787  0.00  0.00    +0.000 C 
ENDBRANCH  22  23
ENDBRANCH   8  22
BRANCH  16  27
ATOM     27  O   UNL     1       2.964   4.723  20.162  0.00  0.00    +0.000 OA
BRANCH  27  28
ATOM     28  C   UNL     1       3.338   3.753  19.176  0.00  0.00    +0.000 C 
BRANCH  28  29
ATOM     29  C   UNL     1       2.446   2.513  19.342  0.00  0.00    +0.000 C 
BRANCH  29  30
ATOM     30  O   UNL     1       2.645   1.609  18.239  0.00  0.00    +0.000 OA
ATOM     31  H   UNL     1       1.754   1.322  17.958  0.00  0.00    +0.000 HD
ENDBRANCH  29  30
BRANCH  29  32
ATOM     32  C   UNL     1       0.951   2.839  19.408  0.00  0.00    +0.000 C 
BRANCH  32  33
ATOM     33  O   UNL     1       0.575   3.049  20.772  0.00  0.00    +0.000 OA
ATOM     34  H   UNL     1      -0.323   3.437  20.746  0.00  0.00    +0.000 HD
ENDBRANCH  32  33
ENDBRANCH  29  32
ENDBRANCH  28  29
ENDBRANCH  27  28
ENDBRANCH  16  27
TORSDOF 8
ENDMDL
MODEL 7
REMARK VINA RESULT:      -7.2      2.683      4.020
REMARK  Name = 
REMARK  11 active torsions:
REMARK  status: ('A' for Active; 'I' for Inactive)
REMARK    1  A    between atoms: C_1  and  N_2
REMARK    2  A    between atoms: C_8  and  O_9
REMARK    3  A    between atoms: O_9  and  C_10
REMARK    4  A    between atoms: C_21  and  O_22
REMARK    5  A    between atoms: O_22  and  C_23
REMARK    6  A    between atoms: C_23  and  C_24
REMARK    7  A    between atoms: C_24  and  O_25
REMARK    8  A    between atoms: C_24  and  C_26
REMARK    9  A    between atoms: C_26  and  O_27
REMARK   10  A    between atoms: C_30  and  C_31
REMARK   11  A    between atoms: C_30  and  C_32
REMARK                            x       y       z     vdW  Elec       q    Type
REMARK                         _______ _______ _______ _____ _____    ______ ____
ROOT
ATOM      1  C   UNL     1      -0.855  11.207  22.681  0.00  0.00    +0.000 C 
ATOM      2  N   UNL     1      -0.230  11.275  21.376  0.00  0.00    +0.000 N 
ATOM      3  C   UNL     1       0.446  10.297  20.684  0.00  0.00    +0.000 A 
ATOM      4  C   UNL     1       0.804  10.821  19.451  0.00  0.00    +0.000 A 
ATOM      5  C   UNL     1       0.334  12.174  19.400  0.00  0.00    +0.000 A 
ATOM      6  C   UNL     1       0.369  13.216  18.448  0.00  0.00    +0.000 A 
ATOM      7  C   UNL     1      -0.189  14.469  18.761  0.00  0.00    +0.000 A 
ATOM      8  C   UNL     1      -0.761  14.711  20.007  0.00  0.00    +0.000 A 
ATOM      9  C   UNL     1      -0.820  13.692  20.955  0.00  0.00    +0.000 A 
ATOM     10  C   UNL     1      -0.274  12.437  20.626  0.00  0.00    +0.000 A 
ATOM     11  C   UNL     1       1.543  10.044  18.463  0.00  0.00    +0.000 C 
ATOM     12  O   UNL     1       1.847  10.477  17.358  0.00  0.00    +0.000 OA
ATOM     13  C   UNL     1       1.946   8.652  18.873  0.00  0.00    +0.000 A 
ATOM     14  C   UNL     1       2.716   7.874  17.987  0.00  0.00    +0.000 A 
ATOM     15  C   UNL     1       3.142   6.580  18.335  0.00  0.00    +0.000 A 
ATOM     16  C   UNL     1       2.790   6.045  19.568  0.00  0.00    +0.000 A 
ATOM     17  C   UNL     1       2.000   6.796  20.432  0.00  0.00    +0.000 A 
ATOM     18  C   UNL     1       1.583   8.113  20.122  0.00  0.00    +0.000 A 
ATOM     19  C   UNL     1       0.773   8.900  21.173  0.00  0.00    +0.000 C 
ATOM     20  C   UNL     1       1.677   9.007  22.426  0.00  0.00    +0.000 C 
ATOM     21  C   UNL     1      -0.536   8.113  21.415  0.00  0.00    +0.000 C 
ENDROOT
BRANCH   8  22
ATOM     22  O   UNL     1      -1.273  15.971  20.214  0.00  0.00    +0.000 OA
BRANCH  22  23
ATOM     23  C   UNL     1      -0.458  16.937  20.923  0.00  0.00    +0.000 C 
ATOM     24  C   UNL     1       1.051  16.669  21.008  0.00  0.00    +0.000 C 
ATOM     25  O   UNL     1       1.364  17.957  20.427  0.00  0.00    +0.000 OA
ATOM     26  C   UNL     1      -0.035  18.178  20.128  0.00  0.00    +0.000 C 
ENDBRANCH  22  23
ENDBRANCH   8  22
BRANCH  16  27
ATOM     27  O   UNL     1       3.101   4.794  20.024  0.00  0.00    +0.000 OA
BRANCH  27  28
ATOM     28  C   UNL     1       3.939   4.013  19.163  0.00  0.00    +0.000 C 
BRANCH  28  29
ATOM     29  C   UNL     1       3.832   2.538  19.577  0.00  0.00    +0.000 C 
BRANCH  29  30
ATOM     30  O   UNL     1       5.087   2.081  20.114  0.00  0.00    +0.000 OA
ATOM     31  H   UNL     1       5.505   1.544  19.414  0.00  0.00    +0.000 HD
ENDBRANCH  29  30
BRANCH  29  32
ATOM     32  C   UNL     1       3.457   1.603  18.423  0.00  0.00    +0.000 C 
BRANCH  32  33
ATOM     33  O   UNL     1       2.043   1.652  18.217  0.00  0.00    +0.000 OA
ATOM     34  H   UNL     1       1.889   1.292  17.320  0.00  0.00    +0.000 HD
ENDBRANCH  32  33
ENDBRANCH  29  32
ENDBRANCH  28  29
ENDBRANCH  27  28
ENDBRANCH  16  27
TORSDOF 8
ENDMDL
MODEL 8
REMARK VINA RESULT:      -7.2      0.981      1.292
REMARK  Name = 
REMARK  11 active torsions:
REMARK  status: ('A' for Active; 'I' for Inactive)
REMARK    1  A    between atoms: C_1  and  N_2
REMARK    2  A    between atoms: C_8  and  O_9
REMARK    3  A    between atoms: O_9  and  C_10
REMARK    4  A    between atoms: C_21  and  O_22
REMARK    5  A    between atoms: O_22  and  C_23
REMARK    6  A    between atoms: C_23  and  C_24
REMARK    7  A    between atoms: C_24  and  O_25
REMARK    8  A    between atoms: C_24  and  C_26
REMARK    9  A    between atoms: C_26  and  O_27
REMARK   10  A    between atoms: C_30  and  C_31
REMARK   11  A    between atoms: C_30  and  C_32
REMARK                            x       y       z     vdW  Elec       q    Type
REMARK                         _______ _______ _______ _____ _____    ______ ____
ROOT
ATOM      1  C   UNL     1      -0.771  12.859  18.453  0.00  0.00    +0.000 C 
ATOM      2  N   UNL     1      -0.627  11.963  19.582  0.00  0.00    +0.000 N 
ATOM      3  C   UNL     1       0.091  10.794  19.678  0.00  0.00    +0.000 A 
ATOM      4  C   UNL     1      -0.028  10.329  20.979  0.00  0.00    +0.000 A 
ATOM      5  C   UNL     1      -0.860  11.249  21.696  0.00  0.00    +0.000 A 
ATOM      6  C   UNL     1      -1.344  11.348  23.019  0.00  0.00    +0.000 A 
ATOM      7  C   UNL     1      -2.193  12.412  23.375  0.00  0.00    +0.000 A 
ATOM      8  C   UNL     1      -2.586  13.364  22.439  0.00  0.00    +0.000 A 
ATOM      9  C   UNL     1      -2.108  13.294  21.132  0.00  0.00    +0.000 A 
ATOM     10  C   UNL     1      -1.246  12.236  20.789  0.00  0.00    +0.000 A 
ATOM     11  C   UNL     1       0.613   9.098  21.424  0.00  0.00    +0.000 C 
ATOM     12  O   UNL     1       0.543   8.682  22.575  0.00  0.00    +0.000 OA
ATOM     13  C   UNL     1       1.373   8.323  20.379  0.00  0.00    +0.000 A 
ATOM     14  C   UNL     1       1.961   7.093  20.732  0.00  0.00    +0.000 A 
ATOM     15  C   UNL     1       2.655   6.320  19.785  0.00  0.00    +0.000 A 
ATOM     16  C   UNL     1       2.780   6.775  18.478  0.00  0.00    +0.000 A 
ATOM     17  C   UNL     1       2.231   8.006  18.135  0.00  0.00    +0.000 A 
ATOM     18  C   UNL     1       1.500   8.791  19.058  0.00  0.00    +0.000 A 
ATOM     19  C   UNL     1       0.860  10.107  18.567  0.00  0.00    +0.000 C 
ATOM     20  C   UNL     1      -0.129   9.716  17.441  0.00  0.00    +0.000 C 
ATOM     21  C   UNL     1       2.015  11.019  18.092  0.00  0.00    +0.000 C 
ENDROOT
BRANCH   8  22
ATOM     22  O   UNL     1      -3.422  14.360  22.888  0.00  0.00    +0.000 OA
BRANCH  22  23
ATOM     23  C   UNL     1      -4.839  14.251  22.600  0.00  0.00    +0.000 C 
ATOM     24  C   UNL     1      -5.707  13.463  23.591  0.00  0.00    +0.000 C 
ATOM     25  O   UNL     1      -6.600  14.586  23.781  0.00  0.00    +0.000 OA
ATOM     26  C   UNL     1      -5.709  15.440  23.026  0.00  0.00    +0.000 C 
ENDBRANCH  22  23
ENDBRANCH   8  22
BRANCH  16  27
ATOM     27  O   UNL     1       3.454   6.150  17.465  0.00  0.00    +0.000 OA
BRANCH  27  28
ATOM     28  C   UNL     1       4.623   5.421  17.860  0.00  0.00    +0.000 C 
BRANCH  28  29
ATOM     29  C   UNL     1       5.854   6.313  17.646  0.00  0.00    +0.000 C 
BRANCH  29  30
ATOM     30  O   UNL     1       5.977   6.663  16.254  0.00  0.00    +0.000 OA
ATOM     31  H   UNL     1       5.582   7.552  16.160  0.00  0.00    +0.000 HD
ENDBRANCH  29  30
BRANCH  29  32
ATOM     32  C   UNL     1       7.170   5.654  18.072  0.00  0.00    +0.000 C 
BRANCH  32  33
ATOM     33  O   UNL     1       6.968   4.245  18.210  0.00  0.00    +0.000 OA
ATOM     34  H   UNL     1       6.080   4.138  18.607  0.00  0.00    +0.000 HD
ENDBRANCH  32  33
ENDBRANCH  29  32
ENDBRANCH  28  29
ENDBRANCH  27  28
ENDBRANCH  16  27
TORSDOF 8
ENDMDL
MODEL 9
REMARK VINA RESULT:      -7.2      1.141      1.466
REMARK  Name = 
REMARK  11 active torsions:
REMARK  status: ('A' for Active; 'I' for Inactive)
REMARK    1  A    between atoms: C_1  and  N_2
REMARK    2  A    between atoms: C_8  and  O_9
REMARK    3  A    between atoms: O_9  and  C_10
REMARK    4  A    between atoms: C_21  and  O_22
REMARK    5  A    between atoms: O_22  and  C_23
REMARK    6  A    between atoms: C_23  and  C_24
REMARK    7  A    between atoms: C_24  and  O_25
REMARK    8  A    between atoms: C_24  and  C_26
REMARK    9  A    between atoms: C_26  and  O_27
REMARK   10  A    between atoms: C_30  and  C_31
REMARK   11  A    between atoms: C_30  and  C_32
REMARK                            x       y       z     vdW  Elec       q    Type
REMARK                         _______ _______ _______ _____ _____    ______ ____
ROOT
ATOM      1  C   UNL     1      -0.768  12.907  18.485  0.00  0.00    +0.000 C 
ATOM      2  N   UNL     1      -0.664  12.006  19.614  0.00  0.00    +0.000 N 
ATOM      3  C   UNL     1       0.044  10.832  19.727  0.00  0.00    +0.000 A 
ATOM      4  C   UNL     1      -0.117  10.363  21.022  0.00  0.00    +0.000 A 
ATOM      5  C   UNL     1      -0.964  11.286  21.718  0.00  0.00    +0.000 A 
ATOM      6  C   UNL     1      -1.486  11.383  23.026  0.00  0.00    +0.000 A 
ATOM      7  C   UNL     1      -2.339  12.452  23.361  0.00  0.00    +0.000 A 
ATOM      8  C   UNL     1      -2.697  13.410  22.417  0.00  0.00    +0.000 A 
ATOM      9  C   UNL     1      -2.181  13.342  21.126  0.00  0.00    +0.000 A 
ATOM     10  C   UNL     1      -1.316  12.279  20.804  0.00  0.00    +0.000 A 
ATOM     11  C   UNL     1       0.502   9.126  21.482  0.00  0.00    +0.000 C 
ATOM     12  O   UNL     1       0.396   8.706  22.628  0.00  0.00    +0.000 OA
ATOM     13  C   UNL     1       1.287   8.350  20.456  0.00  0.00    +0.000 A 
ATOM     14  C   UNL     1       1.857   7.115  20.821  0.00  0.00    +0.000 A 
ATOM     15  C   UNL     1       2.573   6.341  19.893  0.00  0.00    +0.000 A 
ATOM     16  C   UNL     1       2.740   6.799  18.591  0.00  0.00    +0.000 A 
ATOM     17  C   UNL     1       2.209   8.035  18.237  0.00  0.00    +0.000 A 
ATOM     18  C   UNL     1       1.457   8.822  19.141  0.00  0.00    +0.000 A 
ATOM     19  C   UNL     1       0.841  10.144  18.637  0.00  0.00    +0.000 C 
ATOM     20  C   UNL     1      -0.117   9.764  17.481  0.00  0.00    +0.000 C 
ATOM     21  C   UNL     1       2.015  11.050  18.200  0.00  0.00    +0.000 C 
ENDROOT
BRANCH   8  22
ATOM     22  O   UNL     1      -3.540  14.410  22.846  0.00  0.00    +0.000 OA
BRANCH  22  23
ATOM     23  C   UNL     1      -3.432  14.859  24.220  0.00  0.00    +0.000 C 
ATOM     24  C   UNL     1      -2.272  15.801  24.571  0.00  0.00    +0.000 C 
ATOM     25  O   UNL     1      -3.176  16.795  25.109  0.00  0.00    +0.000 OA
ATOM     26  C   UNL     1      -4.313  16.050  24.613  0.00  0.00    +0.000 C 
ENDBRANCH  22  23
ENDBRANCH   8  22
BRANCH  16  27
ATOM     27  O   UNL     1       3.439   6.173  17.597  0.00  0.00    +0.000 OA
BRANCH  27  28
ATOM     28  C   UNL     1       4.576   6.889  17.098  0.00  0.00    +0.000 C 
BRANCH  28  29
ATOM     29  C   UNL     1       5.841   6.066  17.386  0.00  0.00    +0.000 C 
BRANCH  29  30
ATOM     30  O   UNL     1       6.829   6.302  16.365  0.00  0.00    +0.000 OA
ATOM     31  H   UNL     1       6.920   5.462  15.874  0.00  0.00    +0.000 HD
ENDBRANCH  29  30
BRANCH  29  32
ATOM     32  C   UNL     1       5.589   4.556  17.443  0.00  0.00    +0.000 C 
BRANCH  32  33
ATOM     33  O   UNL     1       6.276   4.006  18.571  0.00  0.00    +0.000 OA
ATOM     34  H   UNL     1       6.498   4.765  19.147  0.00  0.00    +0.000 HD
ENDBRANCH  32  33
ENDBRANCH  29  32
ENDBRANCH  28  29
ENDBRANCH  27  28
ENDBRANCH  16  27
TORSDOF 8
ENDMDL
