MODEL 1
REMARK VINA RESULT:      -8.2      0.000      0.000
REMARK  Name = 
REMARK  6 active torsions:
REMARK  status: ('A' for Active; 'I' for Inactive)
REMARK    1  A    between atoms: C_1  and  O_2
REMARK    2  A    between atoms: O_2  and  C_3
REMARK    3  A    between atoms: C_7  and  N_8
REMARK    4  A    between atoms: N_8  and  C_9
REMARK    5  A    between atoms: N_18  and  C_19
REMARK    6  A    between atoms: C_19  and  C_20
REMARK                            x       y       z     vdW  Elec       q    Type
REMARK                         _______ _______ _______ _____ _____    ______ ____
ROOT
ATOM      1  C   UNL     1       3.105   5.791  19.241  0.00  0.00    +0.000 C 
ATOM      2  C   UNL     1       2.381   4.632  19.855  0.00  0.00    +0.000 A 
ATOM      3  C   UNL     1       1.066   4.518  20.273  0.00  0.00    +0.000 A 
ATOM      4  C   UNL     1       0.652   3.299  20.820  0.00  0.00    +0.000 A 
ATOM      5  C   UNL     1       1.541   2.213  20.916  0.00  0.00    +0.000 A 
ATOM      6  C   UNL     1       2.864   2.331  20.484  0.00  0.00    +0.000 A 
ATOM      7  C   UNL     1       3.250   3.556  19.971  0.00  0.00    +0.000 A 
ATOM      8  C   UNL     1       4.572   4.000  19.520  0.00  0.00    +0.000 C 
ATOM      9  O   UNL     1       5.527   3.265  19.367  0.00  0.00    +0.000 OA
ATOM     10  N   UNL     1       4.492   5.377  19.313  0.00  0.00    +0.000 N 
ENDROOT
BRANCH   1  11
ATOM     11  N   UNL     1       2.886   6.973  20.036  0.00  0.00    +0.000 N 
ATOM     12  H   UNL     1       3.770   7.320  20.395  0.00  0.00    +0.000 HD
BRANCH  11  17
ATOM     13  C   UNL     1       0.328   9.695  19.905  0.00  0.00    +0.000 A 
ATOM     14  C   UNL     1       0.373   9.992  18.544  0.00  0.00    +0.000 A 
ATOM     15  C   UNL     1       1.293   9.358  17.717  0.00  0.00    +0.000 A 
ATOM     16  C   UNL     1       2.132   8.373  18.238  0.00  0.00    +0.000 A 
ATOM     17  C   UNL     1       2.053   7.998  19.586  0.00  0.00    +0.000 A 
ATOM     18  C   UNL     1       1.210   8.745  20.425  0.00  0.00    +0.000 A 
BRANCH  13  20
ATOM     19  C   UNL     1      -0.251  10.934  21.864  0.00  0.00    +0.000 C 
ATOM     20  O   UNL     1      -0.623  10.383  20.607  0.00  0.00    +0.000 OA
ENDBRANCH  13  20
ENDBRANCH  11  17
ENDBRANCH   1  11
BRANCH  10  21
ATOM     21  C   UNL     1       5.545   6.101  18.611  0.00  0.00    +0.000 C 
BRANCH  21  22
ATOM     22  C   UNL     1       5.824   5.650  17.186  0.00  0.00    +0.000 A 
ATOM     23  C   UNL     1       4.985   6.018  16.119  0.00  0.00    +0.000 A 
ATOM     24  C   UNL     1       5.287   5.676  14.796  0.00  0.00    +0.000 A 
ATOM     25  C   UNL     1       6.442   4.959  14.505  0.00  0.00    +0.000 A 
ATOM     26  C   UNL     1       7.301   4.597  15.540  0.00  0.00    +0.000 A 
ATOM     27  C   UNL     1       7.002   4.945  16.865  0.00  0.00    +0.000 A 
ATOM     28 CL   UNL     1       8.166   4.502  18.066  0.00  0.00    +0.000 Cl
ENDBRANCH  21  22
ENDBRANCH  10  21
TORSDOF 5
ENDMDL
MODEL 2
REMARK VINA RESULT:      -7.9      2.024      5.693
REMARK  Name = 
REMARK  6 active torsions:
REMARK  status: ('A' for Active; 'I' for Inactive)
REMARK    1  A    between atoms: C_1  and  O_2
REMARK    2  A    between atoms: O_2  and  C_3
REMARK    3  A    between atoms: C_7  and  N_8
REMARK    4  A    between atoms: N_8  and  C_9
REMARK    5  A    between atoms: N_18  and  C_19
REMARK    6  A    between atoms: C_19  and  C_20
REMARK                            x       y       z     vdW  Elec       q    Type
REMARK                         _______ _______ _______ _____ _____    ______ ____
ROOT
ATOM      1  C   UNL     1       2.383   6.667  20.075  0.00  0.00    +0.000 C 
ATOM      2  C   UNL     1       1.677   7.945  20.410  0.00  0.00    +0.000 A 
ATOM      3  C   UNL     1       1.101   8.365  21.597  0.00  0.00    +0.000 A 
ATOM      4  C   UNL     1       0.499   9.627  21.627  0.00  0.00    +0.000 A 
ATOM      5  C   UNL     1       0.504  10.455  20.490  0.00  0.00    +0.000 A 
ATOM      6  C   UNL     1       1.094  10.030  19.297  0.00  0.00    +0.000 A 
ATOM      7  C   UNL     1       1.659   8.767  19.292  0.00  0.00    +0.000 A 
ATOM      8  C   UNL     1       2.271   8.027  18.184  0.00  0.00    +0.000 C 
ATOM      9  O   UNL     1       2.532   8.508  17.101  0.00  0.00    +0.000 OA
ATOM     10  N   UNL     1       2.477   6.722  18.629  0.00  0.00    +0.000 N 
ENDROOT
BRANCH   1  11
ATOM     11  N   UNL     1       1.575   5.547  20.489  0.00  0.00    +0.000 N 
ATOM     12  H   UNL     1       0.593   5.802  20.474  0.00  0.00    +0.000 HD
BRANCH  11  17
ATOM     13  C   UNL     1       3.188   2.296  19.594  0.00  0.00    +0.000 A 
ATOM     14  C   UNL     1       2.168   1.731  18.832  0.00  0.00    +0.000 A 
ATOM     15  C   UNL     1       0.949   2.385  18.696  0.00  0.00    +0.000 A 
ATOM     16  C   UNL     1       0.767   3.642  19.272  0.00  0.00    +0.000 A 
ATOM     17  C   UNL     1       1.803   4.268  19.976  0.00  0.00    +0.000 A 
ATOM     18  C   UNL     1       2.976   3.532  20.210  0.00  0.00    +0.000 A 
BRANCH  13  20
ATOM     19  C   UNL     1       5.088   1.578  20.853  0.00  0.00    +0.000 C 
ATOM     20  O   UNL     1       4.337   1.557  19.645  0.00  0.00    +0.000 OA
ENDBRANCH  13  20
ENDBRANCH  11  17
ENDBRANCH   1  11
BRANCH  10  21
ATOM     21  C   UNL     1       3.306   5.786  17.879  0.00  0.00    +0.000 C 
BRANCH  21  22
ATOM     22  C   UNL     1       4.808   5.939  18.061  0.00  0.00    +0.000 A 
ATOM     23  C   UNL     1       5.457   5.506  19.232  0.00  0.00    +0.000 A 
ATOM     24  C   UNL     1       6.849   5.568  19.364  0.00  0.00    +0.000 A 
ATOM     25  C   UNL     1       7.630   6.061  18.325  0.00  0.00    +0.000 A 
ATOM     26  C   UNL     1       7.016   6.479  17.147  0.00  0.00    +0.000 A 
ATOM     27  C   UNL     1       5.622   6.411  17.011  0.00  0.00    +0.000 A 
ATOM     28 CL   UNL     1       4.966   6.898  15.485  0.00  0.00    +0.000 Cl
ENDBRANCH  21  22
ENDBRANCH  10  21
TORSDOF 5
ENDMDL
MODEL 3
REMARK VINA RESULT:      -7.8      2.179      5.068
REMARK  Name = 
REMARK  6 active torsions:
REMARK  status: ('A' for Active; 'I' for Inactive)
REMARK    1  A    between atoms: C_1  and  O_2
REMARK    2  A    between atoms: O_2  and  C_3
REMARK    3  A    between atoms: C_7  and  N_8
REMARK    4  A    between atoms: N_8  and  C_9
REMARK    5  A    between atoms: N_18  and  C_19
REMARK    6  A    between atoms: C_19  and  C_20
REMARK                            x       y       z     vdW  Elec       q    Type
REMARK                         _______ _______ _______ _____ _____    ______ ____
ROOT
ATOM      1  C   UNL     1       3.781   6.388  18.050  0.00  0.00    +0.000 C 
ATOM      2  C   UNL     1       5.128   6.223  17.416  0.00  0.00    +0.000 A 
ATOM      3  C   UNL     1       6.169   7.126  17.279  0.00  0.00    +0.000 A 
ATOM      4  C   UNL     1       7.332   6.697  16.632  0.00  0.00    +0.000 A 
ATOM      5  C   UNL     1       7.449   5.377  16.159  0.00  0.00    +0.000 A 
ATOM      6  C   UNL     1       6.399   4.468  16.309  0.00  0.00    +0.000 A 
ATOM      7  C   UNL     1       5.253   4.929  16.930  0.00  0.00    +0.000 A 
ATOM      8  C   UNL     1       3.977   4.244  17.154  0.00  0.00    +0.000 C 
ATOM      9  O   UNL     1       3.794   3.058  16.967  0.00  0.00    +0.000 OA
ATOM     10  N   UNL     1       3.072   5.203  17.609  0.00  0.00    +0.000 N 
ENDROOT
BRANCH   1  11
ATOM     11  N   UNL     1       3.148   7.577  17.537  0.00  0.00    +0.000 N 
ATOM     12  H   UNL     1       2.730   7.387  16.632  0.00  0.00    +0.000 HD
BRANCH  11  17
ATOM     13  C   UNL     1       1.099   8.810  20.409  0.00  0.00    +0.000 A 
ATOM     14  C   UNL     1       0.614   9.994  19.859  0.00  0.00    +0.000 A 
ATOM     15  C   UNL     1       1.031  10.405  18.598  0.00  0.00    +0.000 A 
ATOM     16  C   UNL     1       1.889   9.597  17.853  0.00  0.00    +0.000 A 
ATOM     17  C   UNL     1       2.329   8.363  18.350  0.00  0.00    +0.000 A 
ATOM     18  C   UNL     1       1.999   8.035  19.675  0.00  0.00    +0.000 A 
BRANCH  13  20
ATOM     19  C   UNL     1       0.265   9.603  22.503  0.00  0.00    +0.000 C 
ATOM     20  O   UNL     1       0.608   8.517  21.652  0.00  0.00    +0.000 OA
ENDBRANCH  13  20
ENDBRANCH  11  17
ENDBRANCH   1  11
BRANCH  10  21
ATOM     21  C   UNL     1       1.786   4.822  18.180  0.00  0.00    +0.000 C 
BRANCH  21  22
ATOM     22  C   UNL     1       1.843   4.096  19.515  0.00  0.00    +0.000 A 
ATOM     23  C   UNL     1       2.397   4.698  20.660  0.00  0.00    +0.000 A 
ATOM     24  C   UNL     1       2.372   4.064  21.907  0.00  0.00    +0.000 A 
ATOM     25  C   UNL     1       1.786   2.811  22.044  0.00  0.00    +0.000 A 
ATOM     26  C   UNL     1       1.214   2.198  20.932  0.00  0.00    +0.000 A 
ATOM     27  C   UNL     1       1.233   2.835  19.683  0.00  0.00    +0.000 A 
ATOM     28 CL   UNL     1       0.439   2.016  18.381  0.00  0.00    +0.000 Cl
ENDBRANCH  21  22
ENDBRANCH  10  21
TORSDOF 5
ENDMDL
MODEL 4
REMARK VINA RESULT:      -7.7      2.947      6.311
REMARK  Name = 
REMARK  6 active torsions:
REMARK  status: ('A' for Active; 'I' for Inactive)
REMARK    1  A    between atoms: C_1  and  O_2
REMARK    2  A    between atoms: O_2  and  C_3
REMARK    3  A    between atoms: C_7  and  N_8
REMARK    4  A    between atoms: N_8  and  C_9
REMARK    5  A    between atoms: N_18  and  C_19
REMARK    6  A    between atoms: C_19  and  C_20
REMARK                            x       y       z     vdW  Elec       q    Type
REMARK                         _______ _______ _______ _____ _____    ______ ____
ROOT
ATOM      1  C   UNL     1       4.878   4.524  16.089  0.00  0.00    +0.000 C 
ATOM      2  C   UNL     1       5.544   4.296  14.768  0.00  0.00    +0.000 A 
ATOM      3  C   UNL     1       5.135   3.549  13.676  0.00  0.00    +0.000 A 
ATOM      4  C   UNL     1       5.969   3.511  12.554  0.00  0.00    +0.000 A 
ATOM      5  C   UNL     1       7.177   4.233  12.529  0.00  0.00    +0.000 A 
ATOM      6  C   UNL     1       7.580   4.991  13.630  0.00  0.00    +0.000 A 
ATOM      7  C   UNL     1       6.746   4.990  14.733  0.00  0.00    +0.000 A 
ATOM      8  C   UNL     1       6.938   5.616  16.044  0.00  0.00    +0.000 C 
ATOM      9  O   UNL     1       7.823   6.404  16.304  0.00  0.00    +0.000 OA
ATOM     10  N   UNL     1       5.930   5.133  16.879  0.00  0.00    +0.000 N 
ENDROOT
BRANCH   1  11
ATOM     11  N   UNL     1       4.485   3.258  16.657  0.00  0.00    +0.000 N 
ATOM     12  H   UNL     1       5.296   2.782  17.040  0.00  0.00    +0.000 HD
BRANCH  11  17
ATOM     13  C   UNL     1       2.205   2.376  19.484  0.00  0.00    +0.000 A 
ATOM     14  C   UNL     1       1.028   2.965  19.027  0.00  0.00    +0.000 A 
ATOM     15  C   UNL     1       1.024   3.705  17.851  0.00  0.00    +0.000 A 
ATOM     16  C   UNL     1       2.189   3.807  17.091  0.00  0.00    +0.000 A 
ATOM     17  C   UNL     1       3.366   3.158  17.486  0.00  0.00    +0.000 A 
ATOM     18  C   UNL     1       3.377   2.528  18.741  0.00  0.00    +0.000 A 
BRANCH  13  20
ATOM     19  C   UNL     1       1.697   2.387  21.819  0.00  0.00    +0.000 C 
ATOM     20  O   UNL     1       2.074   1.671  20.649  0.00  0.00    +0.000 OA
ENDBRANCH  13  20
ENDBRANCH  11  17
ENDBRANCH   1  11
BRANCH  10  21
ATOM     21  C   UNL     1       5.660   5.744  18.175  0.00  0.00    +0.000 C 
BRANCH  21  22
ATOM     22  C   UNL     1       4.393   6.580  18.262  0.00  0.00    +0.000 A 
ATOM     23  C   UNL     1       4.077   7.545  17.289  0.00  0.00    +0.000 A 
ATOM     24  C   UNL     1       2.871   8.254  17.322  0.00  0.00    +0.000 A 
ATOM     25  C   UNL     1       1.944   8.011  18.329  0.00  0.00    +0.000 A 
ATOM     26  C   UNL     1       2.222   7.049  19.297  0.00  0.00    +0.000 A 
ATOM     27  C   UNL     1       3.427   6.333  19.260  0.00  0.00    +0.000 A 
ATOM     28 CL   UNL     1       3.646   5.117  20.472  0.00  0.00    +0.000 Cl
ENDBRANCH  21  22
ENDBRANCH  10  21
TORSDOF 5
ENDMDL
MODEL 5
REMARK VINA RESULT:      -7.6      2.333      6.483
REMARK  Name = 
REMARK  6 active torsions:
REMARK  status: ('A' for Active; 'I' for Inactive)
REMARK    1  A    between atoms: C_1  and  O_2
REMARK    2  A    between atoms: O_2  and  C_3
REMARK    3  A    between atoms: C_7  and  N_8
REMARK    4  A    between atoms: N_8  and  C_9
REMARK    5  A    between atoms: N_18  and  C_19
REMARK    6  A    between atoms: C_19  and  C_20
REMARK                            x       y       z     vdW  Elec       q    Type
REMARK                         _______ _______ _______ _____ _____    ______ ____
ROOT
ATOM      1  C   UNL     1       3.106   7.014  18.223  0.00  0.00    +0.000 C 
ATOM      2  C   UNL     1       2.244   8.227  18.391  0.00  0.00    +0.000 A 
ATOM      3  C   UNL     1       1.990   9.272  17.518  0.00  0.00    +0.000 A 
ATOM      4  C   UNL     1       1.132  10.291  17.942  0.00  0.00    +0.000 A 
ATOM      5  C   UNL     1       0.523  10.240  19.210  0.00  0.00    +0.000 A 
ATOM      6  C   UNL     1       0.776   9.179  20.082  0.00  0.00    +0.000 A 
ATOM      7  C   UNL     1       1.649   8.199  19.644  0.00  0.00    +0.000 A 
ATOM      8  C   UNL     1       2.162   7.025  20.355  0.00  0.00    +0.000 C 
ATOM      9  O   UNL     1       1.742   6.635  21.426  0.00  0.00    +0.000 OA
ATOM     10  N   UNL     1       3.180   6.485  19.571  0.00  0.00    +0.000 N 
ENDROOT
BRANCH   1  11
ATOM     11  N   UNL     1       4.412   7.409  17.760  0.00  0.00    +0.000 N 
ATOM     12  H   UNL     1       4.909   7.900  18.497  0.00  0.00    +0.000 HD
BRANCH  11  17
ATOM     13  C   UNL     1       5.723   5.014  15.208  0.00  0.00    +0.000 A 
ATOM     14  C   UNL     1       6.933   4.671  15.809  0.00  0.00    +0.000 A 
ATOM     15  C   UNL     1       7.331   5.290  16.989  0.00  0.00    +0.000 A 
ATOM     16  C   UNL     1       6.487   6.211  17.608  0.00  0.00    +0.000 A 
ATOM     17  C   UNL     1       5.231   6.515  17.068  0.00  0.00    +0.000 A 
ATOM     18  C   UNL     1       4.911   5.977  15.811  0.00  0.00    +0.000 A 
BRANCH  13  20
ATOM     19  C   UNL     1       6.544   3.872  13.276  0.00  0.00    +0.000 C 
ATOM     20  O   UNL     1       5.447   4.331  14.056  0.00  0.00    +0.000 OA
ENDBRANCH  13  20
ENDBRANCH  11  17
ENDBRANCH   1  11
BRANCH  10  21
ATOM     21  C   UNL     1       3.730   5.163  19.846  0.00  0.00    +0.000 C 
BRANCH  21  22
ATOM     22  C   UNL     1       2.957   3.989  19.266  0.00  0.00    +0.000 A 
ATOM     23  C   UNL     1       3.064   3.634  17.909  0.00  0.00    +0.000 A 
ATOM     24  C   UNL     1       2.420   2.503  17.394  0.00  0.00    +0.000 A 
ATOM     25  C   UNL     1       1.654   1.694  18.225  0.00  0.00    +0.000 A 
ATOM     26  C   UNL     1       1.544   2.012  19.577  0.00  0.00    +0.000 A 
ATOM     27  C   UNL     1       2.195   3.140  20.095  0.00  0.00    +0.000 A 
ATOM     28 CL   UNL     1       2.045   3.410  21.798  0.00  0.00    +0.000 Cl
ENDBRANCH  21  22
ENDBRANCH  10  21
TORSDOF 5
ENDMDL
MODEL 6
REMARK VINA RESULT:      -7.6      2.183      5.157
REMARK  Name = 
REMARK  6 active torsions:
REMARK  status: ('A' for Active; 'I' for Inactive)
REMARK    1  A    between atoms: C_1  and  O_2
REMARK    2  A    between atoms: O_2  and  C_3
REMARK    3  A    between atoms: C_7  and  N_8
REMARK    4  A    between atoms: N_8  and  C_9
REMARK    5  A    between atoms: N_18  and  C_19
REMARK    6  A    between atoms: C_19  and  C_20
REMARK                            x       y       z     vdW  Elec       q    Type
REMARK                         _______ _______ _______ _____ _____    ______ ____
ROOT
ATOM      1  C   UNL     1       3.778   6.422  18.081  0.00  0.00    +0.000 C 
ATOM      2  C   UNL     1       5.113   6.246  17.425  0.00  0.00    +0.000 A 
ATOM      3  C   UNL     1       6.167   7.134  17.288  0.00  0.00    +0.000 A 
ATOM      4  C   UNL     1       7.314   6.697  16.617  0.00  0.00    +0.000 A 
ATOM      5  C   UNL     1       7.402   5.383  16.121  0.00  0.00    +0.000 A 
ATOM      6  C   UNL     1       6.339   4.489  16.270  0.00  0.00    +0.000 A 
ATOM      7  C   UNL     1       5.209   4.959  16.916  0.00  0.00    +0.000 A 
ATOM      8  C   UNL     1       3.926   4.290  17.147  0.00  0.00    +0.000 C 
ATOM      9  O   UNL     1       3.720   3.111  16.942  0.00  0.00    +0.000 OA
ATOM     10  N   UNL     1       3.043   5.256  17.630  0.00  0.00    +0.000 N 
ENDROOT
BRANCH   1  11
ATOM     11  N   UNL     1       3.158   7.630  17.597  0.00  0.00    +0.000 N 
ATOM     12  H   UNL     1       2.847   7.503  16.639  0.00  0.00    +0.000 HD
BRANCH  11  17
ATOM     13  C   UNL     1       0.490  10.004  18.700  0.00  0.00    +0.000 A 
ATOM     14  C   UNL     1       0.443   9.689  20.056  0.00  0.00    +0.000 A 
ATOM     15  C   UNL     1       1.221   8.655  20.564  0.00  0.00    +0.000 A 
ATOM     16  C   UNL     1       2.100   7.971  19.725  0.00  0.00    +0.000 A 
ATOM     17  C   UNL     1       2.226   8.321  18.374  0.00  0.00    +0.000 A 
ATOM     18  C   UNL     1       1.336   9.278  17.859  0.00  0.00    +0.000 A 
BRANCH  13  20
ATOM     19  C   UNL     1      -1.719  10.805  18.269  0.00  0.00    +0.000 C 
ATOM     20  O   UNL     1      -0.318  11.043  18.329  0.00  0.00    +0.000 OA
ENDBRANCH  13  20
ENDBRANCH  11  17
ENDBRANCH   1  11
BRANCH  10  21
ATOM     21  C   UNL     1       1.759   4.887  18.213  0.00  0.00    +0.000 C 
BRANCH  21  22
ATOM     22  C   UNL     1       1.823   4.127  19.529  0.00  0.00    +0.000 A 
ATOM     23  C   UNL     1       2.355   4.710  20.693  0.00  0.00    +0.000 A 
ATOM     24  C   UNL     1       2.336   4.042  21.923  0.00  0.00    +0.000 A 
ATOM     25  C   UNL     1       1.777   2.773  22.021  0.00  0.00    +0.000 A 
ATOM     26  C   UNL     1       1.226   2.178  20.889  0.00  0.00    +0.000 A 
ATOM     27  C   UNL     1       1.239   2.849  19.658  0.00  0.00    +0.000 A 
ATOM     28 CL   UNL     1       0.473   2.049  18.328  0.00  0.00    +0.000 Cl
ENDBRANCH  21  22
ENDBRANCH  10  21
TORSDOF 5
ENDMDL
MODEL 7
REMARK VINA RESULT:      -7.6      2.876      5.222
REMARK  Name = 
REMARK  6 active torsions:
REMARK  status: ('A' for Active; 'I' for Inactive)
REMARK    1  A    between atoms: C_1  and  O_2
REMARK    2  A    between atoms: O_2  and  C_3
REMARK    3  A    between atoms: C_7  and  N_8
REMARK    4  A    between atoms: N_8  and  C_9
REMARK    5  A    between atoms: N_18  and  C_19
REMARK    6  A    between atoms: C_19  and  C_20
REMARK                            x       y       z     vdW  Elec       q    Type
REMARK                         _______ _______ _______ _____ _____    ______ ____
ROOT
ATOM      1  C   UNL     1       5.818   5.275  17.958  0.00  0.00    +0.000 C 
ATOM      2  C   UNL     1       4.586   6.027  18.359  0.00  0.00    +0.000 A 
ATOM      3  C   UNL     1       3.881   6.020  19.551  0.00  0.00    +0.000 A 
ATOM      4  C   UNL     1       2.748   6.833  19.651  0.00  0.00    +0.000 A 
ATOM      5  C   UNL     1       2.353   7.654  18.578  0.00  0.00    +0.000 A 
ATOM      6  C   UNL     1       3.073   7.664  17.382  0.00  0.00    +0.000 A 
ATOM      7  C   UNL     1       4.175   6.831  17.305  0.00  0.00    +0.000 A 
ATOM      8  C   UNL     1       5.065   6.569  16.170  0.00  0.00    +0.000 C 
ATOM      9  O   UNL     1       5.062   7.205  15.136  0.00  0.00    +0.000 OA
ATOM     10  N   UNL     1       5.872   5.489  16.525  0.00  0.00    +0.000 N 
ENDROOT
BRANCH   1  11
ATOM     11  N   UNL     1       5.647   3.875  18.256  0.00  0.00    +0.000 N 
ATOM     12  H   UNL     1       6.274   3.599  19.005  0.00  0.00    +0.000 HD
BRANCH  11  17
ATOM     13  C   UNL     1       2.527   2.417  19.708  0.00  0.00    +0.000 A 
ATOM     14  C   UNL     1       1.832   2.136  18.534  0.00  0.00    +0.000 A 
ATOM     15  C   UNL     1       2.360   2.503  17.302  0.00  0.00    +0.000 A 
ATOM     16  C   UNL     1       3.619   3.098  17.234  0.00  0.00    +0.000 A 
ATOM     17  C   UNL     1       4.374   3.320  18.393  0.00  0.00    +0.000 A 
ATOM     18  C   UNL     1       3.764   3.061  19.632  0.00  0.00    +0.000 A 
BRANCH  13  20
ATOM     19  C   UNL     1       1.715   2.956  21.890  0.00  0.00    +0.000 C 
ATOM     20  O   UNL     1       1.903   2.002  20.853  0.00  0.00    +0.000 OA
ENDBRANCH  13  20
ENDBRANCH  11  17
ENDBRANCH   1  11
BRANCH  10  21
ATOM     21  C   UNL     1       7.048   5.130  15.741  0.00  0.00    +0.000 C 
BRANCH  21  22
ATOM     22  C   UNL     1       6.772   4.520  14.375  0.00  0.00    +0.000 A 
ATOM     23  C   UNL     1       5.654   3.698  14.147  0.00  0.00    +0.000 A 
ATOM     24  C   UNL     1       5.353   3.207  12.871  0.00  0.00    +0.000 A 
ATOM     25  C   UNL     1       6.160   3.531  11.787  0.00  0.00    +0.000 A 
ATOM     26  C   UNL     1       7.264   4.359  11.981  0.00  0.00    +0.000 A 
ATOM     27  C   UNL     1       7.563   4.857  13.257  0.00  0.00    +0.000 A 
ATOM     28 CL   UNL     1       8.918   5.926  13.376  0.00  0.00    +0.000 Cl
ENDBRANCH  21  22
ENDBRANCH  10  21
TORSDOF 5
ENDMDL
MODEL 8
REMARK VINA RESULT:      -7.5      2.696      6.590
REMARK  Name = 
REMARK  6 active torsions:
REMARK  status: ('A' for Active; 'I' for Inactive)
REMARK    1  A    between atoms: C_1  and  O_2
REMARK    2  A    between atoms: O_2  and  C_3
REMARK    3  A    between atoms: C_7  and  N_8
REMARK    4  A    between atoms: N_8  and  C_9
REMARK    5  A    between atoms: N_18  and  C_19
REMARK    6  A    between atoms: C_19  and  C_20
REMARK                            x       y       z     vdW  Elec       q    Type
REMARK                         _______ _______ _______ _____ _____    ______ ____
ROOT
ATOM      1  C   UNL     1       3.525   5.403  19.416  0.00  0.00    +0.000 C 
ATOM      2  C   UNL     1       3.120   4.028  18.981  0.00  0.00    +0.000 A 
ATOM      3  C   UNL     1       3.820   3.075  18.261  0.00  0.00    +0.000 A 
ATOM      4  C   UNL     1       3.187   1.857  17.992  0.00  0.00    +0.000 A 
ATOM      5  C   UNL     1       1.888   1.600  18.466  0.00  0.00    +0.000 A 
ATOM      6  C   UNL     1       1.191   2.562  19.201  0.00  0.00    +0.000 A 
ATOM      7  C   UNL     1       1.833   3.766  19.428  0.00  0.00    +0.000 A 
ATOM      8  C   UNL     1       1.333   4.976  20.086  0.00  0.00    +0.000 C 
ATOM      9  O   UNL     1       0.290   5.039  20.705  0.00  0.00    +0.000 OA
ATOM     10  N   UNL     1       2.272   5.982  19.859  0.00  0.00    +0.000 N 
ENDROOT
BRANCH   1  11
ATOM     11  N   UNL     1       4.048   6.132  18.287  0.00  0.00    +0.000 N 
ATOM     12  H   UNL     1       4.012   7.129  18.468  0.00  0.00    +0.000 HD
BRANCH  11  17
ATOM     13  C   UNL     1       6.613   5.243  15.717  0.00  0.00    +0.000 A 
ATOM     14  C   UNL     1       7.665   4.876  16.554  0.00  0.00    +0.000 A 
ATOM     15  C   UNL     1       7.543   5.006  17.932  0.00  0.00    +0.000 A 
ATOM     16  C   UNL     1       6.340   5.444  18.485  0.00  0.00    +0.000 A 
ATOM     17  C   UNL     1       5.240   5.744  17.671  0.00  0.00    +0.000 A 
ATOM     18  C   UNL     1       5.432   5.731  16.280  0.00  0.00    +0.000 A 
BRANCH  13  20
ATOM     19  C   UNL     1       6.241   3.957  13.739  0.00  0.00    +0.000 C 
ATOM     20  O   UNL     1       6.858   5.064  14.383  0.00  0.00    +0.000 OA
ENDBRANCH  13  20
ENDBRANCH  11  17
ENDBRANCH   1  11
BRANCH  10  21
ATOM     21  C   UNL     1       2.226   7.242  20.590  0.00  0.00    +0.000 C 
BRANCH  21  22
ATOM     22  C   UNL     1       1.508   8.387  19.893  0.00  0.00    +0.000 A 
ATOM     23  C   UNL     1       1.780   8.721  18.553  0.00  0.00    +0.000 A 
ATOM     24  C   UNL     1       1.059   9.718  17.885  0.00  0.00    +0.000 A 
ATOM     25  C   UNL     1       0.042  10.404  18.539  0.00  0.00    +0.000 A 
ATOM     26  C   UNL     1      -0.261  10.082  19.859  0.00  0.00    +0.000 A 
ATOM     27  C   UNL     1       0.456   9.079  20.528  0.00  0.00    +0.000 A 
ATOM     28 CL   UNL     1      -0.042   8.714  22.144  0.00  0.00    +0.000 Cl
ENDBRANCH  21  22
ENDBRANCH  10  21
TORSDOF 5
ENDMDL
MODEL 9
REMARK VINA RESULT:      -7.5      1.922      6.479
REMARK  Name = 
REMARK  6 active torsions:
REMARK  status: ('A' for Active; 'I' for Inactive)
REMARK    1  A    between atoms: C_1  and  O_2
REMARK    2  A    between atoms: O_2  and  C_3
REMARK    3  A    between atoms: C_7  and  N_8
REMARK    4  A    between atoms: N_8  and  C_9
REMARK    5  A    between atoms: N_18  and  C_19
REMARK    6  A    between atoms: C_19  and  C_20
REMARK                            x       y       z     vdW  Elec       q    Type
REMARK                         _______ _______ _______ _____ _____    ______ ____
ROOT
ATOM      1  C   UNL     1       2.736   6.545  18.971  0.00  0.00    +0.000 C 
ATOM      2  C   UNL     1       2.241   7.932  18.702  0.00  0.00    +0.000 A 
ATOM      3  C   UNL     1       2.429   8.752  17.602  0.00  0.00    +0.000 A 
ATOM      4  C   UNL     1       1.842  10.022  17.619  0.00  0.00    +0.000 A 
ATOM      5  C   UNL     1       1.061  10.441  18.712  0.00  0.00    +0.000 A 
ATOM      6  C   UNL     1       0.867   9.605  19.815  0.00  0.00    +0.000 A 
ATOM      7  C   UNL     1       1.480   8.366  19.779  0.00  0.00    +0.000 A 
ATOM      8  C   UNL     1       1.525   7.322  20.806  0.00  0.00    +0.000 C 
ATOM      9  O   UNL     1       0.856   7.327  21.819  0.00  0.00    +0.000 OA
ATOM     10  N   UNL     1       2.453   6.371  20.383  0.00  0.00    +0.000 N 
ENDROOT
BRANCH   1  11
ATOM     11  N   UNL     1       4.155   6.483  18.727  0.00  0.00    +0.000 N 
ATOM     12  H   UNL     1       4.651   6.309  19.595  0.00  0.00    +0.000 HD
BRANCH  11  17
ATOM     13  C   UNL     1       6.341   5.277  15.945  0.00  0.00    +0.000 A 
ATOM     14  C   UNL     1       5.559   4.224  15.474  0.00  0.00    +0.000 A 
ATOM     15  C   UNL     1       4.381   3.879  16.124  0.00  0.00    +0.000 A 
ATOM     16  C   UNL     1       3.944   4.630  17.215  0.00  0.00    +0.000 A 
ATOM     17  C   UNL     1       4.669   5.743  17.660  0.00  0.00    +0.000 A 
ATOM     18  C   UNL     1       5.919   5.989  17.070  0.00  0.00    +0.000 A 
BRANCH  13  20
ATOM     19  C   UNL     1       7.483   5.106  13.853  0.00  0.00    +0.000 C 
ATOM     20  O   UNL     1       7.472   5.517  15.215  0.00  0.00    +0.000 OA
ENDBRANCH  13  20
ENDBRANCH  11  17
ENDBRANCH   1  11
BRANCH  10  21
ATOM     21  C   UNL     1       2.557   5.069  21.030  0.00  0.00    +0.000 C 
BRANCH  21  22
ATOM     22  C   UNL     1       2.094   3.879  20.204  0.00  0.00    +0.000 A 
ATOM     23  C   UNL     1       0.775   3.781  19.726  0.00  0.00    +0.000 A 
ATOM     24  C   UNL     1       0.372   2.730  18.894  0.00  0.00    +0.000 A 
ATOM     25  C   UNL     1       1.282   1.751  18.514  0.00  0.00    +0.000 A 
ATOM     26  C   UNL     1       2.600   1.832  18.957  0.00  0.00    +0.000 A 
ATOM     27  C   UNL     1       3.006   2.888  19.785  0.00  0.00    +0.000 A 
ATOM     28 CL   UNL     1       4.679   2.930  20.228  0.00  0.00    +0.000 Cl
ENDBRANCH  21  22
ENDBRANCH  10  21
TORSDOF 5
ENDMDL
