MODEL 1
REMARK VINA RESULT:      -8.5      0.000      0.000
REMARK  Name = 
REMARK  6 active torsions:
REMARK  status: ('A' for Active; 'I' for Inactive)
REMARK    1  A    between atoms: C_1  and  C_2
REMARK    2  A    between atoms: C_2  and  C_3
REMARK    3  A    between atoms: C_3  and  C_4
REMARK    4  A    between atoms: C_10  and  S_11
REMARK    5  A    between atoms: S_11  and  N_14
REMARK    6  A    between atoms: N_14  and  C_15
REMARK                            x       y       z     vdW  Elec       q    Type
REMARK                         _______ _______ _______ _____ _____    ______ ____
ROOT
ATOM      1  C   UNL     1       5.320   5.219  17.937  0.00  0.00    +0.000 C 
ATOM      2  C   UNL     1       4.566   4.077  17.225  0.00  0.00    +0.000 C 
ATOM      3  N   UNL     1       4.860   5.330  19.320  0.00  0.00    +0.000 N 
ATOM      4  C   UNL     1       3.540   5.483  19.630  0.00  0.00    +0.000 C 
ATOM      5  O   UNL     1       2.973   4.644  20.322  0.00  0.00    +0.000 OA
ATOM      6  C   UNL     1       2.873   6.744  19.276  0.00  0.00    +0.000 A 
ATOM      7  C   UNL     1       1.999   7.224  20.273  0.00  0.00    +0.000 A 
ATOM      8  C   UNL     1       1.303   8.418  20.096  0.00  0.00    +0.000 A 
ATOM      9  C   UNL     1       1.435   9.130  18.909  0.00  0.00    +0.000 A 
ATOM     10  C   UNL     1       2.289   8.642  17.914  0.00  0.00    +0.000 A 
ATOM     11  C   UNL     1       3.062   7.476  18.104  0.00  0.00    +0.000 A 
ATOM     12  N   UNL     1       4.008   7.241  17.095  0.00  0.00    +0.000 N 
ATOM     13  C   UNL     1       5.132   6.474  17.055  0.00  0.00    +0.000 C 
ATOM     14  O   UNL     1       5.909   6.725  16.125  0.00  0.00    +0.000 OA
ATOM     15  H   UNL     1       5.190   4.546  19.872  0.00  0.00    +0.000 HD
ATOM     16  H   UNL     1       4.030   7.913  16.333  0.00  0.00    +0.000 HD
ENDROOT
BRANCH   8  17
ATOM     17  S   UNL     1       0.337   9.078  21.440  0.00  0.00    +0.000 S 
ATOM     18  O   UNL     1      -0.625   8.069  21.828  0.00  0.00    +0.000 OA
ATOM     19  O   UNL     1       1.270   9.632  22.394  0.00  0.00    +0.000 OA
BRANCH  17  20
ATOM     20  N   UNL     1      -0.472  10.391  20.741  0.00  0.00    +0.000 N 
ATOM     21  H   UNL     1      -1.385  10.095  20.395  0.00  0.00    +0.000 HD
BRANCH  20  22
ATOM     22  C   UNL     1      -0.460  11.629  21.454  0.00  0.00    +0.000 A 
ATOM     23  C   UNL     1      -1.387  11.863  22.468  0.00  0.00    +0.000 A 
ATOM     24  C   UNL     1      -1.399  13.101  23.118  0.00  0.00    +0.000 A 
ATOM     25  C   UNL     1      -0.507  14.098  22.724  0.00  0.00    +0.000 A 
ATOM     26  F   UNL     1      -0.528  15.282  23.348  0.00  0.00    +0.000 F 
ATOM     27  C   UNL     1       0.405  13.883  21.700  0.00  0.00    +0.000 A 
ATOM     28  C   UNL     1       0.425  12.646  21.075  0.00  0.00    +0.000 A 
ATOM     29  F   UNL     1       1.295  12.427  20.077  0.00  0.00    +0.000 F 
ENDBRANCH  20  22
ENDBRANCH  17  20
ENDBRANCH   8  17
BRANCH   1  31
ATOM     30  C   UNL     1       7.693   5.667  18.917  0.00  0.00    +0.000 C 
ATOM     31  C   UNL     1       6.831   4.835  17.969  0.00  0.00    +0.000 C 
ENDBRANCH   1  31
TORSDOF 4
ENDMDL
MODEL 2
REMARK VINA RESULT:      -8.5      1.311      1.475
REMARK  Name = 
REMARK  6 active torsions:
REMARK  status: ('A' for Active; 'I' for Inactive)
REMARK    1  A    between atoms: C_1  and  C_2
REMARK    2  A    between atoms: C_2  and  C_3
REMARK    3  A    between atoms: C_3  and  C_4
REMARK    4  A    between atoms: C_10  and  S_11
REMARK    5  A    between atoms: S_11  and  N_14
REMARK    6  A    between atoms: N_14  and  C_15
REMARK                            x       y       z     vdW  Elec       q    Type
REMARK                         _______ _______ _______ _____ _____    ______ ____
ROOT
ATOM      1  C   UNL     1       5.187   5.167  17.726  0.00  0.00    +0.000 C 
ATOM      2  C   UNL     1       4.350   4.024  17.114  0.00  0.00    +0.000 C 
ATOM      3  N   UNL     1       4.847   5.328  19.138  0.00  0.00    +0.000 N 
ATOM      4  C   UNL     1       3.561   5.524  19.551  0.00  0.00    +0.000 C 
ATOM      5  O   UNL     1       3.034   4.719  20.313  0.00  0.00    +0.000 OA
ATOM      6  C   UNL     1       2.896   6.791  19.215  0.00  0.00    +0.000 A 
ATOM      7  C   UNL     1       2.119   7.321  20.265  0.00  0.00    +0.000 A 
ATOM      8  C   UNL     1       1.438   8.526  20.110  0.00  0.00    +0.000 A 
ATOM      9  C   UNL     1       1.486   9.200  18.895  0.00  0.00    +0.000 A 
ATOM     10  C   UNL     1       2.244   8.663  17.848  0.00  0.00    +0.000 A 
ATOM     11  C   UNL     1       3.003   7.484  18.009  0.00  0.00    +0.000 A 
ATOM     12  N   UNL     1       3.855   7.196  16.933  0.00  0.00    +0.000 N 
ATOM     13  C   UNL     1       4.955   6.399  16.824  0.00  0.00    +0.000 C 
ATOM     14  O   UNL     1       5.658   6.604  15.826  0.00  0.00    +0.000 OA
ATOM     15  H   UNL     1       5.203   4.552  19.684  0.00  0.00    +0.000 HD
ATOM     16  H   UNL     1       3.829   7.845  16.152  0.00  0.00    +0.000 HD
ENDROOT
BRANCH   8  17
ATOM     17  S   UNL     1       0.602   9.250  21.508  0.00  0.00    +0.000 S 
ATOM     18  O   UNL     1      -0.706   8.639  21.603  0.00  0.00    +0.000 OA
ATOM     19  O   UNL     1       1.530   9.212  22.615  0.00  0.00    +0.000 OA
BRANCH  17  20
ATOM     20  N   UNL     1       0.437  10.877  21.075  0.00  0.00    +0.000 N 
ATOM     21  H   UNL     1       0.726  11.012  20.106  0.00  0.00    +0.000 HD
BRANCH  20  22
ATOM     22  C   UNL     1      -0.770  11.542  21.451  0.00  0.00    +0.000 A 
ATOM     23  C   UNL     1      -1.080  11.725  22.798  0.00  0.00    +0.000 A 
ATOM     24  C   UNL     1      -2.291  12.327  23.150  0.00  0.00    +0.000 A 
ATOM     25  C   UNL     1      -3.190  12.707  22.154  0.00  0.00    +0.000 A 
ATOM     26  F   UNL     1      -4.351  13.278  22.500  0.00  0.00    +0.000 F 
ATOM     27  C   UNL     1      -2.903  12.507  20.811  0.00  0.00    +0.000 A 
ATOM     28  C   UNL     1      -1.690  11.930  20.468  0.00  0.00    +0.000 A 
ATOM     29  F   UNL     1      -1.401  11.723  19.174  0.00  0.00    +0.000 F 
ENDBRANCH  20  22
ENDBRANCH  17  20
ENDBRANCH   8  17
BRANCH   1  31
ATOM     30  C   UNL     1       7.625   5.499  18.586  0.00  0.00    +0.000 C 
ATOM     31  C   UNL     1       6.686   4.745  17.645  0.00  0.00    +0.000 C 
ENDBRANCH   1  31
TORSDOF 4
ENDMDL
MODEL 3
REMARK VINA RESULT:      -8.5      1.555      1.914
REMARK  Name = 
REMARK  6 active torsions:
REMARK  status: ('A' for Active; 'I' for Inactive)
REMARK    1  A    between atoms: C_1  and  C_2
REMARK    2  A    between atoms: C_2  and  C_3
REMARK    3  A    between atoms: C_3  and  C_4
REMARK    4  A    between atoms: C_10  and  S_11
REMARK    5  A    between atoms: S_11  and  N_14
REMARK    6  A    between atoms: N_14  and  C_15
REMARK                            x       y       z     vdW  Elec       q    Type
REMARK                         _______ _______ _______ _____ _____    ______ ____
ROOT
ATOM      1  C   UNL     1       5.115   5.154  17.733  0.00  0.00    +0.000 C 
ATOM      2  C   UNL     1       4.257   4.023  17.127  0.00  0.00    +0.000 C 
ATOM      3  N   UNL     1       4.783   5.326  19.145  0.00  0.00    +0.000 N 
ATOM      4  C   UNL     1       3.502   5.544  19.563  0.00  0.00    +0.000 C 
ATOM      5  O   UNL     1       2.966   4.751  20.330  0.00  0.00    +0.000 OA
ATOM      6  C   UNL     1       2.858   6.821  19.226  0.00  0.00    +0.000 A 
ATOM      7  C   UNL     1       2.094   7.367  20.277  0.00  0.00    +0.000 A 
ATOM      8  C   UNL     1       1.433   8.584  20.121  0.00  0.00    +0.000 A 
ATOM      9  C   UNL     1       1.488   9.253  18.903  0.00  0.00    +0.000 A 
ATOM     10  C   UNL     1       2.232   8.699  17.855  0.00  0.00    +0.000 A 
ATOM     11  C   UNL     1       2.971   7.508  18.017  0.00  0.00    +0.000 A 
ATOM     12  N   UNL     1       3.814   7.203  16.938  0.00  0.00    +0.000 N 
ATOM     13  C   UNL     1       4.899   6.387  16.828  0.00  0.00    +0.000 C 
ATOM     14  O   UNL     1       5.602   6.577  15.826  0.00  0.00    +0.000 OA
ATOM     15  H   UNL     1       5.129   4.546  19.693  0.00  0.00    +0.000 HD
ATOM     16  H   UNL     1       3.796   7.849  16.155  0.00  0.00    +0.000 HD
ENDROOT
BRANCH   8  17
ATOM     17  S   UNL     1       0.615   9.326  21.520  0.00  0.00    +0.000 S 
ATOM     18  O   UNL     1      -0.706   8.743  21.617  0.00  0.00    +0.000 OA
ATOM     19  O   UNL     1       1.543   9.269  22.625  0.00  0.00    +0.000 OA
BRANCH  17  20
ATOM     20  N   UNL     1       0.484  10.956  21.086  0.00  0.00    +0.000 N 
ATOM     21  H   UNL     1       1.142  11.172  20.336  0.00  0.00    +0.000 HD
BRANCH  20  22
ATOM     22  C   UNL     1      -0.829  11.492  20.920  0.00  0.00    +0.000 A 
ATOM     23  C   UNL     1      -1.394  11.584  19.648  0.00  0.00    +0.000 A 
ATOM     24  C   UNL     1      -2.658  12.162  19.496  0.00  0.00    +0.000 A 
ATOM     25  C   UNL     1      -3.326  12.669  20.611  0.00  0.00    +0.000 A 
ATOM     26  F   UNL     1      -4.533  13.226  20.456  0.00  0.00    +0.000 F 
ATOM     27  C   UNL     1      -2.762  12.604  21.878  0.00  0.00    +0.000 A 
ATOM     28  C   UNL     1      -1.519  12.010  22.024  0.00  0.00    +0.000 A 
ATOM     29  F   UNL     1      -0.958  11.947  23.241  0.00  0.00    +0.000 F 
ENDBRANCH  20  22
ENDBRANCH  17  20
ENDBRANCH   8  17
BRANCH   1  31
ATOM     30  C   UNL     1       7.569   5.477  18.550  0.00  0.00    +0.000 C 
ATOM     31  C   UNL     1       6.606   4.707  17.646  0.00  0.00    +0.000 C 
ENDBRANCH   1  31
TORSDOF 4
ENDMDL
MODEL 4
REMARK VINA RESULT:      -8.4      3.753      8.648
REMARK  Name = 
REMARK  6 active torsions:
REMARK  status: ('A' for Active; 'I' for Inactive)
REMARK    1  A    between atoms: C_1  and  C_2
REMARK    2  A    between atoms: C_2  and  C_3
REMARK    3  A    between atoms: C_3  and  C_4
REMARK    4  A    between atoms: C_10  and  S_11
REMARK    5  A    between atoms: S_11  and  N_14
REMARK    6  A    between atoms: N_14  and  C_15
REMARK                            x       y       z     vdW  Elec       q    Type
REMARK                         _______ _______ _______ _____ _____    ______ ____
ROOT
ATOM      1  C   UNL     1      -0.649  12.014  20.644  0.00  0.00    +0.000 C 
ATOM      2  C   UNL     1       0.434  12.970  21.185  0.00  0.00    +0.000 C 
ATOM      3  N   UNL     1      -0.571  10.732  21.340  0.00  0.00    +0.000 N 
ATOM      4  C   UNL     1       0.588  10.013  21.398  0.00  0.00    +0.000 C 
ATOM      5  O   UNL     1       1.094   9.757  22.486  0.00  0.00    +0.000 OA
ATOM      6  C   UNL     1       1.106   9.408  20.164  0.00  0.00    +0.000 A 
ATOM      7  C   UNL     1       1.615   8.105  20.340  0.00  0.00    +0.000 A 
ATOM      8  C   UNL     1       2.128   7.388  19.261  0.00  0.00    +0.000 A 
ATOM      9  C   UNL     1       2.181   7.972  18.000  0.00  0.00    +0.000 A 
ATOM     10  C   UNL     1       1.691   9.273  17.832  0.00  0.00    +0.000 A 
ATOM     11  C   UNL     1       1.097   9.987  18.895  0.00  0.00    +0.000 A 
ATOM     12  N   UNL     1       0.483  11.188  18.509  0.00  0.00    +0.000 N 
ATOM     13  C   UNL     1      -0.455  11.970  19.112  0.00  0.00    +0.000 C 
ATOM     14  O   UNL     1      -1.008  12.794  18.372  0.00  0.00    +0.000 OA
ATOM     15  H   UNL     1      -0.895  10.822  22.297  0.00  0.00    +0.000 HD
ATOM     16  H   UNL     1       0.541  11.427  17.524  0.00  0.00    +0.000 HD
ENDROOT
BRANCH   8  17
ATOM     17  S   UNL     1       2.609   5.687  19.485  0.00  0.00    +0.000 S 
ATOM     18  O   UNL     1       2.336   5.330  20.861  0.00  0.00    +0.000 OA
ATOM     19  O   UNL     1       2.036   4.941  18.388  0.00  0.00    +0.000 OA
BRANCH  17  20
ATOM     20  N   UNL     1       4.282   5.709  19.228  0.00  0.00    +0.000 N 
ATOM     21  H   UNL     1       4.758   5.207  19.979  0.00  0.00    +0.000 HD
BRANCH  20  22
ATOM     22  C   UNL     1       4.751   5.424  17.910  0.00  0.00    +0.000 A 
ATOM     23  C   UNL     1       4.949   6.458  16.997  0.00  0.00    +0.000 A 
ATOM     24  C   UNL     1       5.355   6.158  15.693  0.00  0.00    +0.000 A 
ATOM     25  C   UNL     1       5.526   4.828  15.310  0.00  0.00    +0.000 A 
ATOM     26  F   UNL     1       5.909   4.549  14.058  0.00  0.00    +0.000 F 
ATOM     27  C   UNL     1       5.308   3.789  16.204  0.00  0.00    +0.000 A 
ATOM     28  C   UNL     1       4.927   4.095  17.501  0.00  0.00    +0.000 A 
ATOM     29  F   UNL     1       4.706   3.101  18.375  0.00  0.00    +0.000 F 
ENDBRANCH  20  22
ENDBRANCH  17  20
ENDBRANCH   8  17
BRANCH   1  31
ATOM     30  C   UNL     1      -2.110  13.410  22.290  0.00  0.00    +0.000 C 
ATOM     31  C   UNL     1      -2.037  12.647  20.968  0.00  0.00    +0.000 C 
ENDBRANCH   1  31
TORSDOF 4
ENDMDL
MODEL 5
REMARK VINA RESULT:      -8.4      0.899      1.288
REMARK  Name = 
REMARK  6 active torsions:
REMARK  status: ('A' for Active; 'I' for Inactive)
REMARK    1  A    between atoms: C_1  and  C_2
REMARK    2  A    between atoms: C_2  and  C_3
REMARK    3  A    between atoms: C_3  and  C_4
REMARK    4  A    between atoms: C_10  and  S_11
REMARK    5  A    between atoms: S_11  and  N_14
REMARK    6  A    between atoms: N_14  and  C_15
REMARK                            x       y       z     vdW  Elec       q    Type
REMARK                         _______ _______ _______ _____ _____    ______ ____
ROOT
ATOM      1  C   UNL     1       5.122   5.292  17.943  0.00  0.00    +0.000 C 
ATOM      2  C   UNL     1       4.336   4.168  17.237  0.00  0.00    +0.000 C 
ATOM      3  N   UNL     1       4.679   5.411  19.330  0.00  0.00    +0.000 N 
ATOM      4  C   UNL     1       3.366   5.593  19.654  0.00  0.00    +0.000 C 
ATOM      5  O   UNL     1       2.788   4.766  20.351  0.00  0.00    +0.000 OA
ATOM      6  C   UNL     1       2.724   6.869  19.308  0.00  0.00    +0.000 A 
ATOM      7  C   UNL     1       1.871   7.367  20.314  0.00  0.00    +0.000 A 
ATOM      8  C   UNL     1       1.199   8.576  20.146  0.00  0.00    +0.000 A 
ATOM      9  C   UNL     1       1.335   9.286  18.958  0.00  0.00    +0.000 A 
ATOM     10  C   UNL     1       2.168   8.781  17.953  0.00  0.00    +0.000 A 
ATOM     11  C   UNL     1       2.917   7.598  18.135  0.00  0.00    +0.000 A 
ATOM     12  N   UNL     1       3.846   7.343  17.115  0.00  0.00    +0.000 N 
ATOM     13  C   UNL     1       4.952   6.551  17.063  0.00  0.00    +0.000 C 
ATOM     14  O   UNL     1       5.726   6.786  16.126  0.00  0.00    +0.000 OA
ATOM     15  H   UNL     1       4.997   4.619  19.878  0.00  0.00    +0.000 HD
ATOM     16  H   UNL     1       3.875   8.015  16.354  0.00  0.00    +0.000 HD
ENDROOT
BRANCH   8  17
ATOM     17  S   UNL     1       0.262   9.257  21.500  0.00  0.00    +0.000 S 
ATOM     18  O   UNL     1      -0.635   8.226  21.976  0.00  0.00    +0.000 OA
ATOM     19  O   UNL     1       1.209   9.895  22.385  0.00  0.00    +0.000 OA
BRANCH  17  20
ATOM     20  N   UNL     1      -0.634  10.499  20.779  0.00  0.00    +0.000 N 
ATOM     21  H   UNL     1      -1.580  10.175  20.577  0.00  0.00    +0.000 HD
BRANCH  20  22
ATOM     22  C   UNL     1      -0.545  11.800  21.361  0.00  0.00    +0.000 A 
ATOM     23  C   UNL     1       0.313  12.755  20.817  0.00  0.00    +0.000 A 
ATOM     24  C   UNL     1       0.430  14.005  21.431  0.00  0.00    +0.000 A 
ATOM     25  C   UNL     1      -0.286  14.273  22.598  0.00  0.00    +0.000 A 
ATOM     26  F   UNL     1      -0.163  15.471  23.183  0.00  0.00    +0.000 F 
ATOM     27  C   UNL     1      -1.124  13.322  23.162  0.00  0.00    +0.000 A 
ATOM     28  C   UNL     1      -1.253  12.092  22.535  0.00  0.00    +0.000 A 
ATOM     29  F   UNL     1      -2.054  11.159  23.072  0.00  0.00    +0.000 F 
ENDBRANCH  20  22
ENDBRANCH  17  20
ENDBRANCH   8  17
BRANCH   1  31
ATOM     30  C   UNL     1       7.504   5.647  18.940  0.00  0.00    +0.000 C 
ATOM     31  C   UNL     1       6.624   4.875  17.958  0.00  0.00    +0.000 C 
ENDBRANCH   1  31
TORSDOF 4
ENDMDL
MODEL 6
REMARK VINA RESULT:      -8.2      3.098      8.562
REMARK  Name = 
REMARK  6 active torsions:
REMARK  status: ('A' for Active; 'I' for Inactive)
REMARK    1  A    between atoms: C_1  and  C_2
REMARK    2  A    between atoms: C_2  and  C_3
REMARK    3  A    between atoms: C_3  and  C_4
REMARK    4  A    between atoms: C_10  and  S_11
REMARK    5  A    between atoms: S_11  and  N_14
REMARK    6  A    between atoms: N_14  and  C_15
REMARK                            x       y       z     vdW  Elec       q    Type
REMARK                         _______ _______ _______ _____ _____    ______ ____
ROOT
ATOM      1  C   UNL     1      -0.628  11.909  20.662  0.00  0.00    +0.000 C 
ATOM      2  C   UNL     1       0.465  12.873  21.170  0.00  0.00    +0.000 C 
ATOM      3  N   UNL     1      -0.528  10.632  21.366  0.00  0.00    +0.000 N 
ATOM      4  C   UNL     1       0.635   9.918  21.402  0.00  0.00    +0.000 C 
ATOM      5  O   UNL     1       1.168   9.672  22.479  0.00  0.00    +0.000 OA
ATOM      6  C   UNL     1       1.126   9.306  20.160  0.00  0.00    +0.000 A 
ATOM      7  C   UNL     1       1.645   8.006  20.333  0.00  0.00    +0.000 A 
ATOM      8  C   UNL     1       2.135   7.283  19.248  0.00  0.00    +0.000 A 
ATOM      9  C   UNL     1       2.155   7.859  17.982  0.00  0.00    +0.000 A 
ATOM     10  C   UNL     1       1.657   9.156  17.815  0.00  0.00    +0.000 A 
ATOM     11  C   UNL     1       1.085   9.875  18.887  0.00  0.00    +0.000 A 
ATOM     12  N   UNL     1       0.457  11.071  18.507  0.00  0.00    +0.000 N 
ATOM     13  C   UNL     1      -0.470  11.854  19.126  0.00  0.00    +0.000 C 
ATOM     14  O   UNL     1      -1.043  12.671  18.394  0.00  0.00    +0.000 OA
ATOM     15  H   UNL     1      -0.829  10.728  22.329  0.00  0.00    +0.000 HD
ATOM     16  H   UNL     1       0.491  11.303  17.520  0.00  0.00    +0.000 HD
ENDROOT
BRANCH   8  17
ATOM     17  S   UNL     1       2.629   5.586  19.473  0.00  0.00    +0.000 S 
ATOM     18  O   UNL     1       2.406   5.244  20.861  0.00  0.00    +0.000 OA
ATOM     19  O   UNL     1       2.018   4.827  18.406  0.00  0.00    +0.000 OA
BRANCH  17  20
ATOM     20  N   UNL     1       4.291   5.609  19.155  0.00  0.00    +0.000 N 
ATOM     21  H   UNL     1       4.798   5.159  19.918  0.00  0.00    +0.000 HD
BRANCH  20  22
ATOM     22  C   UNL     1       4.717   5.248  17.841  0.00  0.00    +0.000 A 
ATOM     23  C   UNL     1       4.767   3.908  17.462  0.00  0.00    +0.000 A 
ATOM     24  C   UNL     1       5.239   3.568  16.191  0.00  0.00    +0.000 A 
ATOM     25  C   UNL     1       5.685   4.569  15.328  0.00  0.00    +0.000 A 
ATOM     26  F   UNL     1       6.141   4.235  14.114  0.00  0.00    +0.000 F 
ATOM     27  C   UNL     1       5.662   5.905  15.703  0.00  0.00    +0.000 A 
ATOM     28  C   UNL     1       5.172   6.236  16.957  0.00  0.00    +0.000 A 
ATOM     29  F   UNL     1       5.150   7.523  17.337  0.00  0.00    +0.000 F 
ENDBRANCH  20  22
ENDBRANCH  17  20
ENDBRANCH   8  17
BRANCH   1  31
ATOM     30  C   UNL     1      -2.021  13.425  22.259  0.00  0.00    +0.000 C 
ATOM     31  C   UNL     1      -2.010  12.538  21.015  0.00  0.00    +0.000 C 
ENDBRANCH   1  31
TORSDOF 4
ENDMDL
MODEL 7
REMARK VINA RESULT:      -8.1      3.350      7.999
REMARK  Name = 
REMARK  6 active torsions:
REMARK  status: ('A' for Active; 'I' for Inactive)
REMARK    1  A    between atoms: C_1  and  C_2
REMARK    2  A    between atoms: C_2  and  C_3
REMARK    3  A    between atoms: C_3  and  C_4
REMARK    4  A    between atoms: C_10  and  S_11
REMARK    5  A    between atoms: S_11  and  N_14
REMARK    6  A    between atoms: N_14  and  C_15
REMARK                            x       y       z     vdW  Elec       q    Type
REMARK                         _______ _______ _______ _____ _____    ______ ____
ROOT
ATOM      1  C   UNL     1      -0.210  11.378  20.666  0.00  0.00    +0.000 C 
ATOM      2  C   UNL     1       0.926  12.257  21.230  0.00  0.00    +0.000 C 
ATOM      3  N   UNL     1      -0.152  10.047  21.266  0.00  0.00    +0.000 N 
ATOM      4  C   UNL     1       0.982   9.289  21.227  0.00  0.00    +0.000 C 
ATOM      5  O   UNL     1       1.520   8.938  22.273  0.00  0.00    +0.000 OA
ATOM      6  C   UNL     1       1.432   8.758  19.933  0.00  0.00    +0.000 A 
ATOM      7  C   UNL     1       1.902   7.430  19.996  0.00  0.00    +0.000 A 
ATOM      8  C   UNL     1       2.349   6.776  18.849  0.00  0.00    +0.000 A 
ATOM      9  C   UNL     1       2.374   7.448  17.632  0.00  0.00    +0.000 A 
ATOM     10  C   UNL     1       1.925   8.773  17.576  0.00  0.00    +0.000 A 
ATOM     11  C   UNL     1       1.396   9.427  18.710  0.00  0.00    +0.000 A 
ATOM     12  N   UNL     1       0.811  10.672  18.435  0.00  0.00    +0.000 N 
ATOM     13  C   UNL     1      -0.076  11.438  19.128  0.00  0.00    +0.000 C 
ATOM     14  O   UNL     1      -0.627  12.332  18.472  0.00  0.00    +0.000 OA
ATOM     15  H   UNL     1      -0.436  10.079  22.239  0.00  0.00    +0.000 HD
ATOM     16  H   UNL     1       0.840  10.980  17.468  0.00  0.00    +0.000 HD
ENDROOT
BRANCH   8  17
ATOM     17  S   UNL     1       2.778   5.049  18.933  0.00  0.00    +0.000 S 
ATOM     18  O   UNL     1       3.366   4.804  20.232  0.00  0.00    +0.000 OA
ATOM     19  O   UNL     1       1.623   4.308  18.480  0.00  0.00    +0.000 OA
BRANCH  17  20
ATOM     20  N   UNL     1       3.960   4.874  17.735  0.00  0.00    +0.000 N 
ATOM     21  H   UNL     1       3.560   5.073  16.817  0.00  0.00    +0.000 HD
BRANCH  20  22
ATOM     22  C   UNL     1       5.242   5.454  17.982  0.00  0.00    +0.000 A 
ATOM     23  C   UNL     1       5.964   5.101  19.121  0.00  0.00    +0.000 A 
ATOM     24  C   UNL     1       7.191   5.720  19.378  0.00  0.00    +0.000 A 
ATOM     25  C   UNL     1       7.664   6.705  18.511  0.00  0.00    +0.000 A 
ATOM     26  F   UNL     1       8.837   7.297  18.767  0.00  0.00    +0.000 F 
ATOM     27  C   UNL     1       6.942   7.081  17.387  0.00  0.00    +0.000 A 
ATOM     28  C   UNL     1       5.737   6.448  17.127  0.00  0.00    +0.000 A 
ATOM     29  F   UNL     1       5.023   6.806  16.048  0.00  0.00    +0.000 F 
ENDBRANCH  20  22
ENDBRANCH  17  20
ENDBRANCH   8  17
BRANCH   1  31
ATOM     30  C   UNL     1      -1.892  11.933  22.579  0.00  0.00    +0.000 C 
ATOM     31  C   UNL     1      -1.562  12.030  21.090  0.00  0.00    +0.000 C 
ENDBRANCH   1  31
TORSDOF 4
ENDMDL
MODEL 8
REMARK VINA RESULT:      -8.1      3.585      4.984
REMARK  Name = 
REMARK  6 active torsions:
REMARK  status: ('A' for Active; 'I' for Inactive)
REMARK    1  A    between atoms: C_1  and  C_2
REMARK    2  A    between atoms: C_2  and  C_3
REMARK    3  A    between atoms: C_3  and  C_4
REMARK    4  A    between atoms: C_10  and  S_11
REMARK    5  A    between atoms: S_11  and  N_14
REMARK    6  A    between atoms: N_14  and  C_15
REMARK                            x       y       z     vdW  Elec       q    Type
REMARK                         _______ _______ _______ _____ _____    ______ ____
ROOT
ATOM      1  C   UNL     1       2.846   5.478  18.796  0.00  0.00    +0.000 C 
ATOM      2  C   UNL     1       4.360   5.749  18.916  0.00  0.00    +0.000 C 
ATOM      3  N   UNL     1       2.233   6.467  17.912  0.00  0.00    +0.000 N 
ATOM      4  C   UNL     1       2.373   7.808  18.126  0.00  0.00    +0.000 C 
ATOM      5  O   UNL     1       2.904   8.512  17.273  0.00  0.00    +0.000 OA
ATOM      6  C   UNL     1       1.719   8.407  19.298  0.00  0.00    +0.000 A 
ATOM      7  C   UNL     1       1.121   9.657  19.039  0.00  0.00    +0.000 A 
ATOM      8  C   UNL     1       0.447  10.348  20.044  0.00  0.00    +0.000 A 
ATOM      9  C   UNL     1       0.395   9.825  21.331  0.00  0.00    +0.000 A 
ATOM     10  C   UNL     1       1.005   8.592  21.591  0.00  0.00    +0.000 A 
ATOM     11  C   UNL     1       1.626   7.841  20.570  0.00  0.00    +0.000 A 
ATOM     12  N   UNL     1       2.008   6.548  20.958  0.00  0.00    +0.000 N 
ATOM     13  C   UNL     1       2.303   5.428  20.242  0.00  0.00    +0.000 C 
ATOM     14  O   UNL     1       2.302   4.373  20.889  0.00  0.00    +0.000 OA
ATOM     15  H   UNL     1       2.506   6.306  16.949  0.00  0.00    +0.000 HD
ATOM     16  H   UNL     1       1.818   6.293  21.922  0.00  0.00    +0.000 HD
ENDROOT
BRANCH   8  17
ATOM     17  S   UNL     1      -0.438  11.841  19.642  0.00  0.00    +0.000 S 
ATOM     18  O   UNL     1      -0.247  12.773  20.732  0.00  0.00    +0.000 OA
ATOM     19  O   UNL     1      -0.080  12.188  18.286  0.00  0.00    +0.000 OA
BRANCH  17  20
ATOM     20  N   UNL     1      -2.056  11.346  19.599  0.00  0.00    +0.000 N 
ATOM     21  H   UNL     1      -2.627  11.968  20.171  0.00  0.00    +0.000 HD
BRANCH  20  22
ATOM     22  C   UNL     1      -2.609  11.007  18.326  0.00  0.00    +0.000 A 
ATOM     23  C   UNL     1      -1.926  10.141  17.473  0.00  0.00    +0.000 A 
ATOM     24  C   UNL     1      -2.453   9.863  16.209  0.00  0.00    +0.000 A 
ATOM     25  C   UNL     1      -3.637  10.478  15.801  0.00  0.00    +0.000 A 
ATOM     26  F   UNL     1      -4.132  10.210  14.586  0.00  0.00    +0.000 F 
ATOM     27  C   UNL     1      -4.312  11.360  16.633  0.00  0.00    +0.000 A 
ATOM     28  C   UNL     1      -3.795  11.614  17.894  0.00  0.00    +0.000 A 
ATOM     29  F   UNL     1      -4.433  12.470  18.707  0.00  0.00    +0.000 F 
ENDBRANCH  20  22
ENDBRANCH  17  20
ENDBRANCH   8  17
BRANCH   1  31
ATOM     30  C   UNL     1       3.764   3.688  17.139  0.00  0.00    +0.000 C 
ATOM     31  C   UNL     1       2.671   4.077  18.133  0.00  0.00    +0.000 C 
ENDBRANCH   1  31
TORSDOF 4
ENDMDL
MODEL 9
REMARK VINA RESULT:      -8.0      2.816      3.410
REMARK  Name = 
REMARK  6 active torsions:
REMARK  status: ('A' for Active; 'I' for Inactive)
REMARK    1  A    between atoms: C_1  and  C_2
REMARK    2  A    between atoms: C_2  and  C_3
REMARK    3  A    between atoms: C_3  and  C_4
REMARK    4  A    between atoms: C_10  and  S_11
REMARK    5  A    between atoms: S_11  and  N_14
REMARK    6  A    between atoms: N_14  and  C_15
REMARK                            x       y       z     vdW  Elec       q    Type
REMARK                         _______ _______ _______ _____ _____    ______ ____
ROOT
ATOM      1  C   UNL     1       3.764   4.716  18.912  0.00  0.00    +0.000 C 
ATOM      2  C   UNL     1       2.696   3.795  18.287  0.00  0.00    +0.000 C 
ATOM      3  N   UNL     1       3.243   5.320  20.136  0.00  0.00    +0.000 N 
ATOM      4  C   UNL     1       2.070   6.017  20.152  0.00  0.00    +0.000 C 
ATOM      5  O   UNL     1       1.144   5.640  20.863  0.00  0.00    +0.000 OA
ATOM      6  C   UNL     1       2.007   7.309  19.454  0.00  0.00    +0.000 A 
ATOM      7  C   UNL     1       1.298   8.302  20.158  0.00  0.00    +0.000 A 
ATOM      8  C   UNL     1       1.162   9.587  19.637  0.00  0.00    +0.000 A 
ATOM      9  C   UNL     1       1.693   9.890  18.388  0.00  0.00    +0.000 A 
ATOM     10  C   UNL     1       2.381   8.896  17.682  0.00  0.00    +0.000 A 
ATOM     11  C   UNL     1       2.597   7.612  18.226  0.00  0.00    +0.000 A 
ATOM     12  N   UNL     1       3.470   6.809  17.478  0.00  0.00    +0.000 N 
ATOM     13  C   UNL     1       4.189   5.697  17.796  0.00  0.00    +0.000 C 
ATOM     14  O   UNL     1       5.096   5.411  17.004  0.00  0.00    +0.000 OA
ATOM     15  H   UNL     1       3.170   4.629  20.874  0.00  0.00    +0.000 HD
ATOM     16  H   UNL     1       3.840   7.219  16.626  0.00  0.00    +0.000 HD
ENDROOT
BRANCH   8  17
ATOM     17  S   UNL     1       0.405  10.862  20.626  0.00  0.00    +0.000 S 
ATOM     18  O   UNL     1      -0.626  10.241  21.429  0.00  0.00    +0.000 OA
ATOM     19  O   UNL     1       1.479  11.613  21.234  0.00  0.00    +0.000 OA
BRANCH  17  20
ATOM     20  N   UNL     1      -0.308  11.884  19.481  0.00  0.00    +0.000 N 
ATOM     21  H   UNL     1       0.365  12.111  18.749  0.00  0.00    +0.000 HD
BRANCH  20  22
ATOM     22  C   UNL     1      -1.619  11.551  19.024  0.00  0.00    +0.000 A 
ATOM     23  C   UNL     1      -1.792  10.593  18.026  0.00  0.00    +0.000 A 
ATOM     24  C   UNL     1      -3.078  10.319  17.550  0.00  0.00    +0.000 A 
ATOM     25  C   UNL     1      -4.168  11.027  18.054  0.00  0.00    +0.000 A 
ATOM     26  F   UNL     1      -5.396  10.762  17.589  0.00  0.00    +0.000 F 
ATOM     27  C   UNL     1      -4.005  11.999  19.031  0.00  0.00    +0.000 A 
ATOM     28  C   UNL     1      -2.730  12.251  19.514  0.00  0.00    +0.000 A 
ATOM     29  F   UNL     1      -2.555  13.193  20.453  0.00  0.00    +0.000 F 
ENDBRANCH  20  22
ENDBRANCH  17  20
ENDBRANCH   8  17
BRANCH   1  31
ATOM     30  C   UNL     1       4.625   2.468  19.911  0.00  0.00    +0.000 C 
ATOM     31  C   UNL     1       4.981   3.824  19.303  0.00  0.00    +0.000 C 
ENDBRANCH   1  31
TORSDOF 4
ENDMDL
