MODEL 1
REMARK VINA RESULT:      -8.4      0.000      0.000
REMARK  Name = 
REMARK  8 active torsions:
REMARK  status: ('A' for Active; 'I' for Inactive)
REMARK    1  A    between atoms: C_1  and  C_2
REMARK    2  A    between atoms: C_5  and  C_6
REMARK    3  A    between atoms: C_7  and  C_8
REMARK    4  A    between atoms: N_10  and  C_11
REMARK    5  A    between atoms: N_10  and  C_22
REMARK    6  A    between atoms: C_11  and  C_12
REMARK    7  A    between atoms: N_14  and  C_15
REMARK    8  A    between atoms: C_22  and  C_23
REMARK                            x       y       z     vdW  Elec       q    Type
REMARK                         _______ _______ _______ _____ _____    ______ ____
ROOT
ATOM      1  C   UNL     1       5.390   5.354  18.870  0.00  0.00    +0.000 C 
ATOM      2  O   UNL     1       5.920   4.664  19.746  0.00  0.00    +0.000 OA
ATOM      3  N   UNL     1       4.025   5.680  19.017  0.00  0.00    +0.000 N 
ENDROOT
BRANCH   1  10
ATOM      4  C   UNL     1       5.473   3.913  15.965  0.00  0.00    +0.000 C 
ATOM      5  C   UNL     1       6.213   5.115  16.430  0.00  0.00    +0.000 A 
ATOM      6  N   UNL     1       7.047   5.701  15.568  0.00  0.00    +0.000 NA
ATOM      7  O   UNL     1       7.701   6.661  16.284  0.00  0.00    +0.000 OA
ATOM      8  C   UNL     1       7.281   6.652  17.578  0.00  0.00    +0.000 A 
ATOM      9  C   UNL     1       8.109   7.530  18.424  0.00  0.00    +0.000 C 
ATOM     10  C   UNL     1       6.229   5.759  17.729  0.00  0.00    +0.000 A 
ENDBRANCH   1  10
BRANCH   3  11
ATOM     11  C   UNL     1       3.142   6.260  18.002  0.00  0.00    +0.000 C 
BRANCH  11  12
ATOM     12  C   UNL     1       2.692   7.745  18.104  0.00  0.00    +0.000 C 
ATOM     13  O   UNL     1       3.018   8.519  17.203  0.00  0.00    +0.000 OA
ATOM     14  N   UNL     1       1.941   8.126  19.205  0.00  0.00    +0.000 N 
ATOM     15  H   UNL     1       2.020   7.566  20.048  0.00  0.00    +0.000 HD
BRANCH  14  16
ATOM     16  C   UNL     1       1.270   9.382  19.340  0.00  0.00    +0.000 A 
ATOM     17  C   UNL     1       1.481  10.432  18.435  0.00  0.00    +0.000 A 
ATOM     18  C   UNL     1       0.759  11.630  18.524  0.00  0.00    +0.000 A 
ATOM     19  C   UNL     1      -0.184  11.811  19.529  0.00  0.00    +0.000 A 
ATOM     20  C   UNL     1      -0.394  10.794  20.455  0.00  0.00    +0.000 A 
ATOM     21  C   UNL     1       0.324   9.589  20.362  0.00  0.00    +0.000 A 
ATOM     22 BR   UNL     1       0.038   8.284  21.714  0.00  0.00    +0.000 Br
ENDBRANCH  14  16
ENDBRANCH  11  12
ENDBRANCH   3  11
BRANCH   3  23
ATOM     23  C   UNL     1       3.338   5.128  20.199  0.00  0.00    +0.000 C 
BRANCH  23  24
ATOM     24  C   UNL     1       2.394   4.003  19.892  0.00  0.00    +0.000 A 
ATOM     25  C   UNL     1       1.012   3.885  19.933  0.00  0.00    +0.000 A 
ATOM     26  C   UNL     1       0.692   2.648  19.327  0.00  0.00    +0.000 A 
ATOM     27  C   UNL     1       1.889   2.072  18.972  0.00  0.00    +0.000 A 
ATOM     28  O   UNL     1       2.928   2.882  19.316  0.00  0.00    +0.000 OA
ENDBRANCH  23  24
ENDBRANCH   3  23
TORSDOF 6
ENDMDL
MODEL 2
REMARK VINA RESULT:      -8.3      1.841      2.678
REMARK  Name = 
REMARK  8 active torsions:
REMARK  status: ('A' for Active; 'I' for Inactive)
REMARK    1  A    between atoms: C_1  and  C_2
REMARK    2  A    between atoms: C_5  and  C_6
REMARK    3  A    between atoms: C_7  and  C_8
REMARK    4  A    between atoms: N_10  and  C_11
REMARK    5  A    between atoms: N_10  and  C_22
REMARK    6  A    between atoms: C_11  and  C_12
REMARK    7  A    between atoms: N_14  and  C_15
REMARK    8  A    between atoms: C_22  and  C_23
REMARK                            x       y       z     vdW  Elec       q    Type
REMARK                         _______ _______ _______ _____ _____    ______ ____
ROOT
ATOM      1  C   UNL     1       4.162   4.020  17.324  0.00  0.00    +0.000 C 
ATOM      2  O   UNL     1       3.766   2.854  17.238  0.00  0.00    +0.000 OA
ATOM      3  N   UNL     1       3.246   5.001  17.761  0.00  0.00    +0.000 N 
ENDROOT
BRANCH   1  10
ATOM      4  C   UNL     1       6.452   5.289  19.239  0.00  0.00    +0.000 C 
ATOM      5  C   UNL     1       6.567   4.823  17.833  0.00  0.00    +0.000 A 
ATOM      6  N   UNL     1       7.755   4.941  17.236  0.00  0.00    +0.000 NA
ATOM      7  O   UNL     1       7.548   4.597  15.932  0.00  0.00    +0.000 OA
ATOM      8  C   UNL     1       6.239   4.285  15.729  0.00  0.00    +0.000 A 
ATOM      9  C   UNL     1       5.938   4.109  14.298  0.00  0.00    +0.000 C 
ATOM     10  C   UNL     1       5.557   4.290  16.938  0.00  0.00    +0.000 A 
ENDBRANCH   1  10
BRANCH   3  11
ATOM     11  C   UNL     1       3.415   6.455  17.700  0.00  0.00    +0.000 C 
BRANCH  11  12
ATOM     12  C   UNL     1       2.301   7.402  18.230  0.00  0.00    +0.000 C 
ATOM     13  O   UNL     1       1.354   7.666  17.487  0.00  0.00    +0.000 OA
ATOM     14  N   UNL     1       2.426   7.902  19.516  0.00  0.00    +0.000 N 
ATOM     15  H   UNL     1       3.357   7.949  19.918  0.00  0.00    +0.000 HD
BRANCH  14  16
ATOM     16  C   UNL     1       1.396   8.597  20.225  0.00  0.00    +0.000 A 
ATOM     17  C   UNL     1       0.689   7.996  21.275  0.00  0.00    +0.000 A 
ATOM     18  C   UNL     1      -0.260   8.709  22.020  0.00  0.00    +0.000 A 
ATOM     19  C   UNL     1      -0.534  10.040  21.723  0.00  0.00    +0.000 A 
ATOM     20  C   UNL     1       0.136  10.651  20.669  0.00  0.00    +0.000 A 
ATOM     21  C   UNL     1       1.094   9.940  19.926  0.00  0.00    +0.000 A 
ATOM     22 BR   UNL     1       1.903  10.824  18.451  0.00  0.00    +0.000 Br
ENDBRANCH  14  16
ENDBRANCH  11  12
ENDBRANCH   3  11
BRANCH   3  23
ATOM     23  C   UNL     1       1.873   4.544  18.043  0.00  0.00    +0.000 C 
BRANCH  23  24
ATOM     24  C   UNL     1       1.671   4.028  19.437  0.00  0.00    +0.000 A 
ATOM     25  C   UNL     1       1.007   2.924  19.954  0.00  0.00    +0.000 A 
ATOM     26  C   UNL     1       1.347   2.852  21.325  0.00  0.00    +0.000 A 
ATOM     27  C   UNL     1       2.175   3.921  21.573  0.00  0.00    +0.000 A 
ATOM     28  O   UNL     1       2.373   4.644  20.437  0.00  0.00    +0.000 OA
ENDBRANCH  23  24
ENDBRANCH   3  23
TORSDOF 6
ENDMDL
MODEL 3
REMARK VINA RESULT:      -8.2      1.464      1.716
REMARK  Name = 
REMARK  8 active torsions:
REMARK  status: ('A' for Active; 'I' for Inactive)
REMARK    1  A    between atoms: C_1  and  C_2
REMARK    2  A    between atoms: C_5  and  C_6
REMARK    3  A    between atoms: C_7  and  C_8
REMARK    4  A    between atoms: N_10  and  C_11
REMARK    5  A    between atoms: N_10  and  C_22
REMARK    6  A    between atoms: C_11  and  C_12
REMARK    7  A    between atoms: N_14  and  C_15
REMARK    8  A    between atoms: C_22  and  C_23
REMARK                            x       y       z     vdW  Elec       q    Type
REMARK                         _______ _______ _______ _____ _____    ______ ____
ROOT
ATOM      1  C   UNL     1       4.151   4.560  17.103  0.00  0.00    +0.000 C 
ATOM      2  O   UNL     1       3.606   3.551  16.648  0.00  0.00    +0.000 OA
ATOM      3  N   UNL     1       3.382   5.422  17.913  0.00  0.00    +0.000 N 
ENDROOT
BRANCH   1  10
ATOM      4  C   UNL     1       5.461   4.066  14.177  0.00  0.00    +0.000 C 
ATOM      5  C   UNL     1       6.104   4.594  15.407  0.00  0.00    +0.000 A 
ATOM      6  N   UNL     1       7.401   4.904  15.346  0.00  0.00    +0.000 NA
ATOM      7  O   UNL     1       7.769   5.207  16.624  0.00  0.00    +0.000 OA
ATOM      8  C   UNL     1       6.709   5.067  17.465  0.00  0.00    +0.000 A 
ATOM      9  C   UNL     1       7.116   5.184  18.877  0.00  0.00    +0.000 C 
ATOM     10  C   UNL     1       5.560   4.789  16.738  0.00  0.00    +0.000 A 
ENDBRANCH   1  10
BRANCH   3  11
ATOM     11  C   UNL     1       3.737   6.777  18.344  0.00  0.00    +0.000 C 
BRANCH  11  12
ATOM     12  C   UNL     1       2.721   7.944  18.195  0.00  0.00    +0.000 C 
ATOM     13  O   UNL     1       2.552   8.434  17.076  0.00  0.00    +0.000 OA
ATOM     14  N   UNL     1       2.051   8.377  19.328  0.00  0.00    +0.000 N 
ATOM     15  H   UNL     1       2.482   8.200  20.230  0.00  0.00    +0.000 HD
BRANCH  14  16
ATOM     16  C   UNL     1       0.939   9.277  19.324  0.00  0.00    +0.000 A 
ATOM     17  C   UNL     1       0.362   9.733  18.131  0.00  0.00    +0.000 A 
ATOM     18  C   UNL     1      -0.778  10.548  18.134  0.00  0.00    +0.000 A 
ATOM     19  C   UNL     1      -1.363  10.937  19.334  0.00  0.00    +0.000 A 
ATOM     20  C   UNL     1      -0.794  10.519  20.533  0.00  0.00    +0.000 A 
ATOM     21  C   UNL     1       0.345   9.695  20.531  0.00  0.00    +0.000 A 
ATOM     22 BR   UNL     1       1.107   9.238  22.211  0.00  0.00    +0.000 Br
ENDBRANCH  14  16
ENDBRANCH  11  12
ENDBRANCH   3  11
BRANCH   3  23
ATOM     23  C   UNL     1       1.968   5.054  18.114  0.00  0.00    +0.000 C 
BRANCH  23  24
ATOM     24  C   UNL     1       1.704   4.303  19.386  0.00  0.00    +0.000 A 
ATOM     25  C   UNL     1       0.997   3.145  19.675  0.00  0.00    +0.000 A 
ATOM     26  C   UNL     1       1.285   2.819  21.020  0.00  0.00    +0.000 A 
ATOM     27  C   UNL     1       2.128   3.802  21.483  0.00  0.00    +0.000 A 
ATOM     28  O   UNL     1       2.383   4.711  20.502  0.00  0.00    +0.000 OA
ENDBRANCH  23  24
ENDBRANCH   3  23
TORSDOF 6
ENDMDL
MODEL 4
REMARK VINA RESULT:      -8.1      1.745      2.233
REMARK  Name = 
REMARK  8 active torsions:
REMARK  status: ('A' for Active; 'I' for Inactive)
REMARK    1  A    between atoms: C_1  and  C_2
REMARK    2  A    between atoms: C_5  and  C_6
REMARK    3  A    between atoms: C_7  and  C_8
REMARK    4  A    between atoms: N_10  and  C_11
REMARK    5  A    between atoms: N_10  and  C_22
REMARK    6  A    between atoms: C_11  and  C_12
REMARK    7  A    between atoms: N_14  and  C_15
REMARK    8  A    between atoms: C_22  and  C_23
REMARK                            x       y       z     vdW  Elec       q    Type
REMARK                         _______ _______ _______ _____ _____    ______ ____
ROOT
ATOM      1  C   UNL     1       4.177   4.710  17.307  0.00  0.00    +0.000 C 
ATOM      2  O   UNL     1       3.868   3.520  17.194  0.00  0.00    +0.000 OA
ATOM      3  N   UNL     1       3.183   5.616  17.733  0.00  0.00    +0.000 N 
ENDROOT
BRANCH   1  10
ATOM      4  C   UNL     1       5.558   4.389  14.389  0.00  0.00    +0.000 C 
ATOM      5  C   UNL     1       6.133   4.962  15.633  0.00  0.00    +0.000 A 
ATOM      6  N   UNL     1       7.392   5.402  15.589  0.00  0.00    +0.000 NA
ATOM      7  O   UNL     1       7.716   5.723  16.875  0.00  0.00    +0.000 OA
ATOM      8  C   UNL     1       6.667   5.466  17.703  0.00  0.00    +0.000 A 
ATOM      9  C   UNL     1       7.047   5.604  19.120  0.00  0.00    +0.000 C 
ATOM     10  C   UNL     1       5.559   5.084  16.960  0.00  0.00    +0.000 A 
ENDBRANCH   1  10
BRANCH   3  11
ATOM     11  C   UNL     1       3.250   7.080  17.696  0.00  0.00    +0.000 C 
BRANCH  11  12
ATOM     12  C   UNL     1       2.106   7.937  18.307  0.00  0.00    +0.000 C 
ATOM     13  O   UNL     1       1.117   8.176  17.611  0.00  0.00    +0.000 OA
ATOM     14  N   UNL     1       2.253   8.391  19.608  0.00  0.00    +0.000 N 
ATOM     15  H   UNL     1       3.195   8.476  19.977  0.00  0.00    +0.000 HD
BRANCH  14  16
ATOM     16  C   UNL     1       1.214   8.995  20.384  0.00  0.00    +0.000 A 
ATOM     17  C   UNL     1       0.534   8.288  21.384  0.00  0.00    +0.000 A 
ATOM     18  C   UNL     1      -0.425   8.909  22.196  0.00  0.00    +0.000 A 
ATOM     19  C   UNL     1      -0.735  10.252  22.019  0.00  0.00    +0.000 A 
ATOM     20  C   UNL     1      -0.092  10.970  21.016  0.00  0.00    +0.000 A 
ATOM     21  C   UNL     1       0.875  10.350  20.205  0.00  0.00    +0.000 A 
ATOM     22 BR   UNL     1       1.645  11.379  18.805  0.00  0.00    +0.000 Br
ENDBRANCH  14  16
ENDBRANCH  11  12
ENDBRANCH   3  11
BRANCH   3  23
ATOM     23  C   UNL     1       1.839   5.059  17.973  0.00  0.00    +0.000 C 
BRANCH  23  24
ATOM     24  C   UNL     1       1.673   4.415  19.318  0.00  0.00    +0.000 A 
ATOM     25  C   UNL     1       1.036   3.258  19.744  0.00  0.00    +0.000 A 
ATOM     26  C   UNL     1       1.404   3.066  21.095  0.00  0.00    +0.000 A 
ATOM     27  C   UNL     1       2.222   4.121  21.425  0.00  0.00    +0.000 A 
ATOM     28  O   UNL     1       2.386   4.948  20.357  0.00  0.00    +0.000 OA
ENDBRANCH  23  24
ENDBRANCH   3  23
TORSDOF 6
ENDMDL
MODEL 5
REMARK VINA RESULT:      -8.0      1.880      2.344
REMARK  Name = 
REMARK  8 active torsions:
REMARK  status: ('A' for Active; 'I' for Inactive)
REMARK    1  A    between atoms: C_1  and  C_2
REMARK    2  A    between atoms: C_5  and  C_6
REMARK    3  A    between atoms: C_7  and  C_8
REMARK    4  A    between atoms: N_10  and  C_11
REMARK    5  A    between atoms: N_10  and  C_22
REMARK    6  A    between atoms: C_11  and  C_12
REMARK    7  A    between atoms: N_14  and  C_15
REMARK    8  A    between atoms: C_22  and  C_23
REMARK                            x       y       z     vdW  Elec       q    Type
REMARK                         _______ _______ _______ _____ _____    ______ ____
ROOT
ATOM      1  C   UNL     1       4.313   4.530  17.196  0.00  0.00    +0.000 C 
ATOM      2  O   UNL     1       4.091   3.361  16.869  0.00  0.00    +0.000 OA
ATOM      3  N   UNL     1       3.320   5.214  17.929  0.00  0.00    +0.000 N 
ENDROOT
BRANCH   1  10
ATOM      4  C   UNL     1       5.561   4.398  14.205  0.00  0.00    +0.000 C 
ATOM      5  C   UNL     1       6.104   5.075  15.411  0.00  0.00    +0.000 A 
ATOM      6  N   UNL     1       7.270   5.713  15.293  0.00  0.00    +0.000 NA
ATOM      7  O   UNL     1       7.609   6.100  16.556  0.00  0.00    +0.000 OA
ATOM      8  C   UNL     1       6.665   5.687  17.444  0.00  0.00    +0.000 A 
ATOM      9  C   UNL     1       7.096   5.905  18.837  0.00  0.00    +0.000 C 
ATOM     10  C   UNL     1       5.594   5.119  16.768  0.00  0.00    +0.000 A 
ENDBRANCH   1  10
BRANCH   3  11
ATOM     11  C   UNL     1       3.258   6.653  18.201  0.00  0.00    +0.000 C 
BRANCH  11  12
ATOM     12  C   UNL     1       2.376   7.200  19.358  0.00  0.00    +0.000 C 
ATOM     13  O   UNL     1       2.347   6.573  20.419  0.00  0.00    +0.000 OA
ATOM     14  N   UNL     1       1.666   8.370  19.142  0.00  0.00    +0.000 N 
ATOM     15  H   UNL     1       1.447   8.621  18.183  0.00  0.00    +0.000 HD
BRANCH  14  16
ATOM     16  C   UNL     1       0.991   9.116  20.160  0.00  0.00    +0.000 A 
ATOM     17  C   UNL     1       0.409   8.489  21.270  0.00  0.00    +0.000 A 
ATOM     18  C   UNL     1      -0.177   9.230  22.304  0.00  0.00    +0.000 A 
ATOM     19  C   UNL     1      -0.206  10.619  22.247  0.00  0.00    +0.000 A 
ATOM     20  C   UNL     1       0.343  11.264  21.144  0.00  0.00    +0.000 A 
ATOM     21  C   UNL     1       0.938  10.522  20.109  0.00  0.00    +0.000 A 
ATOM     22 BR   UNL     1       1.590  11.476  18.600  0.00  0.00    +0.000 Br
ENDBRANCH  14  16
ENDBRANCH  11  12
ENDBRANCH   3  11
BRANCH   3  23
ATOM     23  C   UNL     1       2.077   4.473  18.209  0.00  0.00    +0.000 C 
BRANCH  23  24
ATOM     24  C   UNL     1       2.113   3.669  19.476  0.00  0.00    +0.000 A 
ATOM     25  C   UNL     1       3.146   3.127  20.227  0.00  0.00    +0.000 A 
ATOM     26  C   UNL     1       2.570   2.659  21.430  0.00  0.00    +0.000 A 
ATOM     27  C   UNL     1       1.223   2.918  21.339  0.00  0.00    +0.000 A 
ATOM     28  O   UNL     1       0.934   3.525  20.155  0.00  0.00    +0.000 OA
ENDBRANCH  23  24
ENDBRANCH   3  23
TORSDOF 6
ENDMDL
MODEL 6
REMARK VINA RESULT:      -8.0      1.856      2.222
REMARK  Name = 
REMARK  8 active torsions:
REMARK  status: ('A' for Active; 'I' for Inactive)
REMARK    1  A    between atoms: C_1  and  C_2
REMARK    2  A    between atoms: C_5  and  C_6
REMARK    3  A    between atoms: C_7  and  C_8
REMARK    4  A    between atoms: N_10  and  C_11
REMARK    5  A    between atoms: N_10  and  C_22
REMARK    6  A    between atoms: C_11  and  C_12
REMARK    7  A    between atoms: N_14  and  C_15
REMARK    8  A    between atoms: C_22  and  C_23
REMARK                            x       y       z     vdW  Elec       q    Type
REMARK                         _______ _______ _______ _____ _____    ______ ____
ROOT
ATOM      1  C   UNL     1       4.087   4.793  17.514  0.00  0.00    +0.000 C 
ATOM      2  O   UNL     1       3.849   3.589  17.385  0.00  0.00    +0.000 OA
ATOM      3  N   UNL     1       3.029   5.640  17.910  0.00  0.00    +0.000 N 
ENDROOT
BRANCH   1  10
ATOM      4  C   UNL     1       5.471   4.875  14.581  0.00  0.00    +0.000 C 
ATOM      5  C   UNL     1       6.031   5.306  15.888  0.00  0.00    +0.000 A 
ATOM      6  N   UNL     1       7.278   5.784  15.900  0.00  0.00    +0.000 NA
ATOM      7  O   UNL     1       7.595   5.952  17.217  0.00  0.00    +0.000 OA
ATOM      8  C   UNL     1       6.555   5.566  18.005  0.00  0.00    +0.000 A 
ATOM      9  C   UNL     1       6.934   5.538  19.429  0.00  0.00    +0.000 C 
ATOM     10  C   UNL     1       5.457   5.246  17.219  0.00  0.00    +0.000 A 
ENDBRANCH   1  10
BRANCH   3  11
ATOM     11  C   UNL     1       3.015   7.105  17.882  0.00  0.00    +0.000 C 
BRANCH  11  12
ATOM     12  C   UNL     1       2.247   7.907  18.971  0.00  0.00    +0.000 C 
ATOM     13  O   UNL     1       2.350   7.547  20.145  0.00  0.00    +0.000 OA
ATOM     14  N   UNL     1       1.485   8.991  18.567  0.00  0.00    +0.000 N 
ATOM     15  H   UNL     1       1.157   9.009  17.607  0.00  0.00    +0.000 HD
BRANCH  14  16
ATOM     16  C   UNL     1       0.903   9.954  19.452  0.00  0.00    +0.000 A 
ATOM     17  C   UNL     1      -0.001   9.581  20.456  0.00  0.00    +0.000 A 
ATOM     18  C   UNL     1      -0.503  10.516  21.371  0.00  0.00    +0.000 A 
ATOM     19  C   UNL     1      -0.123  11.851  21.295  0.00  0.00    +0.000 A 
ATOM     20  C   UNL     1       0.753  12.251  20.291  0.00  0.00    +0.000 A 
ATOM     21  C   UNL     1       1.263  11.313  19.377  0.00  0.00    +0.000 A 
ATOM     22 BR   UNL     1       2.388  11.957  17.986  0.00  0.00    +0.000 Br
ENDBRANCH  14  16
ENDBRANCH  11  12
ENDBRANCH   3  11
BRANCH   3  23
ATOM     23  C   UNL     1       1.711   5.007  18.099  0.00  0.00    +0.000 C 
BRANCH  23  24
ATOM     24  C   UNL     1       1.589   4.210  19.364  0.00  0.00    +0.000 A 
ATOM     25  C   UNL     1       1.055   2.962  19.652  0.00  0.00    +0.000 A 
ATOM     26  C   UNL     1       1.424   2.660  20.984  0.00  0.00    +0.000 A 
ATOM     27  C   UNL     1       2.138   3.743  21.440  0.00  0.00    +0.000 A 
ATOM     28  O   UNL     1       2.239   4.691  20.469  0.00  0.00    +0.000 OA
ENDBRANCH  23  24
ENDBRANCH   3  23
TORSDOF 6
ENDMDL
MODEL 7
REMARK VINA RESULT:      -7.9      1.819      2.062
REMARK  Name = 
REMARK  8 active torsions:
REMARK  status: ('A' for Active; 'I' for Inactive)
REMARK    1  A    between atoms: C_1  and  C_2
REMARK    2  A    between atoms: C_5  and  C_6
REMARK    3  A    between atoms: C_7  and  C_8
REMARK    4  A    between atoms: N_10  and  C_11
REMARK    5  A    between atoms: N_10  and  C_22
REMARK    6  A    between atoms: C_11  and  C_12
REMARK    7  A    between atoms: N_14  and  C_15
REMARK    8  A    between atoms: C_22  and  C_23
REMARK                            x       y       z     vdW  Elec       q    Type
REMARK                         _______ _______ _______ _____ _____    ______ ____
ROOT
ATOM      1  C   UNL     1       4.084   4.871  17.488  0.00  0.00    +0.000 C 
ATOM      2  O   UNL     1       3.817   3.680  17.303  0.00  0.00    +0.000 OA
ATOM      3  N   UNL     1       3.049   5.722  17.931  0.00  0.00    +0.000 N 
ENDROOT
BRANCH   1  10
ATOM      4  C   UNL     1       5.505   4.901  14.572  0.00  0.00    +0.000 C 
ATOM      5  C   UNL     1       6.054   5.343  15.880  0.00  0.00    +0.000 A 
ATOM      6  N   UNL     1       7.306   5.807  15.903  0.00  0.00    +0.000 NA
ATOM      7  O   UNL     1       7.608   5.988  17.221  0.00  0.00    +0.000 OA
ATOM      8  C   UNL     1       6.555   5.622  18.000  0.00  0.00    +0.000 A 
ATOM      9  C   UNL     1       6.915   5.608  19.429  0.00  0.00    +0.000 C 
ATOM     10  C   UNL     1       5.463   5.306  17.204  0.00  0.00    +0.000 A 
ENDBRANCH   1  10
BRANCH   3  11
ATOM     11  C   UNL     1       3.069   7.187  17.974  0.00  0.00    +0.000 C 
BRANCH  11  12
ATOM     12  C   UNL     1       2.146   7.960  18.956  0.00  0.00    +0.000 C 
ATOM     13  O   UNL     1       2.164   7.646  20.148  0.00  0.00    +0.000 OA
ATOM     14  N   UNL     1       1.346   8.969  18.444  0.00  0.00    +0.000 N 
ATOM     15  H   UNL     1       1.109   8.931  17.458  0.00  0.00    +0.000 HD
BRANCH  14  16
ATOM     16  C   UNL     1       0.614   9.911  19.234  0.00  0.00    +0.000 A 
ATOM     17  C   UNL     1       1.115  10.403  20.447  0.00  0.00    +0.000 A 
ATOM     18  C   UNL     1       0.432  11.387  21.175  0.00  0.00    +0.000 A 
ATOM     19  C   UNL     1      -0.777  11.894  20.712  0.00  0.00    +0.000 A 
ATOM     20  C   UNL     1      -1.308  11.403  19.524  0.00  0.00    +0.000 A 
ATOM     21  C   UNL     1      -0.621  10.421  18.789  0.00  0.00    +0.000 A 
ATOM     22 BR   UNL     1      -1.455   9.745  17.221  0.00  0.00    +0.000 Br
ENDBRANCH  14  16
ENDBRANCH  11  12
ENDBRANCH   3  11
BRANCH   3  23
ATOM     23  C   UNL     1       1.718   5.111  18.100  0.00  0.00    +0.000 C 
BRANCH  23  24
ATOM     24  C   UNL     1       1.567   4.305  19.356  0.00  0.00    +0.000 A 
ATOM     25  C   UNL     1       0.905   3.122  19.651  0.00  0.00    +0.000 A 
ATOM     26  C   UNL     1       1.303   2.749  20.956  0.00  0.00    +0.000 A 
ATOM     27  C   UNL     1       2.161   3.730  21.392  0.00  0.00    +0.000 A 
ATOM     28  O   UNL     1       2.323   4.682  20.433  0.00  0.00    +0.000 OA
ENDBRANCH  23  24
ENDBRANCH   3  23
TORSDOF 6
ENDMDL
MODEL 8
REMARK VINA RESULT:      -7.8      1.895      2.177
REMARK  Name = 
REMARK  8 active torsions:
REMARK  status: ('A' for Active; 'I' for Inactive)
REMARK    1  A    between atoms: C_1  and  C_2
REMARK    2  A    between atoms: C_5  and  C_6
REMARK    3  A    between atoms: C_7  and  C_8
REMARK    4  A    between atoms: N_10  and  C_11
REMARK    5  A    between atoms: N_10  and  C_22
REMARK    6  A    between atoms: C_11  and  C_12
REMARK    7  A    between atoms: N_14  and  C_15
REMARK    8  A    between atoms: C_22  and  C_23
REMARK                            x       y       z     vdW  Elec       q    Type
REMARK                         _______ _______ _______ _____ _____    ______ ____
ROOT
ATOM      1  C   UNL     1       4.243   4.966  17.237  0.00  0.00    +0.000 C 
ATOM      2  O   UNL     1       3.938   3.776  17.117  0.00  0.00    +0.000 OA
ATOM      3  N   UNL     1       3.286   5.844  17.789  0.00  0.00    +0.000 N 
ENDROOT
BRANCH   1  10
ATOM      4  C   UNL     1       5.419   4.534  14.245  0.00  0.00    +0.000 C 
ATOM      5  C   UNL     1       6.059   5.197  15.410  0.00  0.00    +0.000 A 
ATOM      6  N   UNL     1       7.293   5.681  15.248  0.00  0.00    +0.000 NA
ATOM      7  O   UNL     1       7.696   6.085  16.487  0.00  0.00    +0.000 OA
ATOM      8  C   UNL     1       6.722   5.836  17.404  0.00  0.00    +0.000 A 
ATOM      9  C   UNL     1       7.199   6.067  18.779  0.00  0.00    +0.000 C 
ATOM     10  C   UNL     1       5.579   5.371  16.768  0.00  0.00    +0.000 A 
ENDBRANCH   1  10
BRANCH   3  11
ATOM     11  C   UNL     1       3.331   7.309  17.794  0.00  0.00    +0.000 C 
BRANCH  11  12
ATOM     12  C   UNL     1       2.198   8.131  18.469  0.00  0.00    +0.000 C 
ATOM     13  O   UNL     1       1.992   7.965  19.672  0.00  0.00    +0.000 OA
ATOM     14  N   UNL     1       1.475   9.014  17.684  0.00  0.00    +0.000 N 
ATOM     15  H   UNL     1       1.441   8.841  16.684  0.00  0.00    +0.000 HD
BRANCH  14  16
ATOM     16  C   UNL     1       0.560   9.993  18.187  0.00  0.00    +0.000 A 
ATOM     17  C   UNL     1      -0.778   9.679  18.463  0.00  0.00    +0.000 A 
ATOM     18  C   UNL     1      -1.647  10.619  19.033  0.00  0.00    +0.000 A 
ATOM     19  C   UNL     1      -1.200  11.902  19.329  0.00  0.00    +0.000 A 
ATOM     20  C   UNL     1       0.116  12.246  19.041  0.00  0.00    +0.000 A 
ATOM     21  C   UNL     1       0.991  11.302  18.476  0.00  0.00    +0.000 A 
ATOM     22 BR   UNL     1       2.748  11.878  18.036  0.00  0.00    +0.000 Br
ENDBRANCH  14  16
ENDBRANCH  11  12
ENDBRANCH   3  11
BRANCH   3  23
ATOM     23  C   UNL     1       1.979   5.259  18.142  0.00  0.00    +0.000 C 
BRANCH  23  24
ATOM     24  C   UNL     1       1.986   4.464  19.414  0.00  0.00    +0.000 A 
ATOM     25  C   UNL     1       2.588   4.654  20.650  0.00  0.00    +0.000 A 
ATOM     26  C   UNL     1       2.054   3.673  21.517  0.00  0.00    +0.000 A 
ATOM     27  C   UNL     1       1.178   2.929  20.763  0.00  0.00    +0.000 A 
ATOM     28  O   UNL     1       1.134   3.395  19.485  0.00  0.00    +0.000 OA
ENDBRANCH  23  24
ENDBRANCH   3  23
TORSDOF 6
ENDMDL
MODEL 9
REMARK VINA RESULT:      -7.7      0.782      1.698
REMARK  Name = 
REMARK  8 active torsions:
REMARK  status: ('A' for Active; 'I' for Inactive)
REMARK    1  A    between atoms: C_1  and  C_2
REMARK    2  A    between atoms: C_5  and  C_6
REMARK    3  A    between atoms: C_7  and  C_8
REMARK    4  A    between atoms: N_10  and  C_11
REMARK    5  A    between atoms: N_10  and  C_22
REMARK    6  A    between atoms: C_11  and  C_12
REMARK    7  A    between atoms: N_14  and  C_15
REMARK    8  A    between atoms: C_22  and  C_23
REMARK                            x       y       z     vdW  Elec       q    Type
REMARK                         _______ _______ _______ _____ _____    ______ ____
ROOT
ATOM      1  C   UNL     1       5.392   5.340  18.539  0.00  0.00    +0.000 C 
ATOM      2  O   UNL     1       5.860   4.615  19.422  0.00  0.00    +0.000 OA
ATOM      3  N   UNL     1       4.115   5.903  18.750  0.00  0.00    +0.000 N 
ENDROOT
BRANCH   1  10
ATOM      4  C   UNL     1       7.796   7.490  18.187  0.00  0.00    +0.000 C 
ATOM      5  C   UNL     1       7.298   6.482  17.216  0.00  0.00    +0.000 A 
ATOM      6  N   UNL     1       7.884   6.434  16.017  0.00  0.00    +0.000 NA
ATOM      7  O   UNL     1       7.148   5.552  15.282  0.00  0.00    +0.000 OA
ATOM      8  C   UNL     1       6.109   5.075  16.020  0.00  0.00    +0.000 A 
ATOM      9  C   UNL     1       5.177   4.283  15.198  0.00  0.00    +0.000 C 
ATOM     10  C   UNL     1       6.203   5.537  17.326  0.00  0.00    +0.000 A 
ENDBRANCH   1  10
BRANCH   3  11
ATOM     11  C   UNL     1       3.271   6.573  17.757  0.00  0.00    +0.000 C 
BRANCH  11  12
ATOM     12  C   UNL     1       2.655   7.968  18.058  0.00  0.00    +0.000 C 
ATOM     13  O   UNL     1       3.031   8.932  17.387  0.00  0.00    +0.000 OA
ATOM     14  N   UNL     1       1.710   8.061  19.067  0.00  0.00    +0.000 N 
ATOM     15  H   UNL     1       1.718   7.349  19.791  0.00  0.00    +0.000 HD
BRANCH  14  16
ATOM     16  C   UNL     1       0.896   9.210  19.319  0.00  0.00    +0.000 A 
ATOM     17  C   UNL     1       0.255   9.903  18.283  0.00  0.00    +0.000 A 
ATOM     18  C   UNL     1      -0.607  10.976  18.544  0.00  0.00    +0.000 A 
ATOM     19  C   UNL     1      -0.840  11.391  19.850  0.00  0.00    +0.000 A 
ATOM     20  C   UNL     1      -0.196  10.736  20.895  0.00  0.00    +0.000 A 
ATOM     21  C   UNL     1       0.663   9.655  20.635  0.00  0.00    +0.000 A 
ATOM     22 BR   UNL     1       1.566   8.869  22.112  0.00  0.00    +0.000 Br
ENDBRANCH  14  16
ENDBRANCH  11  12
ENDBRANCH   3  11
BRANCH   3  23
ATOM     23  C   UNL     1       3.431   5.538  20.004  0.00  0.00    +0.000 C 
BRANCH  23  24
ATOM     24  C   UNL     1       2.461   4.402  19.868  0.00  0.00    +0.000 A 
ATOM     25  C   UNL     1       1.208   4.153  20.409  0.00  0.00    +0.000 A 
ATOM     26  C   UNL     1       0.697   3.015  19.743  0.00  0.00    +0.000 A 
ATOM     27  C   UNL     1       1.669   2.620  18.854  0.00  0.00    +0.000 A 
ATOM     28  O   UNL     1       2.746   3.450  18.926  0.00  0.00    +0.000 OA
ENDBRANCH  23  24
ENDBRANCH   3  23
TORSDOF 6
ENDMDL
