MODEL 1
REMARK VINA RESULT:      -7.8      0.000      0.000
REMARK  Name = 
REMARK  14 active torsions:
REMARK  status: ('A' for Active; 'I' for Inactive)
REMARK    1  A    between atoms: C_1  and  O_2
REMARK    2  A    between atoms: O_2  and  C_3
REMARK    3  A    between atoms: C_8  and  C_9
REMARK    4  A    between atoms: C_11  and  S_12
REMARK    5  A    between atoms: S_12  and  C_13
REMARK    6  A    between atoms: C_13  and  C_14
REMARK    7  A    between atoms: N_16  and  N_17
REMARK    8  A    between atoms: C_18  and  C_19
REMARK    9  A    between atoms: C_21  and  O_22
REMARK   10  A    between atoms: O_22  and  C_23
REMARK   11  A    between atoms: C_24  and  O_25
REMARK   12  A    between atoms: O_25  and  C_26
REMARK   13  A    between atoms: C_27  and  O_28
REMARK   14  A    between atoms: O_28  and  C_29
REMARK                            x       y       z     vdW  Elec       q    Type
REMARK                         _______ _______ _______ _____ _____    ______ ____
ROOT
ATOM      1  C   UNL     1       7.093   5.897  18.640  0.00  0.00    +0.000 C 
ATOM      2  O   UNL     1       6.971   5.935  19.865  0.00  0.00    +0.000 OA
ATOM      3  N   UNL     1       7.708   6.877  17.869  0.00  0.00    +0.000 N 
ATOM      4  H   UNL     1       7.858   6.739  16.875  0.00  0.00    +0.000 HD
ENDROOT
BRANCH   3   5
ATOM      5  N   UNL     1       8.285   7.926  18.506  0.00  0.00    +0.000 NA
ATOM      6  C   UNL     1       8.294   9.074  17.913  0.00  0.00    +0.000 C 
BRANCH   6   7
ATOM      7  C   UNL     1       8.948  10.230  18.569  0.00  0.00    +0.000 A 
ATOM      8  C   UNL     1       9.595  11.178  17.778  0.00  0.00    +0.000 A 
ATOM      9  C   UNL     1      10.199  12.291  18.361  0.00  0.00    +0.000 A 
ATOM     10  C   UNL     1      10.194  12.438  19.764  0.00  0.00    +0.000 A 
ATOM     11  C   UNL     1       9.557  11.464  20.568  0.00  0.00    +0.000 A 
ATOM     12  C   UNL     1       8.918  10.371  19.959  0.00  0.00    +0.000 A 
BRANCH   9  13
ATOM     13  O   UNL     1      10.829  13.267  17.620  0.00  0.00    +0.000 OA
ATOM     14  C   UNL     1      12.120  12.928  17.118  0.00  0.00    +0.000 C 
ENDBRANCH   9  13
BRANCH  10  15
ATOM     15  O   UNL     1      10.900  13.523  20.235  0.00  0.00    +0.000 OA
ATOM     16  C   UNL     1      10.158  14.671  20.626  0.00  0.00    +0.000 C 
ENDBRANCH  10  15
BRANCH  11  17
ATOM     17  O   UNL     1       9.625  11.620  21.929  0.00  0.00    +0.000 OA
ATOM     18  C   UNL     1       8.435  11.920  22.642  0.00  0.00    +0.000 C 
ENDBRANCH  11  17
ENDBRANCH   6   7
ENDBRANCH   3   5
BRANCH   1  19
ATOM     19  C   UNL     1       6.488   4.764  17.842  0.00  0.00    +0.000 C 
BRANCH  19  20
ATOM     20  S   UNL     1       5.209   5.327  16.675  0.00  0.00    +0.000 S 
BRANCH  20  29
ATOM     21  C   UNL     1       3.033   3.588  20.296  0.00  0.00    +0.000 A 
ATOM     22  C   UNL     1       2.101   4.323  21.014  0.00  0.00    +0.000 A 
ATOM     23  C   UNL     1       1.814   5.635  20.629  0.00  0.00    +0.000 A 
ATOM     24  C   UNL     1       2.436   6.241  19.550  0.00  0.00    +0.000 A 
ATOM     25  N   UNL     1       2.066   7.493  19.253  0.00  0.00    +0.000 NA
ATOM     26  C   UNL     1       2.637   8.108  18.198  0.00  0.00    +0.000 A 
ATOM     27  C   UNL     1       2.168   9.503  17.905  0.00  0.00    +0.000 C 
ATOM     28  C   UNL     1       3.598   7.500  17.403  0.00  0.00    +0.000 A 
ATOM     29  C   UNL     1       4.006   6.199  17.711  0.00  0.00    +0.000 A 
ATOM     30  C   UNL     1       3.399   5.524  18.809  0.00  0.00    +0.000 A 
ATOM     31  C   UNL     1       3.685   4.189  19.217  0.00  0.00    +0.000 A 
BRANCH  21  33
ATOM     32  C   UNL     1       4.620   1.873  19.955  0.00  0.00    +0.000 C 
ATOM     33  O   UNL     1       3.412   2.305  20.573  0.00  0.00    +0.000 OA
ENDBRANCH  21  33
ENDBRANCH  20  29
ENDBRANCH  19  20
ENDBRANCH   1  19
TORSDOF 9
ENDMDL
MODEL 2
REMARK VINA RESULT:      -7.7      5.594      9.592
REMARK  Name = 
REMARK  14 active torsions:
REMARK  status: ('A' for Active; 'I' for Inactive)
REMARK    1  A    between atoms: C_1  and  O_2
REMARK    2  A    between atoms: O_2  and  C_3
REMARK    3  A    between atoms: C_8  and  C_9
REMARK    4  A    between atoms: C_11  and  S_12
REMARK    5  A    between atoms: S_12  and  C_13
REMARK    6  A    between atoms: C_13  and  C_14
REMARK    7  A    between atoms: N_16  and  N_17
REMARK    8  A    between atoms: C_18  and  C_19
REMARK    9  A    between atoms: C_21  and  O_22
REMARK   10  A    between atoms: O_22  and  C_23
REMARK   11  A    between atoms: C_24  and  O_25
REMARK   12  A    between atoms: O_25  and  C_26
REMARK   13  A    between atoms: C_27  and  O_28
REMARK   14  A    between atoms: O_28  and  C_29
REMARK                            x       y       z     vdW  Elec       q    Type
REMARK                         _______ _______ _______ _____ _____    ______ ____
ROOT
ATOM      1  C   UNL     1       0.561   9.630  19.504  0.00  0.00    +0.000 C 
ATOM      2  O   UNL     1       0.479   9.907  18.307  0.00  0.00    +0.000 OA
ATOM      3  N   UNL     1       1.408   8.670  20.046  0.00  0.00    +0.000 N 
ATOM      4  H   UNL     1       1.493   8.558  21.051  0.00  0.00    +0.000 HD
ENDROOT
BRANCH   3   5
ATOM      5  N   UNL     1       2.267   8.031  19.214  0.00  0.00    +0.000 NA
ATOM      6  C   UNL     1       2.350   6.743  19.289  0.00  0.00    +0.000 C 
BRANCH   6   7
ATOM      7  C   UNL     1       3.305   6.021  18.416  0.00  0.00    +0.000 A 
ATOM      8  C   UNL     1       3.136   4.651  18.219  0.00  0.00    +0.000 A 
ATOM      9  C   UNL     1       4.001   3.946  17.384  0.00  0.00    +0.000 A 
ATOM     10  C   UNL     1       5.082   4.612  16.768  0.00  0.00    +0.000 A 
ATOM     11  C   UNL     1       5.266   5.998  16.987  0.00  0.00    +0.000 A 
ATOM     12  C   UNL     1       4.359   6.699  17.799  0.00  0.00    +0.000 A 
BRANCH   9  13
ATOM     13  O   UNL     1       3.860   2.598  17.139  0.00  0.00    +0.000 OA
ATOM     14  C   UNL     1       3.527   1.793  18.268  0.00  0.00    +0.000 C 
ENDBRANCH   9  13
BRANCH  10  15
ATOM     15  O   UNL     1       5.925   3.800  16.043  0.00  0.00    +0.000 OA
ATOM     16  C   UNL     1       5.909   3.933  14.628  0.00  0.00    +0.000 C 
ENDBRANCH  10  15
BRANCH  11  17
ATOM     17  O   UNL     1       6.361   6.591  16.413  0.00  0.00    +0.000 OA
ATOM     18  C   UNL     1       7.384   7.097  17.257  0.00  0.00    +0.000 C 
ENDBRANCH  11  17
ENDBRANCH   6   7
ENDBRANCH   3   5
BRANCH   1  19
ATOM     19  C   UNL     1      -0.352  10.295  20.511  0.00  0.00    +0.000 C 
BRANCH  19  20
ATOM     20  S   UNL     1      -0.646  12.054  20.143  0.00  0.00    +0.000 S 
BRANCH  20  29
ATOM     21  C   UNL     1      -3.304  11.084  16.555  0.00  0.00    +0.000 A 
ATOM     22  C   UNL     1      -4.679  11.263  16.593  0.00  0.00    +0.000 A 
ATOM     23  C   UNL     1      -5.279  11.749  17.757  0.00  0.00    +0.000 A 
ATOM     24  C   UNL     1      -4.548  12.058  18.891  0.00  0.00    +0.000 A 
ATOM     25  N   UNL     1      -5.221  12.542  19.942  0.00  0.00    +0.000 NA
ATOM     26  C   UNL     1      -4.540  12.871  21.058  0.00  0.00    +0.000 A 
ATOM     27  C   UNL     1      -5.348  13.424  22.194  0.00  0.00    +0.000 C 
ATOM     28  C   UNL     1      -3.164  12.727  21.167  0.00  0.00    +0.000 A 
ATOM     29  C   UNL     1      -2.450  12.207  20.085  0.00  0.00    +0.000 A 
ATOM     30  C   UNL     1      -3.149  11.874  18.889  0.00  0.00    +0.000 A 
ATOM     31  C   UNL     1      -2.552  11.371  17.697  0.00  0.00    +0.000 A 
BRANCH  21  33
ATOM     32  C   UNL     1      -3.378  10.161  14.383  0.00  0.00    +0.000 C 
ATOM     33  O   UNL     1      -2.597  10.607  15.488  0.00  0.00    +0.000 OA
ENDBRANCH  21  33
ENDBRANCH  20  29
ENDBRANCH  19  20
ENDBRANCH   1  19
TORSDOF 9
ENDMDL
MODEL 3
REMARK VINA RESULT:      -7.7      5.911     10.204
REMARK  Name = 
REMARK  14 active torsions:
REMARK  status: ('A' for Active; 'I' for Inactive)
REMARK    1  A    between atoms: C_1  and  O_2
REMARK    2  A    between atoms: O_2  and  C_3
REMARK    3  A    between atoms: C_8  and  C_9
REMARK    4  A    between atoms: C_11  and  S_12
REMARK    5  A    between atoms: S_12  and  C_13
REMARK    6  A    between atoms: C_13  and  C_14
REMARK    7  A    between atoms: N_16  and  N_17
REMARK    8  A    between atoms: C_18  and  C_19
REMARK    9  A    between atoms: C_21  and  O_22
REMARK   10  A    between atoms: O_22  and  C_23
REMARK   11  A    between atoms: C_24  and  O_25
REMARK   12  A    between atoms: O_25  and  C_26
REMARK   13  A    between atoms: C_27  and  O_28
REMARK   14  A    between atoms: O_28  and  C_29
REMARK                            x       y       z     vdW  Elec       q    Type
REMARK                         _______ _______ _______ _____ _____    ______ ____
ROOT
ATOM      1  C   UNL     1       1.014  10.425  18.927  0.00  0.00    +0.000 C 
ATOM      2  O   UNL     1       0.987   9.909  20.045  0.00  0.00    +0.000 OA
ATOM      3  N   UNL     1       1.754   9.953  17.848  0.00  0.00    +0.000 N 
ATOM      4  H   UNL     1       1.658  10.372  16.928  0.00  0.00    +0.000 HD
ENDROOT
BRANCH   3   5
ATOM      5  N   UNL     1       2.446   8.798  18.002  0.00  0.00    +0.000 NA
ATOM      6  C   UNL     1       1.803   7.680  17.907  0.00  0.00    +0.000 C 
BRANCH   6   7
ATOM      7  C   UNL     1       2.527   6.403  18.105  0.00  0.00    +0.000 A 
ATOM      8  C   UNL     1       1.848   5.203  17.896  0.00  0.00    +0.000 A 
ATOM      9  C   UNL     1       2.505   3.983  18.049  0.00  0.00    +0.000 A 
ATOM     10  C   UNL     1       3.855   3.960  18.461  0.00  0.00    +0.000 A 
ATOM     11  C   UNL     1       4.537   5.177  18.695  0.00  0.00    +0.000 A 
ATOM     12  C   UNL     1       3.868   6.396  18.495  0.00  0.00    +0.000 A 
BRANCH   9  13
ATOM     13  O   UNL     1       1.884   2.774  17.830  0.00  0.00    +0.000 OA
ATOM     14  C   UNL     1       0.832   2.443  18.735  0.00  0.00    +0.000 C 
ENDBRANCH   9  13
BRANCH  10  15
ATOM     15  O   UNL     1       4.374   2.701  18.670  0.00  0.00    +0.000 OA
ATOM     16  C   UNL     1       4.405   2.218  20.006  0.00  0.00    +0.000 C 
ENDBRANCH  10  15
BRANCH  11  17
ATOM     17  O   UNL     1       5.829   5.104  19.146  0.00  0.00    +0.000 OA
ATOM     18  C   UNL     1       6.887   5.179  18.203  0.00  0.00    +0.000 C 
ENDBRANCH  11  17
ENDBRANCH   6   7
ENDBRANCH   3   5
BRANCH   1  19
ATOM     19  C   UNL     1       0.268  11.712  18.656  0.00  0.00    +0.000 C 
BRANCH  19  20
ATOM     20  S   UNL     1      -1.320  11.807  19.542  0.00  0.00    +0.000 S 
BRANCH  20  29
ATOM     21  C   UNL     1      -5.781  12.709  19.938  0.00  0.00    +0.000 A 
ATOM     22  C   UNL     1      -6.673  12.464  18.904  0.00  0.00    +0.000 A 
ATOM     23  C   UNL     1      -6.203  11.928  17.701  0.00  0.00    +0.000 A 
ATOM     24  C   UNL     1      -4.866  11.635  17.496  0.00  0.00    +0.000 A 
ATOM     25  N   UNL     1      -4.530  11.101  16.315  0.00  0.00    +0.000 NA
ATOM     26  C   UNL     1      -3.239  10.786  16.086  0.00  0.00    +0.000 A 
ATOM     27  C   UNL     1      -2.929  10.174  14.753  0.00  0.00    +0.000 C 
ATOM     28  C   UNL     1      -2.237  10.994  17.024  0.00  0.00    +0.000 A 
ATOM     29  C   UNL     1      -2.571  11.567  18.254  0.00  0.00    +0.000 A 
ATOM     30  C   UNL     1      -3.933  11.887  18.523  0.00  0.00    +0.000 A 
ATOM     31  C   UNL     1      -4.425  12.439  19.741  0.00  0.00    +0.000 A 
BRANCH  21  33
ATOM     32  C   UNL     1      -7.465  13.640  21.306  0.00  0.00    +0.000 C 
ATOM     33  O   UNL     1      -6.107  13.238  21.154  0.00  0.00    +0.000 OA
ENDBRANCH  21  33
ENDBRANCH  20  29
ENDBRANCH  19  20
ENDBRANCH   1  19
TORSDOF 9
ENDMDL
MODEL 4
REMARK VINA RESULT:      -7.6      5.850     10.164
REMARK  Name = 
REMARK  14 active torsions:
REMARK  status: ('A' for Active; 'I' for Inactive)
REMARK    1  A    between atoms: C_1  and  O_2
REMARK    2  A    between atoms: O_2  and  C_3
REMARK    3  A    between atoms: C_8  and  C_9
REMARK    4  A    between atoms: C_11  and  S_12
REMARK    5  A    between atoms: S_12  and  C_13
REMARK    6  A    between atoms: C_13  and  C_14
REMARK    7  A    between atoms: N_16  and  N_17
REMARK    8  A    between atoms: C_18  and  C_19
REMARK    9  A    between atoms: C_21  and  O_22
REMARK   10  A    between atoms: O_22  and  C_23
REMARK   11  A    between atoms: C_24  and  O_25
REMARK   12  A    between atoms: O_25  and  C_26
REMARK   13  A    between atoms: C_27  and  O_28
REMARK   14  A    between atoms: O_28  and  C_29
REMARK                            x       y       z     vdW  Elec       q    Type
REMARK                         _______ _______ _______ _____ _____    ______ ____
ROOT
ATOM      1  C   UNL     1       0.751  10.059  19.471  0.00  0.00    +0.000 C 
ATOM      2  O   UNL     1       0.677   9.838  20.681  0.00  0.00    +0.000 OA
ATOM      3  N   UNL     1       1.421   9.257  18.553  0.00  0.00    +0.000 N 
ATOM      4  H   UNL     1       1.363   9.447  17.558  0.00  0.00    +0.000 HD
ENDROOT
BRANCH   3   5
ATOM      5  N   UNL     1       1.979   8.104  18.996  0.00  0.00    +0.000 NA
ATOM      6  C   UNL     1       2.626   7.371  18.150  0.00  0.00    +0.000 C 
BRANCH   6   7
ATOM      7  C   UNL     1       3.217   6.089  18.598  0.00  0.00    +0.000 A 
ATOM      8  C   UNL     1       2.400   5.156  19.237  0.00  0.00    +0.000 A 
ATOM      9  C   UNL     1       2.918   3.929  19.649  0.00  0.00    +0.000 A 
ATOM     10  C   UNL     1       4.286   3.644  19.457  0.00  0.00    +0.000 A 
ATOM     11  C   UNL     1       5.119   4.600  18.829  0.00  0.00    +0.000 A 
ATOM     12  C   UNL     1       4.569   5.814  18.384  0.00  0.00    +0.000 A 
BRANCH   9  13
ATOM     13  O   UNL     1       2.146   2.967  20.261  0.00  0.00    +0.000 OA
ATOM     14  C   UNL     1       1.926   3.145  21.660  0.00  0.00    +0.000 C 
ENDBRANCH   9  13
BRANCH  10  15
ATOM     15  O   UNL     1       4.707   2.444  19.986  0.00  0.00    +0.000 OA
ATOM     16  C   UNL     1       4.515   1.276  19.199  0.00  0.00    +0.000 C 
ENDBRANCH  10  15
BRANCH  11  17
ATOM     17  O   UNL     1       6.452   4.302  18.714  0.00  0.00    +0.000 OA
ATOM     18  C   UNL     1       7.150   4.731  17.555  0.00  0.00    +0.000 C 
ENDBRANCH  11  17
ENDBRANCH   6   7
ENDBRANCH   3   5
BRANCH   1  19
ATOM     19  C   UNL     1       0.153  11.317  18.882  0.00  0.00    +0.000 C 
BRANCH  19  20
ATOM     20  S   UNL     1      -1.429  11.776  19.657  0.00  0.00    +0.000 S 
BRANCH  20  29
ATOM     21  C   UNL     1      -5.921  12.521  20.033  0.00  0.00    +0.000 A 
ATOM     22  C   UNL     1      -6.794  12.284  18.981  0.00  0.00    +0.000 A 
ATOM     23  C   UNL     1      -6.295  11.806  17.766  0.00  0.00    +0.000 A 
ATOM     24  C   UNL     1      -4.946  11.563  17.566  0.00  0.00    +0.000 A 
ATOM     25  N   UNL     1      -4.581  11.081  16.372  0.00  0.00    +0.000 NA
ATOM     26  C   UNL     1      -3.279  10.816  16.146  0.00  0.00    +0.000 A 
ATOM     27  C   UNL     1      -2.935  10.261  14.796  0.00  0.00    +0.000 C 
ATOM     28  C   UNL     1      -2.294  11.023  17.102  0.00  0.00    +0.000 A 
ATOM     29  C   UNL     1      -2.658  11.541  18.347  0.00  0.00    +0.000 A 
ATOM     30  C   UNL     1      -4.033  11.809  18.612  0.00  0.00    +0.000 A 
ATOM     31  C   UNL     1      -4.555  12.301  19.843  0.00  0.00    +0.000 A 
BRANCH  21  33
ATOM     32  C   UNL     1      -5.513  14.102  21.738  0.00  0.00    +0.000 C 
ATOM     33  O   UNL     1      -6.276  12.997  21.263  0.00  0.00    +0.000 OA
ENDBRANCH  21  33
ENDBRANCH  20  29
ENDBRANCH  19  20
ENDBRANCH   1  19
TORSDOF 9
ENDMDL
MODEL 5
REMARK VINA RESULT:      -7.6      1.108      1.171
REMARK  Name = 
REMARK  14 active torsions:
REMARK  status: ('A' for Active; 'I' for Inactive)
REMARK    1  A    between atoms: C_1  and  O_2
REMARK    2  A    between atoms: O_2  and  C_3
REMARK    3  A    between atoms: C_8  and  C_9
REMARK    4  A    between atoms: C_11  and  S_12
REMARK    5  A    between atoms: S_12  and  C_13
REMARK    6  A    between atoms: C_13  and  C_14
REMARK    7  A    between atoms: N_16  and  N_17
REMARK    8  A    between atoms: C_18  and  C_19
REMARK    9  A    between atoms: C_21  and  O_22
REMARK   10  A    between atoms: O_22  and  C_23
REMARK   11  A    between atoms: C_24  and  O_25
REMARK   12  A    between atoms: O_25  and  C_26
REMARK   13  A    between atoms: C_27  and  O_28
REMARK   14  A    between atoms: O_28  and  C_29
REMARK                            x       y       z     vdW  Elec       q    Type
REMARK                         _______ _______ _______ _____ _____    ______ ____
ROOT
ATOM      1  C   UNL     1       7.066   7.095  17.391  0.00  0.00    +0.000 C 
ATOM      2  O   UNL     1       6.551   7.806  16.528  0.00  0.00    +0.000 OA
ATOM      3  N   UNL     1       8.009   7.522  18.319  0.00  0.00    +0.000 N 
ATOM      4  H   UNL     1       8.322   6.907  19.063  0.00  0.00    +0.000 HD
ENDROOT
BRANCH   3   5
ATOM      5  N   UNL     1       8.345   8.835  18.333  0.00  0.00    +0.000 NA
ATOM      6  C   UNL     1       9.202   9.239  19.213  0.00  0.00    +0.000 C 
BRANCH   6   7
ATOM      7  C   UNL     1       9.562  10.674  19.276  0.00  0.00    +0.000 A 
ATOM      8  C   UNL     1       9.934  11.329  18.101  0.00  0.00    +0.000 A 
ATOM      9  C   UNL     1      10.255  12.685  18.120  0.00  0.00    +0.000 A 
ATOM     10  C   UNL     1      10.245  13.393  19.340  0.00  0.00    +0.000 A 
ATOM     11  C   UNL     1       9.889  12.723  20.535  0.00  0.00    +0.000 A 
ATOM     12  C   UNL     1       9.530  11.366  20.489  0.00  0.00    +0.000 A 
BRANCH   9  13
ATOM     13  O   UNL     1      10.604  13.380  16.983  0.00  0.00    +0.000 OA
ATOM     14  C   UNL     1      11.922  13.144  16.492  0.00  0.00    +0.000 C 
ENDBRANCH   9  13
BRANCH  10  15
ATOM     15  O   UNL     1      10.668  14.701  19.255  0.00  0.00    +0.000 OA
ATOM     16  C   UNL     1      11.998  14.988  19.665  0.00  0.00    +0.000 C 
ENDBRANCH  10  15
BRANCH  11  17
ATOM     17  O   UNL     1       9.947  13.437  21.704  0.00  0.00    +0.000 OA
ATOM     18  C   UNL     1       8.743  13.688  22.411  0.00  0.00    +0.000 C 
ENDBRANCH  11  17
ENDBRANCH   6   7
ENDBRANCH   3   5
BRANCH   1  19
ATOM     19  C   UNL     1       6.748   5.618  17.458  0.00  0.00    +0.000 C 
BRANCH  19  20
ATOM     20  S   UNL     1       5.136   5.208  16.718  0.00  0.00    +0.000 S 
BRANCH  20  29
ATOM     21  C   UNL     1       3.030   3.505  20.398  0.00  0.00    +0.000 A 
ATOM     22  C   UNL     1       2.095   4.239  21.113  0.00  0.00    +0.000 A 
ATOM     23  C   UNL     1       1.783   5.539  20.706  0.00  0.00    +0.000 A 
ATOM     24  C   UNL     1       2.382   6.133  19.608  0.00  0.00    +0.000 A 
ATOM     25  N   UNL     1       1.989   7.373  19.292  0.00  0.00    +0.000 NA
ATOM     26  C   UNL     1       2.537   7.977  18.219  0.00  0.00    +0.000 A 
ATOM     27  C   UNL     1       2.043   9.358  17.906  0.00  0.00    +0.000 C 
ATOM     28  C   UNL     1       3.498   7.368  17.424  0.00  0.00    +0.000 A 
ATOM     29  C   UNL     1       3.930   6.081  17.752  0.00  0.00    +0.000 A 
ATOM     30  C   UNL     1       3.347   5.417  18.870  0.00  0.00    +0.000 A 
ATOM     31  C   UNL     1       3.660   4.095  19.300  0.00  0.00    +0.000 A 
BRANCH  21  33
ATOM     32  C   UNL     1       4.795   1.936  20.406  0.00  0.00    +0.000 C 
ATOM     33  O   UNL     1       3.432   2.233  20.695  0.00  0.00    +0.000 OA
ENDBRANCH  21  33
ENDBRANCH  20  29
ENDBRANCH  19  20
ENDBRANCH   1  19
TORSDOF 9
ENDMDL
MODEL 6
REMARK VINA RESULT:      -7.6      6.016     10.118
REMARK  Name = 
REMARK  14 active torsions:
REMARK  status: ('A' for Active; 'I' for Inactive)
REMARK    1  A    between atoms: C_1  and  O_2
REMARK    2  A    between atoms: O_2  and  C_3
REMARK    3  A    between atoms: C_8  and  C_9
REMARK    4  A    between atoms: C_11  and  S_12
REMARK    5  A    between atoms: S_12  and  C_13
REMARK    6  A    between atoms: C_13  and  C_14
REMARK    7  A    between atoms: N_16  and  N_17
REMARK    8  A    between atoms: C_18  and  C_19
REMARK    9  A    between atoms: C_21  and  O_22
REMARK   10  A    between atoms: O_22  and  C_23
REMARK   11  A    between atoms: C_24  and  O_25
REMARK   12  A    between atoms: O_25  and  C_26
REMARK   13  A    between atoms: C_27  and  O_28
REMARK   14  A    between atoms: O_28  and  C_29
REMARK                            x       y       z     vdW  Elec       q    Type
REMARK                         _______ _______ _______ _____ _____    ______ ____
ROOT
ATOM      1  C   UNL     1       0.550  10.362  19.193  0.00  0.00    +0.000 C 
ATOM      2  O   UNL     1       0.068   9.745  20.144  0.00  0.00    +0.000 OA
ATOM      3  N   UNL     1       1.614   9.924  18.413  0.00  0.00    +0.000 N 
ATOM      4  H   UNL     1       1.900  10.438  17.586  0.00  0.00    +0.000 HD
ENDROOT
BRANCH   3   5
ATOM      5  N   UNL     1       2.125   8.692  18.660  0.00  0.00    +0.000 NA
ATOM      6  C   UNL     1       2.161   7.838  17.691  0.00  0.00    +0.000 C 
BRANCH   6   7
ATOM      7  C   UNL     1       2.682   6.474  17.940  0.00  0.00    +0.000 A 
ATOM      8  C   UNL     1       4.062   6.273  17.974  0.00  0.00    +0.000 A 
ATOM      9  C   UNL     1       4.586   5.008  18.232  0.00  0.00    +0.000 A 
ATOM     10  C   UNL     1       3.717   3.912  18.416  0.00  0.00    +0.000 A 
ATOM     11  C   UNL     1       2.317   4.111  18.358  0.00  0.00    +0.000 A 
ATOM     12  C   UNL     1       1.808   5.402  18.139  0.00  0.00    +0.000 A 
BRANCH   9  13
ATOM     13  O   UNL     1       5.940   4.766  18.300  0.00  0.00    +0.000 OA
ATOM     14  C   UNL     1       6.644   5.462  19.327  0.00  0.00    +0.000 C 
ENDBRANCH   9  13
BRANCH  10  15
ATOM     15  O   UNL     1       4.343   2.695  18.569  0.00  0.00    +0.000 OA
ATOM     16  C   UNL     1       4.453   2.174  19.887  0.00  0.00    +0.000 C 
ENDBRANCH  10  15
BRANCH  11  17
ATOM     17  O   UNL     1       1.513   3.008  18.488  0.00  0.00    +0.000 OA
ATOM     18  C   UNL     1       0.856   2.784  19.726  0.00  0.00    +0.000 C 
ENDBRANCH  11  17
ENDBRANCH   6   7
ENDBRANCH   3   5
BRANCH   1  19
ATOM     19  C   UNL     1       0.041  11.741  18.836  0.00  0.00    +0.000 C 
BRANCH  19  20
ATOM     20  S   UNL     1      -1.563  12.123  19.607  0.00  0.00    +0.000 S 
BRANCH  20  29
ATOM     21  C   UNL     1      -6.097  12.528  20.010  0.00  0.00    +0.000 A 
ATOM     22  C   UNL     1      -6.958  12.181  18.980  0.00  0.00    +0.000 A 
ATOM     23  C   UNL     1      -6.434  11.695  17.779  0.00  0.00    +0.000 A 
ATOM     24  C   UNL     1      -5.073  11.551  17.571  0.00  0.00    +0.000 A 
ATOM     25  N   UNL     1      -4.683  11.052  16.392  0.00  0.00    +0.000 NA
ATOM     26  C   UNL     1      -3.366  10.880  16.160  0.00  0.00    +0.000 A 
ATOM     27  C   UNL     1      -2.993  10.300  14.829  0.00  0.00    +0.000 C 
ATOM     28  C   UNL     1      -2.391  11.202  17.094  0.00  0.00    +0.000 A 
ATOM     29  C   UNL     1      -2.783  11.740  18.323  0.00  0.00    +0.000 A 
ATOM     30  C   UNL     1      -4.172  11.909  18.595  0.00  0.00    +0.000 A 
ATOM     31  C   UNL     1      -4.719  12.408  19.811  0.00  0.00    +0.000 A 
BRANCH  21  33
ATOM     32  C   UNL     1      -7.352  12.193  21.982  0.00  0.00    +0.000 C 
ATOM     33  O   UNL     1      -6.476  13.024  21.226  0.00  0.00    +0.000 OA
ENDBRANCH  21  33
ENDBRANCH  20  29
ENDBRANCH  19  20
ENDBRANCH   1  19
TORSDOF 9
ENDMDL
MODEL 7
REMARK VINA RESULT:      -7.6      5.700      9.429
REMARK  Name = 
REMARK  14 active torsions:
REMARK  status: ('A' for Active; 'I' for Inactive)
REMARK    1  A    between atoms: C_1  and  O_2
REMARK    2  A    between atoms: O_2  and  C_3
REMARK    3  A    between atoms: C_8  and  C_9
REMARK    4  A    between atoms: C_11  and  S_12
REMARK    5  A    between atoms: S_12  and  C_13
REMARK    6  A    between atoms: C_13  and  C_14
REMARK    7  A    between atoms: N_16  and  N_17
REMARK    8  A    between atoms: C_18  and  C_19
REMARK    9  A    between atoms: C_21  and  O_22
REMARK   10  A    between atoms: O_22  and  C_23
REMARK   11  A    between atoms: C_24  and  O_25
REMARK   12  A    between atoms: O_25  and  C_26
REMARK   13  A    between atoms: C_27  and  O_28
REMARK   14  A    between atoms: O_28  and  C_29
REMARK                            x       y       z     vdW  Elec       q    Type
REMARK                         _______ _______ _______ _____ _____    ______ ____
ROOT
ATOM      1  C   UNL     1       1.379  10.931  18.647  0.00  0.00    +0.000 C 
ATOM      2  O   UNL     1       2.326  11.387  18.006  0.00  0.00    +0.000 OA
ATOM      3  N   UNL     1       1.243   9.602  19.035  0.00  0.00    +0.000 N 
ATOM      4  H   UNL     1       0.483   9.313  19.642  0.00  0.00    +0.000 HD
ENDROOT
BRANCH   3   5
ATOM      5  N   UNL     1       2.256   8.746  18.754  0.00  0.00    +0.000 NA
ATOM      6  C   UNL     1       2.013   7.743  17.975  0.00  0.00    +0.000 C 
BRANCH   6   7
ATOM      7  C   UNL     1       3.092   6.772  17.679  0.00  0.00    +0.000 A 
ATOM      8  C   UNL     1       4.320   7.246  17.218  0.00  0.00    +0.000 A 
ATOM      9  C   UNL     1       5.364   6.362  16.954  0.00  0.00    +0.000 A 
ATOM     10  C   UNL     1       5.167   4.974  17.112  0.00  0.00    +0.000 A 
ATOM     11  C   UNL     1       3.913   4.492  17.558  0.00  0.00    +0.000 A 
ATOM     12  C   UNL     1       2.887   5.402  17.858  0.00  0.00    +0.000 A 
BRANCH   9  13
ATOM     13  O   UNL     1       6.602   6.784  16.521  0.00  0.00    +0.000 OA
ATOM     14  C   UNL     1       7.460   7.323  17.526  0.00  0.00    +0.000 C 
ENDBRANCH   9  13
BRANCH  10  15
ATOM     15  O   UNL     1       6.234   4.190  16.733  0.00  0.00    +0.000 OA
ATOM     16  C   UNL     1       6.259   3.717  15.394  0.00  0.00    +0.000 C 
ENDBRANCH  10  15
BRANCH  11  17
ATOM     17  O   UNL     1       3.750   3.133  17.643  0.00  0.00    +0.000 OA
ATOM     18  C   UNL     1       3.208   2.585  18.835  0.00  0.00    +0.000 C 
ENDBRANCH  11  17
ENDBRANCH   6   7
ENDBRANCH   3   5
BRANCH   1  19
ATOM     19  C   UNL     1       0.204  11.810  19.012  0.00  0.00    +0.000 C 
BRANCH  19  20
ATOM     20  S   UNL     1      -1.253  10.856  19.545  0.00  0.00    +0.000 S 
BRANCH  20  29
ATOM     21  C   UNL     1      -5.364  12.836  19.770  0.00  0.00    +0.000 A 
ATOM     22  C   UNL     1      -6.212  12.891  18.673  0.00  0.00    +0.000 A 
ATOM     23  C   UNL     1      -5.805  12.331  17.459  0.00  0.00    +0.000 A 
ATOM     24  C   UNL     1      -4.572  11.721  17.304  0.00  0.00    +0.000 A 
ATOM     25  N   UNL     1      -4.296  11.195  16.104  0.00  0.00    +0.000 NA
ATOM     26  C   UNL     1      -3.112  10.577  15.920  0.00  0.00    +0.000 A 
ATOM     27  C   UNL     1      -2.869   9.992  14.561  0.00  0.00    +0.000 C 
ATOM     28  C   UNL     1      -2.160  10.464  16.924  0.00  0.00    +0.000 A 
ATOM     29  C   UNL     1      -2.428  11.024  18.176  0.00  0.00    +0.000 A 
ATOM     30  C   UNL     1      -3.682  11.663  18.396  0.00  0.00    +0.000 A 
ATOM     31  C   UNL     1      -4.108  12.243  19.626  0.00  0.00    +0.000 A 
BRANCH  21  33
ATOM     32  C   UNL     1      -4.783  12.908  22.057  0.00  0.00    +0.000 C 
ATOM     33  O   UNL     1      -5.634  13.353  21.005  0.00  0.00    +0.000 OA
ENDBRANCH  21  33
ENDBRANCH  20  29
ENDBRANCH  19  20
ENDBRANCH   1  19
TORSDOF 9
ENDMDL
MODEL 8
REMARK VINA RESULT:      -7.6      4.916      7.872
REMARK  Name = 
REMARK  14 active torsions:
REMARK  status: ('A' for Active; 'I' for Inactive)
REMARK    1  A    between atoms: C_1  and  O_2
REMARK    2  A    between atoms: O_2  and  C_3
REMARK    3  A    between atoms: C_8  and  C_9
REMARK    4  A    between atoms: C_11  and  S_12
REMARK    5  A    between atoms: S_12  and  C_13
REMARK    6  A    between atoms: C_13  and  C_14
REMARK    7  A    between atoms: N_16  and  N_17
REMARK    8  A    between atoms: C_18  and  C_19
REMARK    9  A    between atoms: C_21  and  O_22
REMARK   10  A    between atoms: O_22  and  C_23
REMARK   11  A    between atoms: C_24  and  O_25
REMARK   12  A    between atoms: O_25  and  C_26
REMARK   13  A    between atoms: C_27  and  O_28
REMARK   14  A    between atoms: O_28  and  C_29
REMARK                            x       y       z     vdW  Elec       q    Type
REMARK                         _______ _______ _______ _____ _____    ______ ____
ROOT
ATOM      1  C   UNL     1       2.754   5.513  18.628  0.00  0.00    +0.000 C 
ATOM      2  O   UNL     1       2.363   6.013  17.572  0.00  0.00    +0.000 OA
ATOM      3  N   UNL     1       2.817   6.176  19.849  0.00  0.00    +0.000 N 
ATOM      4  H   UNL     1       3.060   5.678  20.699  0.00  0.00    +0.000 HD
ENDROOT
BRANCH   3   5
ATOM      5  N   UNL     1       2.350   7.447  19.913  0.00  0.00    +0.000 NA
ATOM      6  C   UNL     1       1.484   7.736  20.829  0.00  0.00    +0.000 C 
BRANCH   6   7
ATOM      7  C   UNL     1       0.930   9.108  20.901  0.00  0.00    +0.000 A 
ATOM      8  C   UNL     1       1.039   9.940  19.787  0.00  0.00    +0.000 A 
ATOM      9  C   UNL     1       0.506  11.228  19.812  0.00  0.00    +0.000 A 
ATOM     10  C   UNL     1      -0.110  11.710  20.986  0.00  0.00    +0.000 A 
ATOM     11  C   UNL     1      -0.199  10.874  22.124  0.00  0.00    +0.000 A 
ATOM     12  C   UNL     1       0.307   9.565  22.065  0.00  0.00    +0.000 A 
BRANCH   9  13
ATOM     13  O   UNL     1       0.567  12.076  18.729  0.00  0.00    +0.000 OA
ATOM     14  C   UNL     1       1.864  12.571  18.400  0.00  0.00    +0.000 C 
ENDBRANCH   9  13
BRANCH  10  15
ATOM     15  O   UNL     1      -0.515  13.025  20.929  0.00  0.00    +0.000 OA
ATOM     16  C   UNL     1       0.327  13.999  21.531  0.00  0.00    +0.000 C 
ENDBRANCH  10  15
BRANCH  11  17
ATOM     17  O   UNL     1      -0.756  11.405  23.259  0.00  0.00    +0.000 OA
ATOM     18  C   UNL     1      -2.160  11.602  23.302  0.00  0.00    +0.000 C 
ENDBRANCH  11  17
ENDBRANCH   6   7
ENDBRANCH   3   5
BRANCH   1  19
ATOM     19  C   UNL     1       3.288   4.099  18.658  0.00  0.00    +0.000 C 
BRANCH  19  20
ATOM     20  S   UNL     1       3.776   3.494  17.011  0.00  0.00    +0.000 S 
BRANCH  20  29
ATOM     21  C   UNL     1       5.887   3.535  12.959  0.00  0.00    +0.000 A 
ATOM     22  C   UNL     1       7.018   4.304  12.730  0.00  0.00    +0.000 A 
ATOM     23  C   UNL     1       7.533   5.095  13.760  0.00  0.00    +0.000 A 
ATOM     24  C   UNL     1       6.949   5.148  15.014  0.00  0.00    +0.000 A 
ATOM     25  N   UNL     1       7.541   5.919  15.935  0.00  0.00    +0.000 NA
ATOM     26  C   UNL     1       7.011   5.980  17.172  0.00  0.00    +0.000 A 
ATOM     27  C   UNL     1       7.730   6.846  18.164  0.00  0.00    +0.000 C 
ATOM     28  C   UNL     1       5.871   5.278  17.536  0.00  0.00    +0.000 A 
ATOM     29  C   UNL     1       5.232   4.483  16.581  0.00  0.00    +0.000 A 
ATOM     30  C   UNL     1       5.789   4.388  15.273  0.00  0.00    +0.000 A 
ATOM     31  C   UNL     1       5.272   3.591  14.212  0.00  0.00    +0.000 A 
BRANCH  21  33
ATOM     32  C   UNL     1       4.186   3.318  11.335  0.00  0.00    +0.000 C 
ATOM     33  O   UNL     1       5.277   2.731  12.038  0.00  0.00    +0.000 OA
ENDBRANCH  21  33
ENDBRANCH  20  29
ENDBRANCH  19  20
ENDBRANCH   1  19
TORSDOF 9
ENDMDL
MODEL 9
REMARK VINA RESULT:      -7.5      5.883      9.706
REMARK  Name = 
REMARK  14 active torsions:
REMARK  status: ('A' for Active; 'I' for Inactive)
REMARK    1  A    between atoms: C_1  and  O_2
REMARK    2  A    between atoms: O_2  and  C_3
REMARK    3  A    between atoms: C_8  and  C_9
REMARK    4  A    between atoms: C_11  and  S_12
REMARK    5  A    between atoms: S_12  and  C_13
REMARK    6  A    between atoms: C_13  and  C_14
REMARK    7  A    between atoms: N_16  and  N_17
REMARK    8  A    between atoms: C_18  and  C_19
REMARK    9  A    between atoms: C_21  and  O_22
REMARK   10  A    between atoms: O_22  and  C_23
REMARK   11  A    between atoms: C_24  and  O_25
REMARK   12  A    between atoms: O_25  and  C_26
REMARK   13  A    between atoms: C_27  and  O_28
REMARK   14  A    between atoms: O_28  and  C_29
REMARK                            x       y       z     vdW  Elec       q    Type
REMARK                         _______ _______ _______ _____ _____    ______ ____
ROOT
ATOM      1  C   UNL     1       0.370   9.749  19.073  0.00  0.00    +0.000 C 
ATOM      2  O   UNL     1       0.356   9.945  17.858  0.00  0.00    +0.000 OA
ATOM      3  N   UNL     1       1.230   8.875  19.731  0.00  0.00    +0.000 N 
ATOM      4  H   UNL     1       1.252   8.831  20.744  0.00  0.00    +0.000 HD
ENDROOT
BRANCH   3   5
ATOM      5  N   UNL     1       2.177   8.237  19.000  0.00  0.00    +0.000 NA
ATOM      6  C   UNL     1       2.257   6.950  19.090  0.00  0.00    +0.000 C 
BRANCH   6   7
ATOM      7  C   UNL     1       3.304   6.229  18.330  0.00  0.00    +0.000 A 
ATOM      8  C   UNL     1       3.200   4.846  18.184  0.00  0.00    +0.000 A 
ATOM      9  C   UNL     1       4.155   4.139  17.453  0.00  0.00    +0.000 A 
ATOM     10  C   UNL     1       5.257   4.820  16.895  0.00  0.00    +0.000 A 
ATOM     11  C   UNL     1       5.374   6.220  17.064  0.00  0.00    +0.000 A 
ATOM     12  C   UNL     1       4.380   6.920  17.768  0.00  0.00    +0.000 A 
BRANCH   9  13
ATOM     13  O   UNL     1       4.082   2.778  17.260  0.00  0.00    +0.000 OA
ATOM     14  C   UNL     1       2.944   2.130  17.827  0.00  0.00    +0.000 C 
ENDBRANCH   9  13
BRANCH  10  15
ATOM     15  O   UNL     1       6.185   4.011  16.276  0.00  0.00    +0.000 OA
ATOM     16  C   UNL     1       6.207   4.004  14.855  0.00  0.00    +0.000 C 
ENDBRANCH  10  15
BRANCH  11  17
ATOM     17  O   UNL     1       6.490   6.830  16.551  0.00  0.00    +0.000 OA
ATOM     18  C   UNL     1       7.457   7.351  17.450  0.00  0.00    +0.000 C 
ENDBRANCH  11  17
ENDBRANCH   6   7
ENDBRANCH   3   5
BRANCH   1  19
ATOM     19  C   UNL     1      -0.643  10.421  19.972  0.00  0.00    +0.000 C 
BRANCH  19  20
ATOM     20  S   UNL     1      -1.166  12.050  19.351  0.00  0.00    +0.000 S 
BRANCH  20  29
ATOM     21  C   UNL     1      -5.607  12.318  20.395  0.00  0.00    +0.000 A 
ATOM     22  C   UNL     1      -6.595  11.989  19.479  0.00  0.00    +0.000 A 
ATOM     23  C   UNL     1      -6.234  11.565  18.198  0.00  0.00    +0.000 A 
ATOM     24  C   UNL     1      -4.913  11.466  17.798  0.00  0.00    +0.000 A 
ATOM     25  N   UNL     1      -4.680  11.024  16.555  0.00  0.00    +0.000 NA
ATOM     26  C   UNL     1      -3.405  10.897  16.137  0.00  0.00    +0.000 A 
ATOM     27  C   UNL     1      -3.209  10.380  14.743  0.00  0.00    +0.000 C 
ATOM     28  C   UNL     1      -2.316  11.208  16.940  0.00  0.00    +0.000 A 
ATOM     29  C   UNL     1      -2.545  11.686  18.233  0.00  0.00    +0.000 A 
ATOM     30  C   UNL     1      -3.885  11.807  18.701  0.00  0.00    +0.000 A 
ATOM     31  C   UNL     1      -4.268  12.243  20.002  0.00  0.00    +0.000 A 
BRANCH  21  33
ATOM     32  C   UNL     1      -4.847  13.654  22.186  0.00  0.00    +0.000 C 
ATOM     33  O   UNL     1      -5.824  12.755  21.671  0.00  0.00    +0.000 OA
ENDBRANCH  21  33
ENDBRANCH  20  29
ENDBRANCH  19  20
ENDBRANCH   1  19
TORSDOF 9
ENDMDL
