MODEL 1
REMARK VINA RESULT:      -8.2      0.000      0.000
REMARK  Name = 
REMARK  12 active torsions:
REMARK  status: ('A' for Active; 'I' for Inactive)
REMARK    1  A    between atoms: C_1  and  C_2
REMARK    2  A    between atoms: C_2  and  C_3
REMARK    3  A    between atoms: C_3  and  C_4
REMARK    4  A    between atoms: C_4  and  C_5
REMARK    5  A    between atoms: C_5  and  C_6
REMARK    6  A    between atoms: C_6  and  C_7
REMARK    7  A    between atoms: C_7  and  N_8
REMARK    8  A    between atoms: N_8  and  C_9
REMARK    9  A    between atoms: C_9  and  C_10
REMARK   10  A    between atoms: C_9  and  C_23
REMARK   11  A    between atoms: C_11  and  O_12
REMARK   12  A    between atoms: C_26  and  N_27
REMARK                            x       y       z     vdW  Elec       q    Type
REMARK                         _______ _______ _______ _____ _____    ______ ____
ROOT
ATOM      1  C   UNL     1       6.515   5.753  17.173  0.00  0.00    +0.000 C 
ENDROOT
BRANCH   1   2
ATOM      2  C   UNL     1       5.179   5.651  17.892  0.00  0.00    +0.000 C 
ATOM      3  C   UNL     1       4.171   6.536  17.763  0.00  0.00    +0.000 C 
ATOM      4  C   UNL     1       2.909   6.414  18.542  0.00  0.00    +0.000 C 
ATOM      5  O   UNL     1       2.017   7.253  18.466  0.00  0.00    +0.000 OA
ATOM      6  C   UNL     1       2.760   5.258  19.437  0.00  0.00    +0.000 A 
ATOM      7  C   UNL     1       1.561   5.087  20.142  0.00  0.00    +0.000 A 
ATOM      8  C   UNL     1       1.406   4.001  21.002  0.00  0.00    +0.000 A 
ATOM      9  C   UNL     1       2.448   3.092  21.169  0.00  0.00    +0.000 A 
ATOM     10  C   UNL     1       3.645   3.264  20.471  0.00  0.00    +0.000 A 
ATOM     11  C   UNL     1       3.799   4.348  19.595  0.00  0.00    +0.000 A 
ATOM     12  C   UNL     1       5.062   4.518  18.856  0.00  0.00    +0.000 C 
ATOM     13  O   UNL     1       5.994   3.744  19.047  0.00  0.00    +0.000 OA
BRANCH   3  14
ATOM     14  O   UNL     1       4.265   7.639  16.923  0.00  0.00    +0.000 OA
ATOM     15  H   UNL     1       4.756   7.361  16.120  0.00  0.00    +0.000 HD
ENDBRANCH   3  14
ENDBRANCH   1   2
BRANCH   1  16
ATOM     16  C   UNL     1       6.445   5.048  15.816  0.00  0.00    +0.000 A 
ATOM     17  C   UNL     1       5.405   4.134  15.559  0.00  0.00    +0.000 A 
ATOM     18  C   UNL     1       5.299   3.499  14.321  0.00  0.00    +0.000 A 
ATOM     19  C   UNL     1       6.243   3.773  13.321  0.00  0.00    +0.000 A 
ATOM     20  C   UNL     1       7.282   4.675  13.558  0.00  0.00    +0.000 A 
ATOM     21  C   UNL     1       7.377   5.312  14.794  0.00  0.00    +0.000 A 
BRANCH  19  22
ATOM     22  N   UNL     1       6.139   3.115  12.011  0.00  0.00    +0.000 N 
ATOM     23  O   UNL     1       7.190   2.740  11.477  0.00  0.00    +0.000 OA
ATOM     24  O   UNL     1       5.011   2.980  11.521  0.00  0.00    +0.000 OA
ENDBRANCH  19  22
ENDBRANCH   1  16
BRANCH   1  25
ATOM     25  N   UNL     1       6.970   7.163  16.995  0.00  0.00    +0.000 NA
ATOM     26  H   UNL     1       7.496   7.190  16.117  0.00  0.00    +0.000 HD
BRANCH  25  27
ATOM     27  C   UNL     1       7.868   7.632  18.062  0.00  0.00    +0.000 C 
BRANCH  27  28
ATOM     28  C   UNL     1       8.150   9.125  18.008  0.00  0.00    +0.000 C 
BRANCH  28  29
ATOM     29  C   UNL     1       9.149   9.517  19.084  0.00  0.00    +0.000 C 
BRANCH  29  30
ATOM     30  C   UNL     1       9.545  10.975  18.905  0.00  0.00    +0.000 C 
BRANCH  30  31
ATOM     31  C   UNL     1      10.314  11.463  20.123  0.00  0.00    +0.000 C 
BRANCH  31  33
ATOM     32  C   UNL     1      11.856  11.984  18.227  0.00  0.00    +0.000 C 
ATOM     33  C   UNL     1      11.724  11.890  19.736  0.00  0.00    +0.000 C 
ENDBRANCH  31  33
ENDBRANCH  30  31
ENDBRANCH  29  30
ENDBRANCH  28  29
ENDBRANCH  27  28
ENDBRANCH  25  27
ENDBRANCH   1  25
TORSDOF 11
ENDMDL
MODEL 2
REMARK VINA RESULT:      -7.8      0.442      1.038
REMARK  Name = 
REMARK  12 active torsions:
REMARK  status: ('A' for Active; 'I' for Inactive)
REMARK    1  A    between atoms: C_1  and  C_2
REMARK    2  A    between atoms: C_2  and  C_3
REMARK    3  A    between atoms: C_3  and  C_4
REMARK    4  A    between atoms: C_4  and  C_5
REMARK    5  A    between atoms: C_5  and  C_6
REMARK    6  A    between atoms: C_6  and  C_7
REMARK    7  A    between atoms: C_7  and  N_8
REMARK    8  A    between atoms: N_8  and  C_9
REMARK    9  A    between atoms: C_9  and  C_10
REMARK   10  A    between atoms: C_9  and  C_23
REMARK   11  A    between atoms: C_11  and  O_12
REMARK   12  A    between atoms: C_26  and  N_27
REMARK                            x       y       z     vdW  Elec       q    Type
REMARK                         _______ _______ _______ _____ _____    ______ ____
ROOT
ATOM      1  C   UNL     1       6.537   5.759  17.029  0.00  0.00    +0.000 C 
ENDROOT
BRANCH   1   2
ATOM      2  C   UNL     1       5.226   5.658  17.793  0.00  0.00    +0.000 C 
ATOM      3  C   UNL     1       4.219   6.547  17.703  0.00  0.00    +0.000 C 
ATOM      4  C   UNL     1       2.984   6.426  18.526  0.00  0.00    +0.000 C 
ATOM      5  O   UNL     1       2.093   7.269  18.485  0.00  0.00    +0.000 OA
ATOM      6  C   UNL     1       2.862   5.266  19.419  0.00  0.00    +0.000 A 
ATOM      7  C   UNL     1       1.687   5.097  20.165  0.00  0.00    +0.000 A 
ATOM      8  C   UNL     1       1.557   4.006  21.024  0.00  0.00    +0.000 A 
ATOM      9  C   UNL     1       2.601   3.092  21.150  0.00  0.00    +0.000 A 
ATOM     10  C   UNL     1       3.774   3.263  20.412  0.00  0.00    +0.000 A 
ATOM     11  C   UNL     1       3.901   4.351  19.537  0.00  0.00    +0.000 A 
ATOM     12  C   UNL     1       5.139   4.521  18.755  0.00  0.00    +0.000 C 
ATOM     13  O   UNL     1       6.074   3.742  18.910  0.00  0.00    +0.000 OA
BRANCH   3  14
ATOM     14  O   UNL     1       4.288   7.654  16.867  0.00  0.00    +0.000 OA
ATOM     15  H   UNL     1       4.423   8.446  17.431  0.00  0.00    +0.000 HD
ENDBRANCH   3  14
ENDBRANCH   1   2
BRANCH   1  16
ATOM     16  C   UNL     1       6.420   5.054  15.674  0.00  0.00    +0.000 A 
ATOM     17  C   UNL     1       7.355   5.337  14.660  0.00  0.00    +0.000 A 
ATOM     18  C   UNL     1       7.292   4.689  13.426  0.00  0.00    +0.000 A 
ATOM     19  C   UNL     1       6.281   3.745  13.193  0.00  0.00    +0.000 A 
ATOM     20  C   UNL     1       5.345   3.452  14.186  0.00  0.00    +0.000 A 
ATOM     21  C   UNL     1       5.419   4.098  15.419  0.00  0.00    +0.000 A 
BRANCH  19  22
ATOM     22  N   UNL     1       6.207   3.051  11.900  0.00  0.00    +0.000 N 
ATOM     23  O   UNL     1       7.271   2.656  11.404  0.00  0.00    +0.000 OA
ATOM     24  O   UNL     1       5.092   2.906  11.385  0.00  0.00    +0.000 OA
ENDBRANCH  19  22
ENDBRANCH   1  16
BRANCH   1  25
ATOM     25  N   UNL     1       6.988   7.168  16.836  0.00  0.00    +0.000 NA
ATOM     26  H   UNL     1       7.590   7.170  16.008  0.00  0.00    +0.000 HD
BRANCH  25  27
ATOM     27  C   UNL     1       7.782   7.691  17.960  0.00  0.00    +0.000 C 
BRANCH  27  28
ATOM     28  C   UNL     1       8.015   9.192  17.893  0.00  0.00    +0.000 C 
BRANCH  28  29
ATOM     29  C   UNL     1       9.069   9.613  18.903  0.00  0.00    +0.000 C 
BRANCH  29  30
ATOM     30  C   UNL     1       9.896  10.754  18.332  0.00  0.00    +0.000 C 
BRANCH  30  31
ATOM     31  C   UNL     1       9.319  12.091  18.770  0.00  0.00    +0.000 C 
BRANCH  31  33
ATOM     32  C   UNL     1      11.621  12.267  19.725  0.00  0.00    +0.000 C 
ATOM     33  C   UNL     1      10.426  13.043  19.201  0.00  0.00    +0.000 C 
ENDBRANCH  31  33
ENDBRANCH  30  31
ENDBRANCH  29  30
ENDBRANCH  28  29
ENDBRANCH  27  28
ENDBRANCH  25  27
ENDBRANCH   1  25
TORSDOF 11
ENDMDL
MODEL 3
REMARK VINA RESULT:      -7.8      2.488      7.297
REMARK  Name = 
REMARK  12 active torsions:
REMARK  status: ('A' for Active; 'I' for Inactive)
REMARK    1  A    between atoms: C_1  and  C_2
REMARK    2  A    between atoms: C_2  and  C_3
REMARK    3  A    between atoms: C_3  and  C_4
REMARK    4  A    between atoms: C_4  and  C_5
REMARK    5  A    between atoms: C_5  and  C_6
REMARK    6  A    between atoms: C_6  and  C_7
REMARK    7  A    between atoms: C_7  and  N_8
REMARK    8  A    between atoms: N_8  and  C_9
REMARK    9  A    between atoms: C_9  and  C_10
REMARK   10  A    between atoms: C_9  and  C_23
REMARK   11  A    between atoms: C_11  and  O_12
REMARK   12  A    between atoms: C_26  and  N_27
REMARK                            x       y       z     vdW  Elec       q    Type
REMARK                         _______ _______ _______ _____ _____    ______ ____
ROOT
ATOM      1  C   UNL     1       6.498   6.466  16.854  0.00  0.00    +0.000 C 
ENDROOT
BRANCH   1   2
ATOM      2  C   UNL     1       5.617   5.734  17.854  0.00  0.00    +0.000 C 
ATOM      3  C   UNL     1       5.919   4.546  18.413  0.00  0.00    +0.000 C 
ATOM      4  C   UNL     1       4.985   3.849  19.340  0.00  0.00    +0.000 C 
ATOM      5  O   UNL     1       5.238   2.741  19.801  0.00  0.00    +0.000 OA
ATOM      6  C   UNL     1       3.723   4.520  19.678  0.00  0.00    +0.000 A 
ATOM      7  C   UNL     1       2.848   3.913  20.590  0.00  0.00    +0.000 A 
ATOM      8  C   UNL     1       1.642   4.531  20.917  0.00  0.00    +0.000 A 
ATOM      9  C   UNL     1       1.300   5.746  20.326  0.00  0.00    +0.000 A 
ATOM     10  C   UNL     1       2.168   6.348  19.413  0.00  0.00    +0.000 A 
ATOM     11  C   UNL     1       3.388   5.736  19.094  0.00  0.00    +0.000 A 
ATOM     12  C   UNL     1       4.303   6.382  18.135  0.00  0.00    +0.000 C 
ATOM     13  O   UNL     1       3.973   7.425  17.580  0.00  0.00    +0.000 OA
BRANCH   3  14
ATOM     14  O   UNL     1       7.105   3.880  18.128  0.00  0.00    +0.000 OA
ATOM     15  H   UNL     1       7.836   4.377  18.555  0.00  0.00    +0.000 HD
ENDBRANCH   3  14
ENDBRANCH   1   2
BRANCH   1  16
ATOM     16  C   UNL     1       7.296   7.570  17.554  0.00  0.00    +0.000 A 
ATOM     17  C   UNL     1       8.155   7.238  18.619  0.00  0.00    +0.000 A 
ATOM     18  C   UNL     1       8.917   8.217  19.257  0.00  0.00    +0.000 A 
ATOM     19  C   UNL     1       8.824   9.551  18.831  0.00  0.00    +0.000 A 
ATOM     20  C   UNL     1       7.978   9.898  17.777  0.00  0.00    +0.000 A 
ATOM     21  C   UNL     1       7.225   8.914  17.140  0.00  0.00    +0.000 A 
BRANCH  19  22
ATOM     22  N   UNL     1       9.626  10.590  19.490  0.00  0.00    +0.000 N 
ATOM     23  O   UNL     1       9.431  10.781  20.697  0.00  0.00    +0.000 OA
ATOM     24  O   UNL     1      10.443  11.214  18.800  0.00  0.00    +0.000 OA
ENDBRANCH  19  22
ENDBRANCH   1  16
BRANCH   1  25
ATOM     25  N   UNL     1       7.421   5.554  16.119  0.00  0.00    +0.000 NA
ATOM     26  H   UNL     1       8.331   6.024  16.088  0.00  0.00    +0.000 HD
BRANCH  25  27
ATOM     27  C   UNL     1       7.012   5.294  14.730  0.00  0.00    +0.000 C 
BRANCH  27  28
ATOM     28  C   UNL     1       6.225   4.004  14.558  0.00  0.00    +0.000 C 
BRANCH  28  29
ATOM     29  C   UNL     1       5.429   4.035  13.264  0.00  0.00    +0.000 C 
BRANCH  29  30
ATOM     30  C   UNL     1       6.110   3.157  12.225  0.00  0.00    +0.000 C 
BRANCH  30  31
ATOM     31  C   UNL     1       5.085   2.615  11.241  0.00  0.00    +0.000 C 
BRANCH  31  33
ATOM     32  C   UNL     1       3.174   3.650  10.009  0.00  0.00    +0.000 C 
ATOM     33  C   UNL     1       3.761   3.357  11.377  0.00  0.00    +0.000 C 
ENDBRANCH  31  33
ENDBRANCH  30  31
ENDBRANCH  29  30
ENDBRANCH  28  29
ENDBRANCH  27  28
ENDBRANCH  25  27
ENDBRANCH   1  25
TORSDOF 11
ENDMDL
MODEL 4
REMARK VINA RESULT:      -7.6      0.781      1.165
REMARK  Name = 
REMARK  12 active torsions:
REMARK  status: ('A' for Active; 'I' for Inactive)
REMARK    1  A    between atoms: C_1  and  C_2
REMARK    2  A    between atoms: C_2  and  C_3
REMARK    3  A    between atoms: C_3  and  C_4
REMARK    4  A    between atoms: C_4  and  C_5
REMARK    5  A    between atoms: C_5  and  C_6
REMARK    6  A    between atoms: C_6  and  C_7
REMARK    7  A    between atoms: C_7  and  N_8
REMARK    8  A    between atoms: N_8  and  C_9
REMARK    9  A    between atoms: C_9  and  C_10
REMARK   10  A    between atoms: C_9  and  C_23
REMARK   11  A    between atoms: C_11  and  O_12
REMARK   12  A    between atoms: C_26  and  N_27
REMARK                            x       y       z     vdW  Elec       q    Type
REMARK                         _______ _______ _______ _____ _____    ______ ____
ROOT
ATOM      1  C   UNL     1       6.214   6.024  17.387  0.00  0.00    +0.000 C 
ENDROOT
BRANCH   1   2
ATOM      2  C   UNL     1       4.921   5.749  18.139  0.00  0.00    +0.000 C 
ATOM      3  C   UNL     1       3.850   6.565  18.142  0.00  0.00    +0.000 C 
ATOM      4  C   UNL     1       2.634   6.270  18.949  0.00  0.00    +0.000 C 
ATOM      5  O   UNL     1       1.684   7.045  18.996  0.00  0.00    +0.000 OA
ATOM      6  C   UNL     1       2.606   5.019  19.719  0.00  0.00    +0.000 A 
ATOM      7  C   UNL     1       1.454   4.688  20.445  0.00  0.00    +0.000 A 
ATOM      8  C   UNL     1       1.412   3.509  21.188  0.00  0.00    +0.000 A 
ATOM      9  C   UNL     1       2.522   2.667  21.219  0.00  0.00    +0.000 A 
ATOM     10  C   UNL     1       3.672   2.999  20.501  0.00  0.00    +0.000 A 
ATOM     11  C   UNL     1       3.711   4.177  19.742  0.00  0.00    +0.000 A 
ATOM     12  C   UNL     1       4.926   4.516  18.979  0.00  0.00    +0.000 C 
ATOM     13  O   UNL     1       5.917   3.797  19.052  0.00  0.00    +0.000 OA
BRANCH   3  14
ATOM     14  O   UNL     1       3.829   7.754  17.422  0.00  0.00    +0.000 OA
ATOM     15  H   UNL     1       2.904   7.914  17.139  0.00  0.00    +0.000 HD
ENDBRANCH   3  14
ENDBRANCH   1   2
BRANCH   1  16
ATOM     16  C   UNL     1       6.211   5.299  16.038  0.00  0.00    +0.000 A 
ATOM     17  C   UNL     1       5.002   4.792  15.523  0.00  0.00    +0.000 A 
ATOM     18  C   UNL     1       4.964   4.154  14.283  0.00  0.00    +0.000 A 
ATOM     19  C   UNL     1       6.146   4.012  13.542  0.00  0.00    +0.000 A 
ATOM     20  C   UNL     1       7.354   4.507  14.037  0.00  0.00    +0.000 A 
ATOM     21  C   UNL     1       7.383   5.151  15.272  0.00  0.00    +0.000 A 
BRANCH  19  22
ATOM     22  N   UNL     1       6.118   3.347  12.232  0.00  0.00    +0.000 N 
ATOM     23  O   UNL     1       5.027   2.917  11.835  0.00  0.00    +0.000 OA
ATOM     24  O   UNL     1       7.182   3.255  11.608  0.00  0.00    +0.000 OA
ENDBRANCH  19  22
ENDBRANCH   1  16
BRANCH   1  25
ATOM     25  N   UNL     1       6.467   7.480  17.185  0.00  0.00    +0.000 NA
ATOM     26  H   UNL     1       6.449   7.641  16.173  0.00  0.00    +0.000 HD
BRANCH  25  27
ATOM     27  C   UNL     1       7.781   7.924  17.678  0.00  0.00    +0.000 C 
BRANCH  27  28
ATOM     28  C   UNL     1       7.868   9.424  17.913  0.00  0.00    +0.000 C 
BRANCH  28  29
ATOM     29  C   UNL     1       9.272   9.815  18.341  0.00  0.00    +0.000 C 
BRANCH  29  30
ATOM     30  C   UNL     1       9.228  10.435  19.729  0.00  0.00    +0.000 C 
BRANCH  30  31
ATOM     31  C   UNL     1       9.666  11.890  19.669  0.00  0.00    +0.000 C 
BRANCH  31  33
ATOM     32  C   UNL     1       9.379  12.844  21.959  0.00  0.00    +0.000 C 
ATOM     33  C   UNL     1      10.374  12.295  20.954  0.00  0.00    +0.000 C 
ENDBRANCH  31  33
ENDBRANCH  30  31
ENDBRANCH  29  30
ENDBRANCH  28  29
ENDBRANCH  27  28
ENDBRANCH  25  27
ENDBRANCH   1  25
TORSDOF 11
ENDMDL
MODEL 5
REMARK VINA RESULT:      -7.5      1.420      2.825
REMARK  Name = 
REMARK  12 active torsions:
REMARK  status: ('A' for Active; 'I' for Inactive)
REMARK    1  A    between atoms: C_1  and  C_2
REMARK    2  A    between atoms: C_2  and  C_3
REMARK    3  A    between atoms: C_3  and  C_4
REMARK    4  A    between atoms: C_4  and  C_5
REMARK    5  A    between atoms: C_5  and  C_6
REMARK    6  A    between atoms: C_6  and  C_7
REMARK    7  A    between atoms: C_7  and  N_8
REMARK    8  A    between atoms: N_8  and  C_9
REMARK    9  A    between atoms: C_9  and  C_10
REMARK   10  A    between atoms: C_9  and  C_23
REMARK   11  A    between atoms: C_11  and  O_12
REMARK   12  A    between atoms: C_26  and  N_27
REMARK                            x       y       z     vdW  Elec       q    Type
REMARK                         _______ _______ _______ _____ _____    ______ ____
ROOT
ATOM      1  C   UNL     1       6.817   5.407  16.877  0.00  0.00    +0.000 C 
ENDROOT
BRANCH   1   2
ATOM      2  C   UNL     1       5.593   5.731  17.718  0.00  0.00    +0.000 C 
ATOM      3  C   UNL     1       5.190   5.019  18.788  0.00  0.00    +0.000 C 
ATOM      4  C   UNL     1       3.945   5.351  19.534  0.00  0.00    +0.000 C 
ATOM      5  O   UNL     1       3.550   4.666  20.472  0.00  0.00    +0.000 OA
ATOM      6  C   UNL     1       3.176   6.525  19.102  0.00  0.00    +0.000 A 
ATOM      7  C   UNL     1       2.029   6.895  19.819  0.00  0.00    +0.000 A 
ATOM      8  C   UNL     1       1.282   8.001  19.419  0.00  0.00    +0.000 A 
ATOM      9  C   UNL     1       1.668   8.732  18.297  0.00  0.00    +0.000 A 
ATOM     10  C   UNL     1       2.807   8.362  17.579  0.00  0.00    +0.000 A 
ATOM     11  C   UNL     1       3.568   7.257  17.988  0.00  0.00    +0.000 A 
ATOM     12  C   UNL     1       4.774   6.878  17.230  0.00  0.00    +0.000 C 
ATOM     13  O   UNL     1       5.078   7.494  16.214  0.00  0.00    +0.000 OA
BRANCH   3  14
ATOM     14  O   UNL     1       5.891   3.906  19.237  0.00  0.00    +0.000 OA
ATOM     15  H   UNL     1       5.263   3.341  19.736  0.00  0.00    +0.000 HD
ENDBRANCH   3  14
ENDBRANCH   1   2
BRANCH   1  16
ATOM     16  C   UNL     1       6.398   4.785  15.542  0.00  0.00    +0.000 A 
ATOM     17  C   UNL     1       7.224   4.941  14.412  0.00  0.00    +0.000 A 
ATOM     18  C   UNL     1       6.883   4.360  13.190  0.00  0.00    +0.000 A 
ATOM     19  C   UNL     1       5.700   3.614  13.085  0.00  0.00    +0.000 A 
ATOM     20  C   UNL     1       4.868   3.450  14.195  0.00  0.00    +0.000 A 
ATOM     21  C   UNL     1       5.219   4.026  15.414  0.00  0.00    +0.000 A 
BRANCH  19  22
ATOM     22  N   UNL     1       5.333   2.993  11.806  0.00  0.00    +0.000 N 
ATOM     23  O   UNL     1       4.333   3.435  11.225  0.00  0.00    +0.000 OA
ATOM     24  O   UNL     1       6.040   2.067  11.390  0.00  0.00    +0.000 OA
ENDBRANCH  19  22
ENDBRANCH   1  16
BRANCH   1  25
ATOM     25  N   UNL     1       7.687   6.596  16.638  0.00  0.00    +0.000 NA
ATOM     26  H   UNL     1       8.562   6.241  16.241  0.00  0.00    +0.000 HD
BRANCH  25  27
ATOM     27  C   UNL     1       8.027   7.334  17.865  0.00  0.00    +0.000 C 
BRANCH  27  28
ATOM     28  C   UNL     1       7.939   8.844  17.711  0.00  0.00    +0.000 C 
BRANCH  28  29
ATOM     29  C   UNL     1       8.771   9.536  18.778  0.00  0.00    +0.000 C 
BRANCH  29  30
ATOM     30  C   UNL     1       9.461  10.751  18.177  0.00  0.00    +0.000 C 
BRANCH  30  31
ATOM     31  C   UNL     1      10.140  11.563  19.269  0.00  0.00    +0.000 C 
BRANCH  31  33
ATOM     32  C   UNL     1       9.221  12.313  21.467  0.00  0.00    +0.000 C 
ATOM     33  C   UNL     1       9.668  11.117  20.646  0.00  0.00    +0.000 C 
ENDBRANCH  31  33
ENDBRANCH  30  31
ENDBRANCH  29  30
ENDBRANCH  28  29
ENDBRANCH  27  28
ENDBRANCH  25  27
ENDBRANCH   1  25
TORSDOF 11
ENDMDL
MODEL 6
REMARK VINA RESULT:      -7.5      2.440      7.254
REMARK  Name = 
REMARK  12 active torsions:
REMARK  status: ('A' for Active; 'I' for Inactive)
REMARK    1  A    between atoms: C_1  and  C_2
REMARK    2  A    between atoms: C_2  and  C_3
REMARK    3  A    between atoms: C_3  and  C_4
REMARK    4  A    between atoms: C_4  and  C_5
REMARK    5  A    between atoms: C_5  and  C_6
REMARK    6  A    between atoms: C_6  and  C_7
REMARK    7  A    between atoms: C_7  and  N_8
REMARK    8  A    between atoms: N_8  and  C_9
REMARK    9  A    between atoms: C_9  and  C_10
REMARK   10  A    between atoms: C_9  and  C_23
REMARK   11  A    between atoms: C_11  and  O_12
REMARK   12  A    between atoms: C_26  and  N_27
REMARK                            x       y       z     vdW  Elec       q    Type
REMARK                         _______ _______ _______ _____ _____    ______ ____
ROOT
ATOM      1  C   UNL     1       6.432   6.528  16.816  0.00  0.00    +0.000 C 
ENDROOT
BRANCH   1   2
ATOM      2  C   UNL     1       5.570   5.766  17.811  0.00  0.00    +0.000 C 
ATOM      3  C   UNL     1       5.897   4.577  18.351  0.00  0.00    +0.000 C 
ATOM      4  C   UNL     1       4.980   3.850  19.273  0.00  0.00    +0.000 C 
ATOM      5  O   UNL     1       5.255   2.741  19.718  0.00  0.00    +0.000 OA
ATOM      6  C   UNL     1       3.708   4.494  19.628  0.00  0.00    +0.000 A 
ATOM      7  C   UNL     1       2.850   3.859  20.536  0.00  0.00    +0.000 A 
ATOM      8  C   UNL     1       1.634   4.451  20.878  0.00  0.00    +0.000 A 
ATOM      9  C   UNL     1       1.268   5.668  20.306  0.00  0.00    +0.000 A 
ATOM     10  C   UNL     1       2.120   6.298  19.397  0.00  0.00    +0.000 A 
ATOM     11  C   UNL     1       3.349   5.711  19.062  0.00  0.00    +0.000 A 
ATOM     12  C   UNL     1       4.247   6.387  18.108  0.00  0.00    +0.000 C 
ATOM     13  O   UNL     1       3.895   7.431  17.569  0.00  0.00    +0.000 OA
BRANCH   3  14
ATOM     14  O   UNL     1       7.092   3.936  18.051  0.00  0.00    +0.000 OA
ATOM     15  H   UNL     1       6.908   2.974  17.995  0.00  0.00    +0.000 HD
ENDBRANCH   3  14
ENDBRANCH   1   2
BRANCH   1  16
ATOM     16  C   UNL     1       7.250   7.605  17.534  0.00  0.00    +0.000 A 
ATOM     17  C   UNL     1       8.175   7.229  18.528  0.00  0.00    +0.000 A 
ATOM     18  C   UNL     1       8.956   8.185  19.178  0.00  0.00    +0.000 A 
ATOM     19  C   UNL     1       8.816   9.538  18.839  0.00  0.00    +0.000 A 
ATOM     20  C   UNL     1       7.904   9.930  17.857  0.00  0.00    +0.000 A 
ATOM     21  C   UNL     1       7.133   8.969  17.206  0.00  0.00    +0.000 A 
BRANCH  19  22
ATOM     22  N   UNL     1       9.637  10.554  19.511  0.00  0.00    +0.000 N 
ATOM     23  O   UNL     1       9.400  10.778  20.706  0.00  0.00    +0.000 OA
ATOM     24  O   UNL     1      10.510  11.125  18.846  0.00  0.00    +0.000 OA
ENDBRANCH  19  22
ENDBRANCH   1  16
BRANCH   1  25
ATOM     25  N   UNL     1       7.336   5.637  16.032  0.00  0.00    +0.000 NA
ATOM     26  H   UNL     1       8.225   6.136  15.935  0.00  0.00    +0.000 HD
BRANCH  25  27
ATOM     27  C   UNL     1       6.844   5.346  14.675  0.00  0.00    +0.000 C 
BRANCH  27  28
ATOM     28  C   UNL     1       6.458   3.890  14.467  0.00  0.00    +0.000 C 
BRANCH  28  29
ATOM     29  C   UNL     1       5.315   3.780  13.471  0.00  0.00    +0.000 C 
BRANCH  29  30
ATOM     30  C   UNL     1       5.872   3.478  12.088  0.00  0.00    +0.000 C 
BRANCH  30  31
ATOM     31  C   UNL     1       5.116   2.318  11.459  0.00  0.00    +0.000 C 
BRANCH  31  33
ATOM     32  C   UNL     1       7.500   1.716  11.015  0.00  0.00    +0.000 C 
ATOM     33  C   UNL     1       6.073   1.202  11.063  0.00  0.00    +0.000 C 
ENDBRANCH  31  33
ENDBRANCH  30  31
ENDBRANCH  29  30
ENDBRANCH  28  29
ENDBRANCH  27  28
ENDBRANCH  25  27
ENDBRANCH   1  25
TORSDOF 11
ENDMDL
MODEL 7
REMARK VINA RESULT:      -7.4      2.414      7.176
REMARK  Name = 
REMARK  12 active torsions:
REMARK  status: ('A' for Active; 'I' for Inactive)
REMARK    1  A    between atoms: C_1  and  C_2
REMARK    2  A    between atoms: C_2  and  C_3
REMARK    3  A    between atoms: C_3  and  C_4
REMARK    4  A    between atoms: C_4  and  C_5
REMARK    5  A    between atoms: C_5  and  C_6
REMARK    6  A    between atoms: C_6  and  C_7
REMARK    7  A    between atoms: C_7  and  N_8
REMARK    8  A    between atoms: N_8  and  C_9
REMARK    9  A    between atoms: C_9  and  C_10
REMARK   10  A    between atoms: C_9  and  C_23
REMARK   11  A    between atoms: C_11  and  O_12
REMARK   12  A    between atoms: C_26  and  N_27
REMARK                            x       y       z     vdW  Elec       q    Type
REMARK                         _______ _______ _______ _____ _____    ______ ____
ROOT
ATOM      1  C   UNL     1       6.333   6.549  16.785  0.00  0.00    +0.000 C 
ENDROOT
BRANCH   1   2
ATOM      2  C   UNL     1       5.511   5.751  17.784  0.00  0.00    +0.000 C 
ATOM      3  C   UNL     1       5.877   4.559  18.295  0.00  0.00    +0.000 C 
ATOM      4  C   UNL     1       4.999   3.796  19.224  0.00  0.00    +0.000 C 
ATOM      5  O   UNL     1       5.309   2.685  19.642  0.00  0.00    +0.000 OA
ATOM      6  C   UNL     1       3.721   4.403  19.620  0.00  0.00    +0.000 A 
ATOM      7  C   UNL     1       2.898   3.733  20.536  0.00  0.00    +0.000 A 
ATOM      8  C   UNL     1       1.679   4.291  20.916  0.00  0.00    +0.000 A 
ATOM      9  C   UNL     1       1.272   5.509  20.376  0.00  0.00    +0.000 A 
ATOM     10  C   UNL     1       2.088   6.175  19.459  0.00  0.00    +0.000 A 
ATOM     11  C   UNL     1       3.322   5.623  19.085  0.00  0.00    +0.000 A 
ATOM     12  C   UNL     1       4.182   6.335  18.124  0.00  0.00    +0.000 C 
ATOM     13  O   UNL     1       3.794   7.381  17.612  0.00  0.00    +0.000 OA
BRANCH   3  14
ATOM     14  O   UNL     1       7.079   3.951  17.956  0.00  0.00    +0.000 OA
ATOM     15  H   UNL     1       6.966   3.542  17.071  0.00  0.00    +0.000 HD
ENDBRANCH   3  14
ENDBRANCH   1   2
BRANCH   1  16
ATOM     16  C   UNL     1       7.228   7.555  17.513  0.00  0.00    +0.000 A 
ATOM     17  C   UNL     1       7.173   8.918  17.162  0.00  0.00    +0.000 A 
ATOM     18  C   UNL     1       7.955   9.862  17.828  0.00  0.00    +0.000 A 
ATOM     19  C   UNL     1       8.809   9.447  18.860  0.00  0.00    +0.000 A 
ATOM     20  C   UNL     1       8.878   8.100  19.222  0.00  0.00    +0.000 A 
ATOM     21  C   UNL     1       8.088   7.164  18.557  0.00  0.00    +0.000 A 
BRANCH  19  22
ATOM     22  N   UNL     1       9.633  10.431  19.574  0.00  0.00    +0.000 N 
ATOM     23  O   UNL     1      10.571  10.947  18.952  0.00  0.00    +0.000 OA
ATOM     24  O   UNL     1       9.344  10.683  20.751  0.00  0.00    +0.000 OA
ENDBRANCH  19  22
ENDBRANCH   1  16
BRANCH   1  25
ATOM     25  N   UNL     1       7.156   5.685  15.890  0.00  0.00    +0.000 NA
ATOM     26  H   UNL     1       8.023   6.199  15.705  0.00  0.00    +0.000 HD
BRANCH  25  27
ATOM     27  C   UNL     1       6.522   5.409  14.591  0.00  0.00    +0.000 C 
BRANCH  27  28
ATOM     28  C   UNL     1       6.456   3.929  14.248  0.00  0.00    +0.000 C 
BRANCH  28  29
ATOM     29  C   UNL     1       5.178   3.616  13.486  0.00  0.00    +0.000 C 
BRANCH  29  30
ATOM     30  C   UNL     1       5.501   3.406  12.015  0.00  0.00    +0.000 C 
BRANCH  30  31
ATOM     31  C   UNL     1       6.997   3.209  11.828  0.00  0.00    +0.000 C 
BRANCH  31  33
ATOM     32  C   UNL     1       6.027   1.021  11.110  0.00  0.00    +0.000 C 
ATOM     33  C   UNL     1       7.288   1.864  11.176  0.00  0.00    +0.000 C 
ENDBRANCH  31  33
ENDBRANCH  30  31
ENDBRANCH  29  30
ENDBRANCH  28  29
ENDBRANCH  27  28
ENDBRANCH  25  27
ENDBRANCH   1  25
TORSDOF 11
ENDMDL
MODEL 8
REMARK VINA RESULT:      -7.3      2.589      6.739
REMARK  Name = 
REMARK  12 active torsions:
REMARK  status: ('A' for Active; 'I' for Inactive)
REMARK    1  A    between atoms: C_1  and  C_2
REMARK    2  A    between atoms: C_2  and  C_3
REMARK    3  A    between atoms: C_3  and  C_4
REMARK    4  A    between atoms: C_4  and  C_5
REMARK    5  A    between atoms: C_5  and  C_6
REMARK    6  A    between atoms: C_6  and  C_7
REMARK    7  A    between atoms: C_7  and  N_8
REMARK    8  A    between atoms: N_8  and  C_9
REMARK    9  A    between atoms: C_9  and  C_10
REMARK   10  A    between atoms: C_9  and  C_23
REMARK   11  A    between atoms: C_11  and  O_12
REMARK   12  A    between atoms: C_26  and  N_27
REMARK                            x       y       z     vdW  Elec       q    Type
REMARK                         _______ _______ _______ _____ _____    ______ ____
ROOT
ATOM      1  C   UNL     1       6.051   5.909  16.960  0.00  0.00    +0.000 C 
ENDROOT
BRANCH   1   2
ATOM      2  C   UNL     1       4.850   5.659  17.858  0.00  0.00    +0.000 C 
ATOM      3  C   UNL     1       3.790   6.483  17.963  0.00  0.00    +0.000 C 
ATOM      4  C   UNL     1       2.671   6.214  18.909  0.00  0.00    +0.000 C 
ATOM      5  O   UNL     1       1.736   6.996  19.045  0.00  0.00    +0.000 OA
ATOM      6  C   UNL     1       2.724   4.980  19.704  0.00  0.00    +0.000 A 
ATOM      7  C   UNL     1       1.659   4.672  20.562  0.00  0.00    +0.000 A 
ATOM      8  C   UNL     1       1.696   3.509  21.331  0.00  0.00    +0.000 A 
ATOM      9  C   UNL     1       2.798   2.660  21.255  0.00  0.00    +0.000 A 
ATOM     10  C   UNL     1       3.862   2.969  20.405  0.00  0.00    +0.000 A 
ATOM     11  C   UNL     1       3.821   4.130  19.621  0.00  0.00    +0.000 A 
ATOM     12  C   UNL     1       4.944   4.445  18.719  0.00  0.00    +0.000 C 
ATOM     13  O   UNL     1       5.934   3.720  18.697  0.00  0.00    +0.000 OA
BRANCH   3  14
ATOM     14  O   UNL     1       3.694   7.656  17.225  0.00  0.00    +0.000 OA
ATOM     15  H   UNL     1       4.393   7.632  16.537  0.00  0.00    +0.000 HD
ENDBRANCH   3  14
ENDBRANCH   1   2
BRANCH   1  16
ATOM     16  C   UNL     1       6.907   7.049  17.519  0.00  0.00    +0.000 A 
ATOM     17  C   UNL     1       7.852   6.780  18.528  0.00  0.00    +0.000 A 
ATOM     18  C   UNL     1       8.667   7.792  19.035  0.00  0.00    +0.000 A 
ATOM     19  C   UNL     1       8.540   9.097  18.536  0.00  0.00    +0.000 A 
ATOM     20  C   UNL     1       7.608   9.383  17.537  0.00  0.00    +0.000 A 
ATOM     21  C   UNL     1       6.803   8.365  17.029  0.00  0.00    +0.000 A 
BRANCH  19  22
ATOM     22  N   UNL     1       9.396  10.170  19.057  0.00  0.00    +0.000 N 
ATOM     23  O   UNL     1      10.078  10.803  18.240  0.00  0.00    +0.000 OA
ATOM     24  O   UNL     1       9.388  10.375  20.278  0.00  0.00    +0.000 OA
ENDBRANCH  19  22
ENDBRANCH   1  16
BRANCH   1  25
ATOM     25  N   UNL     1       6.889   4.691  16.761  0.00  0.00    +0.000 NA
ATOM     26  H   UNL     1       7.750   4.838  17.296  0.00  0.00    +0.000 HD
BRANCH  25  27
ATOM     27  C   UNL     1       7.275   4.464  15.359  0.00  0.00    +0.000 C 
BRANCH  27  28
ATOM     28  C   UNL     1       6.254   4.975  14.356  0.00  0.00    +0.000 C 
BRANCH  28  29
ATOM     29  C   UNL     1       5.544   3.814  13.679  0.00  0.00    +0.000 C 
BRANCH  29  30
ATOM     30  C   UNL     1       6.148   3.580  12.303  0.00  0.00    +0.000 C 
BRANCH  30  31
ATOM     31  C   UNL     1       5.206   2.741  11.453  0.00  0.00    +0.000 C 
BRANCH  31  33
ATOM     32  C   UNL     1       3.403   3.756  10.053  0.00  0.00    +0.000 C 
ATOM     33  C   UNL     1       3.804   3.334  11.454  0.00  0.00    +0.000 C 
ENDBRANCH  31  33
ENDBRANCH  30  31
ENDBRANCH  29  30
ENDBRANCH  28  29
ENDBRANCH  27  28
ENDBRANCH  25  27
ENDBRANCH   1  25
TORSDOF 11
ENDMDL
MODEL 9
REMARK VINA RESULT:      -7.3      1.525      2.757
REMARK  Name = 
REMARK  12 active torsions:
REMARK  status: ('A' for Active; 'I' for Inactive)
REMARK    1  A    between atoms: C_1  and  C_2
REMARK    2  A    between atoms: C_2  and  C_3
REMARK    3  A    between atoms: C_3  and  C_4
REMARK    4  A    between atoms: C_4  and  C_5
REMARK    5  A    between atoms: C_5  and  C_6
REMARK    6  A    between atoms: C_6  and  C_7
REMARK    7  A    between atoms: C_7  and  N_8
REMARK    8  A    between atoms: N_8  and  C_9
REMARK    9  A    between atoms: C_9  and  C_10
REMARK   10  A    between atoms: C_9  and  C_23
REMARK   11  A    between atoms: C_11  and  O_12
REMARK   12  A    between atoms: C_26  and  N_27
REMARK                            x       y       z     vdW  Elec       q    Type
REMARK                         _______ _______ _______ _____ _____    ______ ____
ROOT
ATOM      1  C   UNL     1       6.895   5.455  16.982  0.00  0.00    +0.000 C 
ENDROOT
BRANCH   1   2
ATOM      2  C   UNL     1       5.639   5.761  17.782  0.00  0.00    +0.000 C 
ATOM      3  C   UNL     1       5.207   5.038  18.833  0.00  0.00    +0.000 C 
ATOM      4  C   UNL     1       3.933   5.352  19.538  0.00  0.00    +0.000 C 
ATOM      5  O   UNL     1       3.513   4.656  20.457  0.00  0.00    +0.000 OA
ATOM      6  C   UNL     1       3.167   6.521  19.086  0.00  0.00    +0.000 A 
ATOM      7  C   UNL     1       1.993   6.874  19.765  0.00  0.00    +0.000 A 
ATOM      8  C   UNL     1       1.248   7.975  19.346  0.00  0.00    +0.000 A 
ATOM      9  C   UNL     1       1.665   8.718  18.243  0.00  0.00    +0.000 A 
ATOM     10  C   UNL     1       2.832   8.364  17.562  0.00  0.00    +0.000 A 
ATOM     11  C   UNL     1       3.590   7.265  17.991  0.00  0.00    +0.000 A 
ATOM     12  C   UNL     1       4.825   6.903  17.272  0.00  0.00    +0.000 C 
ATOM     13  O   UNL     1       5.158   7.528  16.272  0.00  0.00    +0.000 OA
BRANCH   3  14
ATOM     14  O   UNL     1       5.904   3.929  19.299  0.00  0.00    +0.000 OA
ATOM     15  H   UNL     1       6.426   4.213  20.080  0.00  0.00    +0.000 HD
ENDBRANCH   3  14
ENDBRANCH   1   2
BRANCH   1  16
ATOM     16  C   UNL     1       6.531   4.807  15.644  0.00  0.00    +0.000 A 
ATOM     17  C   UNL     1       5.391   3.984  15.557  0.00  0.00    +0.000 A 
ATOM     18  C   UNL     1       5.017   3.404  14.344  0.00  0.00    +0.000 A 
ATOM     19  C   UNL     1       5.788   3.641  13.197  0.00  0.00    +0.000 A 
ATOM     20  C   UNL     1       6.922   4.453  13.265  0.00  0.00    +0.000 A 
ATOM     21  C   UNL     1       7.285   5.036  14.477  0.00  0.00    +0.000 A 
BRANCH  19  22
ATOM     22  N   UNL     1       5.402   3.042  11.914  0.00  0.00    +0.000 N 
ATOM     23  O   UNL     1       4.356   3.445  11.389  0.00  0.00    +0.000 OA
ATOM     24  O   UNL     1       6.140   2.170  11.437  0.00  0.00    +0.000 OA
ENDBRANCH  19  22
ENDBRANCH   1  16
BRANCH   1  25
ATOM     25  N   UNL     1       7.743   6.661  16.752  0.00  0.00    +0.000 NA
ATOM     26  H   UNL     1       8.639   6.322  16.387  0.00  0.00    +0.000 HD
BRANCH  25  27
ATOM     27  C   UNL     1       8.028   7.424  17.978  0.00  0.00    +0.000 C 
BRANCH  27  28
ATOM     28  C   UNL     1       8.031   8.930  17.771  0.00  0.00    +0.000 C 
BRANCH  28  29
ATOM     29  C   UNL     1       8.910   9.608  18.809  0.00  0.00    +0.000 C 
BRANCH  29  30
ATOM     30  C   UNL     1       9.640  10.781  18.172  0.00  0.00    +0.000 C 
BRANCH  30  31
ATOM     31  C   UNL     1       8.665  11.910  17.879  0.00  0.00    +0.000 C 
BRANCH  31  33
ATOM     32  C   UNL     1       8.282  14.371  18.074  0.00  0.00    +0.000 C 
ATOM     33  C   UNL     1       9.320  13.264  18.111  0.00  0.00    +0.000 C 
ENDBRANCH  31  33
ENDBRANCH  30  31
ENDBRANCH  29  30
ENDBRANCH  28  29
ENDBRANCH  27  28
ENDBRANCH  25  27
ENDBRANCH   1  25
TORSDOF 11
ENDMDL
