MODEL 1
REMARK VINA RESULT:      -7.7      0.000      0.000
REMARK  Name = 
REMARK  8 active torsions:
REMARK  status: ('A' for Active; 'I' for Inactive)
REMARK    1  A    between atoms: O_1  and  C_2
REMARK    2  A    between atoms: C_2  and  C_3
REMARK    3  A    between atoms: C_2  and  C_21
REMARK    4  A    between atoms: C_3  and  O_4
REMARK    5  A    between atoms: O_4  and  C_5
REMARK    6  A    between atoms: C_9  and  C_10
REMARK    7  A    between atoms: C_14  and  C_15
REMARK    8  A    between atoms: C_21  and  N_22
REMARK                            x       y       z     vdW  Elec       q    Type
REMARK                         _______ _______ _______ _____ _____    ______ ____
ROOT
ATOM      1  O   UNL     1       4.520   7.504  18.040  0.00  0.00    +0.000 OA
ENDROOT
BRANCH   1   2
ATOM      2  C   UNL     1       5.307   6.473  17.591  0.00  0.00    +0.000 A 
ATOM      3  C   UNL     1       5.952   5.731  18.574  0.00  0.00    +0.000 A 
ATOM      4  C   UNL     1       6.784   4.670  18.225  0.00  0.00    +0.000 A 
ATOM      5  C   UNL     1       6.982   4.356  16.878  0.00  0.00    +0.000 A 
ATOM      6  C   UNL     1       6.346   5.080  15.857  0.00  0.00    +0.000 A 
ATOM      7  C   UNL     1       5.495   6.132  16.249  0.00  0.00    +0.000 A 
BRANCH   6   8
ATOM      8  C   UNL     1       6.535   4.763  14.422  0.00  0.00    +0.000 A 
ATOM      9  C   UNL     1       7.697   5.166  13.737  0.00  0.00    +0.000 A 
ATOM     10  C   UNL     1       7.864   4.925  12.371  0.00  0.00    +0.000 A 
ATOM     11  C   UNL     1       6.879   4.251  11.659  0.00  0.00    +0.000 A 
ATOM     12  C   UNL     1       5.718   3.812  12.307  0.00  0.00    +0.000 A 
ATOM     13  C   UNL     1       5.558   4.076  13.681  0.00  0.00    +0.000 A 
BRANCH  12  14
ATOM     14  C   UNL     1       4.640   3.069  11.557  0.00  0.00    +0.000 C 
ATOM     15  F   UNL     1       4.246   3.687  10.409  0.00  0.00    +0.000 F 
ATOM     16  F   UNL     1       5.031   1.817  11.190  0.00  0.00    +0.000 F 
ATOM     17  F   UNL     1       3.510   2.904  12.299  0.00  0.00    +0.000 F 
ENDBRANCH  12  14
ENDBRANCH   6   8
ENDBRANCH   1   2
BRANCH   1  18
ATOM     18  C   UNL     1       3.699   8.148  17.065  0.00  0.00    +0.000 C 
BRANCH  18  19
ATOM     19  C   UNL     1       2.266   8.220  17.614  0.00  0.00    +0.000 C 
BRANCH  19  20
ATOM     20  O   UNL     1       1.842   9.588  17.545  0.00  0.00    +0.000 OA
ATOM     21  H   UNL     1       1.480   9.799  18.427  0.00  0.00    +0.000 HD
ENDBRANCH  19  20
BRANCH  19  22
ATOM     22  C   UNL     1       2.253   7.702  19.073  0.00  0.00    +0.000 C 
BRANCH  22  23
ATOM     23  N   UNL     1       1.805   6.328  19.323  0.00  0.00    +0.000 NA
ATOM     24  C   UNL     1       2.458   5.665  20.458  0.00  0.00    +0.000 C 
ATOM     25  C   UNL     1       1.837   4.264  20.673  0.00  0.00    +0.000 C 
ATOM     26  C   UNL     1       2.205   3.432  19.469  0.00  0.00    +0.000 A 
ATOM     27  C   UNL     1       2.540   2.085  19.572  0.00  0.00    +0.000 A 
ATOM     28  C   UNL     1       3.288   1.499  18.555  0.00  0.00    +0.000 A 
ATOM     29  C   UNL     1       3.687   2.259  17.451  0.00  0.00    +0.000 A 
ATOM     30  C   UNL     1       3.210   3.560  17.282  0.00  0.00    +0.000 A 
ATOM     31  C   UNL     1       2.405   4.131  18.266  0.00  0.00    +0.000 A 
ATOM     32  C   UNL     1       1.748   5.488  18.115  0.00  0.00    +0.000 C 
ENDBRANCH  22  23
ENDBRANCH  19  22
ENDBRANCH  18  19
ENDBRANCH   1  18
TORSDOF 8
ENDMDL
MODEL 2
REMARK VINA RESULT:      -7.5      2.286      4.447
REMARK  Name = 
REMARK  8 active torsions:
REMARK  status: ('A' for Active; 'I' for Inactive)
REMARK    1  A    between atoms: O_1  and  C_2
REMARK    2  A    between atoms: C_2  and  C_3
REMARK    3  A    between atoms: C_2  and  C_21
REMARK    4  A    between atoms: C_3  and  O_4
REMARK    5  A    between atoms: O_4  and  C_5
REMARK    6  A    between atoms: C_9  and  C_10
REMARK    7  A    between atoms: C_14  and  C_15
REMARK    8  A    between atoms: C_21  and  N_22
REMARK                            x       y       z     vdW  Elec       q    Type
REMARK                         _______ _______ _______ _____ _____    ______ ____
ROOT
ATOM      1  O   UNL     1       3.428   4.096  18.695  0.00  0.00    +0.000 OA
ENDROOT
BRANCH   1   2
ATOM      2  C   UNL     1       4.628   4.404  18.106  0.00  0.00    +0.000 A 
ATOM      3  C   UNL     1       5.619   4.877  18.958  0.00  0.00    +0.000 A 
ATOM      4  C   UNL     1       6.870   5.230  18.459  0.00  0.00    +0.000 A 
ATOM      5  C   UNL     1       7.129   5.119  17.090  0.00  0.00    +0.000 A 
ATOM      6  C   UNL     1       6.156   4.641  16.199  0.00  0.00    +0.000 A 
ATOM      7  C   UNL     1       4.910   4.273  16.743  0.00  0.00    +0.000 A 
BRANCH   6   8
ATOM      8  C   UNL     1       6.408   4.508  14.745  0.00  0.00    +0.000 A 
ATOM      9  C   UNL     1       7.588   5.010  14.163  0.00  0.00    +0.000 A 
ATOM     10  C   UNL     1       7.814   4.942  12.787  0.00  0.00    +0.000 A 
ATOM     11  C   UNL     1       6.871   4.347  11.956  0.00  0.00    +0.000 A 
ATOM     12  C   UNL     1       5.694   3.814  12.496  0.00  0.00    +0.000 A 
ATOM     13  C   UNL     1       5.474   3.903  13.885  0.00  0.00    +0.000 A 
BRANCH  12  14
ATOM     14  C   UNL     1       4.661   3.154  11.616  0.00  0.00    +0.000 C 
ATOM     15  F   UNL     1       3.488   2.888  12.254  0.00  0.00    +0.000 F 
ATOM     16  F   UNL     1       4.334   3.918  10.537  0.00  0.00    +0.000 F 
ATOM     17  F   UNL     1       5.090   1.963  11.113  0.00  0.00    +0.000 F 
ENDBRANCH  12  14
ENDBRANCH   6   8
ENDBRANCH   1   2
BRANCH   1  18
ATOM     18  C   UNL     1       3.442   3.920  20.112  0.00  0.00    +0.000 C 
BRANCH  18  19
ATOM     19  C   UNL     1       2.331   4.793  20.716  0.00  0.00    +0.000 C 
BRANCH  19  20
ATOM     20  O   UNL     1       1.194   3.952  20.947  0.00  0.00    +0.000 OA
ATOM     21  H   UNL     1       0.722   3.901  20.094  0.00  0.00    +0.000 HD
ENDBRANCH  19  20
BRANCH  19  22
ATOM     22  C   UNL     1       1.992   5.938  19.732  0.00  0.00    +0.000 C 
BRANCH  22  23
ATOM     23  N   UNL     1       1.985   7.315  20.236  0.00  0.00    +0.000 NA
ATOM     24  C   UNL     1       0.996   7.582  21.286  0.00  0.00    +0.000 C 
ATOM     25  C   UNL     1       1.151   9.036  21.794  0.00  0.00    +0.000 C 
ATOM     26  C   UNL     1       0.765   9.943  20.651  0.00  0.00    +0.000 A 
ATOM     27  C   UNL     1       0.051  11.122  20.849  0.00  0.00    +0.000 A 
ATOM     28  C   UNL     1      -0.657  11.665  19.780  0.00  0.00    +0.000 A 
ATOM     29  C   UNL     1      -0.639  11.032  18.533  0.00  0.00    +0.000 A 
ATOM     30  C   UNL     1       0.208   9.945  18.307  0.00  0.00    +0.000 A 
ATOM     31  C   UNL     1       0.970   9.437  19.356  0.00  0.00    +0.000 A 
ATOM     32  C   UNL     1       1.999   8.339  19.177  0.00  0.00    +0.000 C 
ENDBRANCH  22  23
ENDBRANCH  19  22
ENDBRANCH  18  19
ENDBRANCH   1  18
TORSDOF 8
ENDMDL
MODEL 3
REMARK VINA RESULT:      -7.4      5.444      8.021
REMARK  Name = 
REMARK  8 active torsions:
REMARK  status: ('A' for Active; 'I' for Inactive)
REMARK    1  A    between atoms: O_1  and  C_2
REMARK    2  A    between atoms: C_2  and  C_3
REMARK    3  A    between atoms: C_2  and  C_21
REMARK    4  A    between atoms: C_3  and  O_4
REMARK    5  A    between atoms: O_4  and  C_5
REMARK    6  A    between atoms: C_9  and  C_10
REMARK    7  A    between atoms: C_14  and  C_15
REMARK    8  A    between atoms: C_21  and  N_22
REMARK                            x       y       z     vdW  Elec       q    Type
REMARK                         _______ _______ _______ _____ _____    ______ ____
ROOT
ATOM      1  O   UNL     1       0.670  10.393  18.326  0.00  0.00    +0.000 OA
ENDROOT
BRANCH   1   2
ATOM      2  C   UNL     1       1.187   9.255  18.892  0.00  0.00    +0.000 A 
ATOM      3  C   UNL     1       0.980   9.110  20.259  0.00  0.00    +0.000 A 
ATOM      4  C   UNL     1       1.474   7.996  20.933  0.00  0.00    +0.000 A 
ATOM      5  C   UNL     1       2.193   7.023  20.235  0.00  0.00    +0.000 A 
ATOM      6  C   UNL     1       2.419   7.132  18.854  0.00  0.00    +0.000 A 
ATOM      7  C   UNL     1       1.886   8.261  18.202  0.00  0.00    +0.000 A 
BRANCH   6   8
ATOM      8  C   UNL     1       3.173   6.111  18.089  0.00  0.00    +0.000 A 
ATOM      9  C   UNL     1       2.597   4.864  17.779  0.00  0.00    +0.000 A 
ATOM     10  C   UNL     1       3.314   3.872  17.108  0.00  0.00    +0.000 A 
ATOM     11  C   UNL     1       4.625   4.110  16.709  0.00  0.00    +0.000 A 
ATOM     12  C   UNL     1       5.228   5.344  16.977  0.00  0.00    +0.000 A 
ATOM     13  C   UNL     1       4.496   6.330  17.668  0.00  0.00    +0.000 A 
BRANCH  12  14
ATOM     14  C   UNL     1       6.646   5.630  16.545  0.00  0.00    +0.000 C 
ATOM     15  F   UNL     1       7.069   6.887  16.853  0.00  0.00    +0.000 F 
ATOM     16  F   UNL     1       7.544   4.783  17.120  0.00  0.00    +0.000 F 
ATOM     17  F   UNL     1       6.817   5.498  15.201  0.00  0.00    +0.000 F 
ENDBRANCH  12  14
ENDBRANCH   6   8
ENDBRANCH   1   2
BRANCH   1  18
ATOM     18  C   UNL     1      -0.750  10.443  18.181  0.00  0.00    +0.000 C 
BRANCH  18  19
ATOM     19  C   UNL     1      -1.210  11.884  18.447  0.00  0.00    +0.000 C 
BRANCH  19  20
ATOM     20  O   UNL     1      -1.208  12.580  17.193  0.00  0.00    +0.000 OA
ATOM     21  H   UNL     1      -1.809  12.079  16.609  0.00  0.00    +0.000 HD
ENDBRANCH  19  20
BRANCH  19  22
ATOM     22  C   UNL     1      -0.245  12.549  19.458  0.00  0.00    +0.000 C 
BRANCH  22  23
ATOM     23  N   UNL     1      -0.749  12.872  20.797  0.00  0.00    +0.000 NA
ATOM     24  C   UNL     1      -0.932  11.716  21.682  0.00  0.00    +0.000 C 
ATOM     25  C   UNL     1      -1.376  12.196  23.085  0.00  0.00    +0.000 C 
ATOM     26  C   UNL     1      -2.754  12.792  22.927  0.00  0.00    +0.000 A 
ATOM     27  C   UNL     1      -3.750  12.619  23.885  0.00  0.00    +0.000 A 
ATOM     28  C   UNL     1      -5.080  12.780  23.506  0.00  0.00    +0.000 A 
ATOM     29  C   UNL     1      -5.398  13.113  22.186  0.00  0.00    +0.000 A 
ATOM     30  C   UNL     1      -4.387  13.441  21.279  0.00  0.00    +0.000 A 
ATOM     31  C   UNL     1      -3.054  13.346  21.671  0.00  0.00    +0.000 A 
ATOM     32  C   UNL     1      -1.899  13.791  20.797  0.00  0.00    +0.000 C 
ENDBRANCH  22  23
ENDBRANCH  19  22
ENDBRANCH  18  19
ENDBRANCH   1  18
TORSDOF 8
ENDMDL
MODEL 4
REMARK VINA RESULT:      -7.3      5.095      8.148
REMARK  Name = 
REMARK  8 active torsions:
REMARK  status: ('A' for Active; 'I' for Inactive)
REMARK    1  A    between atoms: O_1  and  C_2
REMARK    2  A    between atoms: C_2  and  C_3
REMARK    3  A    between atoms: C_2  and  C_21
REMARK    4  A    between atoms: C_3  and  O_4
REMARK    5  A    between atoms: O_4  and  C_5
REMARK    6  A    between atoms: C_9  and  C_10
REMARK    7  A    between atoms: C_14  and  C_15
REMARK    8  A    between atoms: C_21  and  N_22
REMARK                            x       y       z     vdW  Elec       q    Type
REMARK                         _______ _______ _______ _____ _____    ______ ____
ROOT
ATOM      1  O   UNL     1       3.027   6.742  17.743  0.00  0.00    +0.000 OA
ENDROOT
BRANCH   1   2
ATOM      2  C   UNL     1       2.359   7.544  18.635  0.00  0.00    +0.000 A 
ATOM      3  C   UNL     1       2.171   7.012  19.905  0.00  0.00    +0.000 A 
ATOM      4  C   UNL     1       1.495   7.739  20.882  0.00  0.00    +0.000 A 
ATOM      5  C   UNL     1       0.992   9.007  20.581  0.00  0.00    +0.000 A 
ATOM      6  C   UNL     1       1.165   9.580  19.311  0.00  0.00    +0.000 A 
ATOM      7  C   UNL     1       1.873   8.824  18.356  0.00  0.00    +0.000 A 
BRANCH   6   8
ATOM      8  C   UNL     1       0.646  10.925  18.968  0.00  0.00    +0.000 A 
ATOM      9  C   UNL     1      -0.701  11.113  18.606  0.00  0.00    +0.000 A 
ATOM     10  C   UNL     1      -1.190  12.365  18.227  0.00  0.00    +0.000 A 
ATOM     11  C   UNL     1      -0.346  13.469  18.221  0.00  0.00    +0.000 A 
ATOM     12  C   UNL     1       0.995  13.331  18.597  0.00  0.00    +0.000 A 
ATOM     13  C   UNL     1       1.478  12.059  18.963  0.00  0.00    +0.000 A 
BRANCH  12  14
ATOM     14  C   UNL     1       1.929  14.517  18.609  0.00  0.00    +0.000 C 
ATOM     15  F   UNL     1       1.291  15.716  18.503  0.00  0.00    +0.000 F 
ATOM     16  F   UNL     1       2.666  14.585  19.752  0.00  0.00    +0.000 F 
ATOM     17  F   UNL     1       2.828  14.482  17.587  0.00  0.00    +0.000 F 
ENDBRANCH  12  14
ENDBRANCH   6   8
ENDBRANCH   1   2
BRANCH   1  18
ATOM     18  C   UNL     1       4.276   7.233  17.258  0.00  0.00    +0.000 C 
BRANCH  18  19
ATOM     19  C   UNL     1       5.362   6.198  17.590  0.00  0.00    +0.000 C 
BRANCH  19  20
ATOM     20  O   UNL     1       6.633   6.793  17.299  0.00  0.00    +0.000 OA
ATOM     21  H   UNL     1       6.447   7.541  16.700  0.00  0.00    +0.000 HD
ENDBRANCH  19  20
BRANCH  19  22
ATOM     22  C   UNL     1       5.130   4.927  16.737  0.00  0.00    +0.000 C 
BRANCH  22  23
ATOM     23  N   UNL     1       4.469   3.777  17.362  0.00  0.00    +0.000 NA
ATOM     24  C   UNL     1       3.062   3.596  16.986  0.00  0.00    +0.000 C 
ATOM     25  C   UNL     1       2.508   2.305  17.635  0.00  0.00    +0.000 C 
ATOM     26  C   UNL     1       2.489   2.538  19.126  0.00  0.00    +0.000 A 
ATOM     27  C   UNL     1       1.459   2.068  19.937  0.00  0.00    +0.000 A 
ATOM     28  C   UNL     1       1.249   2.674  21.173  0.00  0.00    +0.000 A 
ATOM     29  C   UNL     1       2.066   3.731  21.584  0.00  0.00    +0.000 A 
ATOM     30  C   UNL     1       3.192   4.083  20.836  0.00  0.00    +0.000 A 
ATOM     31  C   UNL     1       3.446   3.435  19.630  0.00  0.00    +0.000 A 
ATOM     32  C   UNL     1       4.700   3.669  18.812  0.00  0.00    +0.000 C 
ENDBRANCH  22  23
ENDBRANCH  19  22
ENDBRANCH  18  19
ENDBRANCH   1  18
TORSDOF 8
ENDMDL
MODEL 5
REMARK VINA RESULT:      -7.3      5.521      9.181
REMARK  Name = 
REMARK  8 active torsions:
REMARK  status: ('A' for Active; 'I' for Inactive)
REMARK    1  A    between atoms: O_1  and  C_2
REMARK    2  A    between atoms: C_2  and  C_3
REMARK    3  A    between atoms: C_2  and  C_21
REMARK    4  A    between atoms: C_3  and  O_4
REMARK    5  A    between atoms: O_4  and  C_5
REMARK    6  A    between atoms: C_9  and  C_10
REMARK    7  A    between atoms: C_14  and  C_15
REMARK    8  A    between atoms: C_21  and  N_22
REMARK                            x       y       z     vdW  Elec       q    Type
REMARK                         _______ _______ _______ _____ _____    ______ ____
ROOT
ATOM      1  O   UNL     1       2.234   5.441  20.909  0.00  0.00    +0.000 OA
ENDROOT
BRANCH   1   2
ATOM      2  C   UNL     1       1.915   6.670  20.390  0.00  0.00    +0.000 A 
ATOM      3  C   UNL     1       2.439   6.952  19.134  0.00  0.00    +0.000 A 
ATOM      4  C   UNL     1       2.185   8.177  18.522  0.00  0.00    +0.000 A 
ATOM      5  C   UNL     1       1.408   9.134  19.178  0.00  0.00    +0.000 A 
ATOM      6  C   UNL     1       0.858   8.885  20.445  0.00  0.00    +0.000 A 
ATOM      7  C   UNL     1       1.118   7.627  21.023  0.00  0.00    +0.000 A 
BRANCH   6   8
ATOM      8  C   UNL     1       0.025   9.881  21.160  0.00  0.00    +0.000 A 
ATOM      9  C   UNL     1      -0.237   9.754  22.537  0.00  0.00    +0.000 A 
ATOM     10  C   UNL     1      -1.065  10.653  23.212  0.00  0.00    +0.000 A 
ATOM     11  C   UNL     1      -1.638  11.720  22.528  0.00  0.00    +0.000 A 
ATOM     12  C   UNL     1      -1.385  11.896  21.163  0.00  0.00    +0.000 A 
ATOM     13  C   UNL     1      -0.558  10.972  20.493  0.00  0.00    +0.000 A 
BRANCH  12  14
ATOM     14  C   UNL     1      -1.986  13.052  20.401  0.00  0.00    +0.000 C 
ATOM     15  F   UNL     1      -2.047  12.848  19.056  0.00  0.00    +0.000 F 
ATOM     16  F   UNL     1      -3.260  13.326  20.795  0.00  0.00    +0.000 F 
ATOM     17  F   UNL     1      -1.286  14.208  20.571  0.00  0.00    +0.000 F 
ENDBRANCH  12  14
ENDBRANCH   6   8
ENDBRANCH   1   2
BRANCH   1  18
ATOM     18  C   UNL     1       1.342   4.369  20.601  0.00  0.00    +0.000 C 
BRANCH  18  19
ATOM     19  C   UNL     1       2.018   3.049  21.004  0.00  0.00    +0.000 C 
BRANCH  19  20
ATOM     20  O   UNL     1       2.300   3.115  22.408  0.00  0.00    +0.000 OA
ATOM     21  H   UNL     1       3.202   3.482  22.482  0.00  0.00    +0.000 HD
ENDBRANCH  19  20
BRANCH  19  22
ATOM     22  C   UNL     1       3.316   2.870  20.180  0.00  0.00    +0.000 C 
BRANCH  22  23
ATOM     23  N   UNL     1       3.465   3.630  18.934  0.00  0.00    +0.000 NA
ATOM     24  C   UNL     1       3.371   2.828  17.709  0.00  0.00    +0.000 C 
ATOM     25  C   UNL     1       3.451   3.753  16.471  0.00  0.00    +0.000 C 
ATOM     26  C   UNL     1       4.842   4.338  16.451  0.00  0.00    +0.000 A 
ATOM     27  C   UNL     1       5.548   4.532  15.266  0.00  0.00    +0.000 A 
ATOM     28  C   UNL     1       6.936   4.632  15.321  0.00  0.00    +0.000 A 
ATOM     29  C   UNL     1       7.598   4.542  16.549  0.00  0.00    +0.000 A 
ATOM     30  C   UNL     1       6.870   4.511  17.740  0.00  0.00    +0.000 A 
ATOM     31  C   UNL     1       5.479   4.477  17.696  0.00  0.00    +0.000 A 
ATOM     32  C   UNL     1       4.608   4.559  18.933  0.00  0.00    +0.000 C 
ENDBRANCH  22  23
ENDBRANCH  19  22
ENDBRANCH  18  19
ENDBRANCH   1  18
TORSDOF 8
ENDMDL
MODEL 6
REMARK VINA RESULT:      -7.3      6.131      8.853
REMARK  Name = 
REMARK  8 active torsions:
REMARK  status: ('A' for Active; 'I' for Inactive)
REMARK    1  A    between atoms: O_1  and  C_2
REMARK    2  A    between atoms: C_2  and  C_3
REMARK    3  A    between atoms: C_2  and  C_21
REMARK    4  A    between atoms: C_3  and  O_4
REMARK    5  A    between atoms: O_4  and  C_5
REMARK    6  A    between atoms: C_9  and  C_10
REMARK    7  A    between atoms: C_14  and  C_15
REMARK    8  A    between atoms: C_21  and  N_22
REMARK                            x       y       z     vdW  Elec       q    Type
REMARK                         _______ _______ _______ _____ _____    ______ ____
ROOT
ATOM      1  O   UNL     1       1.096   8.417  21.581  0.00  0.00    +0.000 OA
ENDROOT
BRANCH   1   2
ATOM      2  C   UNL     1       1.521   8.339  20.279  0.00  0.00    +0.000 A 
ATOM      3  C   UNL     1       1.187   9.417  19.467  0.00  0.00    +0.000 A 
ATOM      4  C   UNL     1       1.561   9.432  18.125  0.00  0.00    +0.000 A 
ATOM      5  C   UNL     1       2.265   8.352  17.587  0.00  0.00    +0.000 A 
ATOM      6  C   UNL     1       2.623   7.248  18.376  0.00  0.00    +0.000 A 
ATOM      7  C   UNL     1       2.248   7.278  19.734  0.00  0.00    +0.000 A 
BRANCH   6   8
ATOM      8  C   UNL     1       3.375   6.093  17.831  0.00  0.00    +0.000 A 
ATOM      9  C   UNL     1       2.783   4.818  17.741  0.00  0.00    +0.000 A 
ATOM     10  C   UNL     1       3.497   3.709  17.282  0.00  0.00    +0.000 A 
ATOM     11  C   UNL     1       4.820   3.851  16.880  0.00  0.00    +0.000 A 
ATOM     12  C   UNL     1       5.440   5.105  16.932  0.00  0.00    +0.000 A 
ATOM     13  C   UNL     1       4.711   6.212  17.410  0.00  0.00    +0.000 A 
BRANCH  12  14
ATOM     14  C   UNL     1       6.871   5.287  16.490  0.00  0.00    +0.000 C 
ATOM     15  F   UNL     1       7.744   4.435  17.098  0.00  0.00    +0.000 F 
ATOM     16  F   UNL     1       7.031   5.091  15.152  0.00  0.00    +0.000 F 
ATOM     17  F   UNL     1       7.339   6.541  16.742  0.00  0.00    +0.000 F 
ENDBRANCH  12  14
ENDBRANCH   6   8
ENDBRANCH   1   2
BRANCH   1  18
ATOM     18  C   UNL     1      -0.195   8.988  21.797  0.00  0.00    +0.000 C 
BRANCH  18  19
ATOM     19  C   UNL     1      -0.049  10.143  22.799  0.00  0.00    +0.000 C 
BRANCH  19  20
ATOM     20  O   UNL     1       0.607   9.627  23.965  0.00  0.00    +0.000 OA
ATOM     21  H   UNL     1       0.705   8.667  23.813  0.00  0.00    +0.000 HD
ENDBRANCH  19  20
BRANCH  19  22
ATOM     22  C   UNL     1      -1.453  10.697  23.145  0.00  0.00    +0.000 C 
BRANCH  22  23
ATOM     23  N   UNL     1      -1.832  12.015  22.626  0.00  0.00    +0.000 NA
ATOM     24  C   UNL     1      -0.707  12.918  22.357  0.00  0.00    +0.000 C 
ATOM     25  C   UNL     1      -1.230  14.233  21.732  0.00  0.00    +0.000 C 
ATOM     26  C   UNL     1      -2.047  14.929  22.793  0.00  0.00    +0.000 A 
ATOM     27  C   UNL     1      -2.024  16.311  22.959  0.00  0.00    +0.000 A 
ATOM     28  C   UNL     1      -2.407  16.846  24.186  0.00  0.00    +0.000 A 
ATOM     29  C   UNL     1      -2.811  16.002  25.224  0.00  0.00    +0.000 A 
ATOM     30  C   UNL     1      -2.983  14.635  24.994  0.00  0.00    +0.000 A 
ATOM     31  C   UNL     1      -2.664  14.102  23.747  0.00  0.00    +0.000 A 
ATOM     32  C   UNL     1      -2.927  12.658  23.371  0.00  0.00    +0.000 C 
ENDBRANCH  22  23
ENDBRANCH  19  22
ENDBRANCH  18  19
ENDBRANCH   1  18
TORSDOF 8
ENDMDL
MODEL 7
REMARK VINA RESULT:      -7.3      5.605      8.134
REMARK  Name = 
REMARK  8 active torsions:
REMARK  status: ('A' for Active; 'I' for Inactive)
REMARK    1  A    between atoms: O_1  and  C_2
REMARK    2  A    between atoms: C_2  and  C_3
REMARK    3  A    between atoms: C_2  and  C_21
REMARK    4  A    between atoms: C_3  and  O_4
REMARK    5  A    between atoms: O_4  and  C_5
REMARK    6  A    between atoms: C_9  and  C_10
REMARK    7  A    between atoms: C_14  and  C_15
REMARK    8  A    between atoms: C_21  and  N_22
REMARK                            x       y       z     vdW  Elec       q    Type
REMARK                         _______ _______ _______ _____ _____    ______ ____
ROOT
ATOM      1  O   UNL     1       1.074  10.380  18.089  0.00  0.00    +0.000 OA
ENDROOT
BRANCH   1   2
ATOM      2  C   UNL     1       1.476   9.208  18.678  0.00  0.00    +0.000 A 
ATOM      3  C   UNL     1       1.148   9.061  20.021  0.00  0.00    +0.000 A 
ATOM      4  C   UNL     1       1.519   7.913  20.716  0.00  0.00    +0.000 A 
ATOM      5  C   UNL     1       2.237   6.906  20.064  0.00  0.00    +0.000 A 
ATOM      6  C   UNL     1       2.583   7.017  18.709  0.00  0.00    +0.000 A 
ATOM      7  C   UNL     1       2.171   8.182  18.032  0.00  0.00    +0.000 A 
BRANCH   6   8
ATOM      8  C   UNL     1       3.337   5.961  17.993  0.00  0.00    +0.000 A 
ATOM      9  C   UNL     1       2.757   4.706  17.729  0.00  0.00    +0.000 A 
ATOM     10  C   UNL     1       3.474   3.682  17.106  0.00  0.00    +0.000 A 
ATOM     11  C   UNL     1       4.789   3.897  16.708  0.00  0.00    +0.000 A 
ATOM     12  C   UNL     1       5.397   5.139  16.930  0.00  0.00    +0.000 A 
ATOM     13  C   UNL     1       4.665   6.156  17.573  0.00  0.00    +0.000 A 
BRANCH  12  14
ATOM     14  C   UNL     1       6.819   5.399  16.498  0.00  0.00    +0.000 C 
ATOM     15  F   UNL     1       7.717   4.513  17.009  0.00  0.00    +0.000 F 
ATOM     16  F   UNL     1       6.969   5.343  15.145  0.00  0.00    +0.000 F 
ATOM     17  F   UNL     1       7.258   6.633  16.871  0.00  0.00    +0.000 F 
ENDBRANCH  12  14
ENDBRANCH   6   8
ENDBRANCH   1   2
BRANCH   1  18
ATOM     18  C   UNL     1       1.199  11.564  18.877  0.00  0.00    +0.000 C 
BRANCH  18  19
ATOM     19  C   UNL     1      -0.189  12.211  18.998  0.00  0.00    +0.000 C 
BRANCH  19  20
ATOM     20  O   UNL     1      -0.554  12.701  17.702  0.00  0.00    +0.000 OA
ATOM     21  H   UNL     1      -1.184  12.049  17.337  0.00  0.00    +0.000 HD
ENDBRANCH  19  20
BRANCH  19  22
ATOM     22  C   UNL     1      -0.128  13.359  20.035  0.00  0.00    +0.000 C 
BRANCH  22  23
ATOM     23  N   UNL     1      -0.642  13.111  21.385  0.00  0.00    +0.000 NA
ATOM     24  C   UNL     1      -1.273  11.799  21.572  0.00  0.00    +0.000 C 
ATOM     25  C   UNL     1      -1.690  11.625  23.052  0.00  0.00    +0.000 C 
ATOM     26  C   UNL     1      -2.785  12.629  23.320  0.00  0.00    +0.000 A 
ATOM     27  C   UNL     1      -3.880  12.334  24.127  0.00  0.00    +0.000 A 
ATOM     28  C   UNL     1      -5.044  13.084  23.980  0.00  0.00    +0.000 A 
ATOM     29  C   UNL     1      -5.098  14.116  23.039  0.00  0.00    +0.000 A 
ATOM     30  C   UNL     1      -3.946  14.506  22.353  0.00  0.00    +0.000 A 
ATOM     31  C   UNL     1      -2.760  13.801  22.544  0.00  0.00    +0.000 A 
ATOM     32  C   UNL     1      -1.438  14.221  21.935  0.00  0.00    +0.000 C 
ENDBRANCH  22  23
ENDBRANCH  19  22
ENDBRANCH  18  19
ENDBRANCH   1  18
TORSDOF 8
ENDMDL
MODEL 8
REMARK VINA RESULT:      -7.3      5.047      8.180
REMARK  Name = 
REMARK  8 active torsions:
REMARK  status: ('A' for Active; 'I' for Inactive)
REMARK    1  A    between atoms: O_1  and  C_2
REMARK    2  A    between atoms: C_2  and  C_3
REMARK    3  A    between atoms: C_2  and  C_21
REMARK    4  A    between atoms: C_3  and  O_4
REMARK    5  A    between atoms: O_4  and  C_5
REMARK    6  A    between atoms: C_9  and  C_10
REMARK    7  A    between atoms: C_14  and  C_15
REMARK    8  A    between atoms: C_21  and  N_22
REMARK                            x       y       z     vdW  Elec       q    Type
REMARK                         _______ _______ _______ _____ _____    ______ ____
ROOT
ATOM      1  O   UNL     1       1.004   8.772  21.336  0.00  0.00    +0.000 OA
ENDROOT
BRANCH   1   2
ATOM      2  C   UNL     1       1.513   8.542  20.082  0.00  0.00    +0.000 A 
ATOM      3  C   UNL     1       1.362   9.577  19.167  0.00  0.00    +0.000 A 
ATOM      4  C   UNL     1       1.832   9.440  17.864  0.00  0.00    +0.000 A 
ATOM      5  C   UNL     1       2.451   8.251  17.468  0.00  0.00    +0.000 A 
ATOM      6  C   UNL     1       2.625   7.185  18.365  0.00  0.00    +0.000 A 
ATOM      7  C   UNL     1       2.156   7.368  19.681  0.00  0.00    +0.000 A 
BRANCH   6   8
ATOM      8  C   UNL     1       3.283   5.917  17.972  0.00  0.00    +0.000 A 
ATOM      9  C   UNL     1       4.393   5.912  17.107  0.00  0.00    +0.000 A 
ATOM     10  C   UNL     1       4.988   4.721  16.684  0.00  0.00    +0.000 A 
ATOM     11  C   UNL     1       4.499   3.501  17.136  0.00  0.00    +0.000 A 
ATOM     12  C   UNL     1       3.411   3.461  18.016  0.00  0.00    +0.000 A 
ATOM     13  C   UNL     1       2.813   4.670  18.422  0.00  0.00    +0.000 A 
BRANCH  12  14
ATOM     14  C   UNL     1       2.870   2.149  18.528  0.00  0.00    +0.000 C 
ATOM     15  F   UNL     1       3.646   1.076  18.213  0.00  0.00    +0.000 F 
ATOM     16  F   UNL     1       2.745   2.133  19.884  0.00  0.00    +0.000 F 
ATOM     17  F   UNL     1       1.631   1.870  18.037  0.00  0.00    +0.000 F 
ENDBRANCH  12  14
ENDBRANCH   6   8
ENDBRANCH   1   2
BRANCH   1  18
ATOM     18  C   UNL     1      -0.313   9.321  21.398  0.00  0.00    +0.000 C 
BRANCH  18  19
ATOM     19  C   UNL     1      -0.298  10.499  22.383  0.00  0.00    +0.000 C 
BRANCH  19  20
ATOM     20  O   UNL     1      -1.165  10.164  23.474  0.00  0.00    +0.000 OA
ATOM     21  H   UNL     1      -1.241   9.191  23.466  0.00  0.00    +0.000 HD
ENDBRANCH  19  20
BRANCH  19  22
ATOM     22  C   UNL     1      -0.780  11.778  21.655  0.00  0.00    +0.000 C 
BRANCH  22  23
ATOM     23  N   UNL     1       0.023  12.296  20.544  0.00  0.00    +0.000 NA
ATOM     24  C   UNL     1       1.345  12.805  20.925  0.00  0.00    +0.000 C 
ATOM     25  C   UNL     1       2.126  13.236  19.660  0.00  0.00    +0.000 C 
ATOM     26  C   UNL     1       1.399  14.425  19.081  0.00  0.00    +0.000 A 
ATOM     27  C   UNL     1       2.074  15.505  18.519  0.00  0.00    +0.000 A 
ATOM     28  C   UNL     1       1.419  16.730  18.424  0.00  0.00    +0.000 A 
ATOM     29  C   UNL     1       0.105  16.861  18.883  0.00  0.00    +0.000 A 
ATOM     30  C   UNL     1      -0.612  15.735  19.293  0.00  0.00    +0.000 A 
ATOM     31  C   UNL     1       0.017  14.493  19.328  0.00  0.00    +0.000 A 
ATOM     32  C   UNL     1      -0.712  13.203  19.647  0.00  0.00    +0.000 C 
ENDBRANCH  22  23
ENDBRANCH  19  22
ENDBRANCH  18  19
ENDBRANCH   1  18
TORSDOF 8
ENDMDL
MODEL 9
REMARK VINA RESULT:      -7.2      7.601      9.601
REMARK  Name = 
REMARK  8 active torsions:
REMARK  status: ('A' for Active; 'I' for Inactive)
REMARK    1  A    between atoms: O_1  and  C_2
REMARK    2  A    between atoms: C_2  and  C_3
REMARK    3  A    between atoms: C_2  and  C_21
REMARK    4  A    between atoms: C_3  and  O_4
REMARK    5  A    between atoms: O_4  and  C_5
REMARK    6  A    between atoms: C_9  and  C_10
REMARK    7  A    between atoms: C_14  and  C_15
REMARK    8  A    between atoms: C_21  and  N_22
REMARK                            x       y       z     vdW  Elec       q    Type
REMARK                         _______ _______ _______ _____ _____    ______ ____
ROOT
ATOM      1  O   UNL     1       8.653   8.769  18.761  0.00  0.00    +0.000 OA
ENDROOT
BRANCH   1   2
ATOM      2  C   UNL     1       9.106  10.050  18.953  0.00  0.00    +0.000 A 
ATOM      3  C   UNL     1       9.841  10.596  17.907  0.00  0.00    +0.000 A 
ATOM      4  C   UNL     1      10.356  11.886  18.005  0.00  0.00    +0.000 A 
ATOM      5  C   UNL     1      10.145  12.633  19.167  0.00  0.00    +0.000 A 
ATOM      6  C   UNL     1       9.406  12.117  20.242  0.00  0.00    +0.000 A 
ATOM      7  C   UNL     1       8.881  10.817  20.098  0.00  0.00    +0.000 A 
BRANCH   6   8
ATOM      8  C   UNL     1       9.162  12.890  21.483  0.00  0.00    +0.000 A 
ATOM      9  C   UNL     1       9.635  14.210  21.620  0.00  0.00    +0.000 A 
ATOM     10  C   UNL     1       9.462  14.931  22.803  0.00  0.00    +0.000 A 
ATOM     11  C   UNL     1       8.790  14.357  23.876  0.00  0.00    +0.000 A 
ATOM     12  C   UNL     1       8.283  13.056  23.773  0.00  0.00    +0.000 A 
ATOM     13  C   UNL     1       8.479  12.335  22.578  0.00  0.00    +0.000 A 
BRANCH  12  14
ATOM     14  C   UNL     1       7.541  12.415  24.920  0.00  0.00    +0.000 C 
ATOM     15  F   UNL     1       7.244  11.102  24.715  0.00  0.00    +0.000 F 
ATOM     16  F   UNL     1       8.246  12.459  26.085  0.00  0.00    +0.000 F 
ATOM     17  F   UNL     1       6.354  13.030  25.180  0.00  0.00    +0.000 F 
ENDBRANCH  12  14
ENDBRANCH   6   8
ENDBRANCH   1   2
BRANCH   1  18
ATOM     18  C   UNL     1       7.860   8.542  17.595  0.00  0.00    +0.000 C 
BRANCH  18  19
ATOM     19  C   UNL     1       7.442   7.064  17.577  0.00  0.00    +0.000 C 
BRANCH  19  20
ATOM     20  O   UNL     1       7.733   6.545  16.273  0.00  0.00    +0.000 OA
ATOM     21  H   UNL     1       8.659   6.793  16.088  0.00  0.00    +0.000 HD
ENDBRANCH  19  20
BRANCH  19  22
ATOM     22  C   UNL     1       5.931   6.958  17.899  0.00  0.00    +0.000 C 
BRANCH  22  23
ATOM     23  N   UNL     1       5.322   5.627  17.967  0.00  0.00    +0.000 NA
ATOM     24  C   UNL     1       4.326   5.351  16.925  0.00  0.00    +0.000 C 
ATOM     25  C   UNL     1       3.827   3.891  17.050  0.00  0.00    +0.000 C 
ATOM     26  C   UNL     1       3.070   3.797  18.352  0.00  0.00    +0.000 A 
ATOM     27  C   UNL     1       1.910   3.038  18.482  0.00  0.00    +0.000 A 
ATOM     28  C   UNL     1       1.026   3.335  19.516  0.00  0.00    +0.000 A 
ATOM     29  C   UNL     1       1.310   4.376  20.404  0.00  0.00    +0.000 A 
ATOM     30  C   UNL     1       2.548   5.020  20.362  0.00  0.00    +0.000 A 
ATOM     31  C   UNL     1       3.465   4.682  19.370  0.00  0.00    +0.000 A 
ATOM     32  C   UNL     1       4.872   5.243  19.316  0.00  0.00    +0.000 C 
ENDBRANCH  22  23
ENDBRANCH  19  22
ENDBRANCH  18  19
ENDBRANCH   1  18
TORSDOF 8
ENDMDL
