MODEL 1
REMARK VINA RESULT:      -7.8      0.000      0.000
REMARK  Name = 
REMARK  10 active torsions:
REMARK  status: ('A' for Active; 'I' for Inactive)
REMARK    1  A    between atoms: C_1  and  O_2
REMARK    2  A    between atoms: O_2  and  C_3
REMARK    3  A    between atoms: C_6  and  C_7
REMARK    4  A    between atoms: N_9  and  C_10
REMARK    5  A    between atoms: C_10  and  C_11
REMARK    6  A    between atoms: C_11  and  O_13
REMARK    7  A    between atoms: O_13  and  C_14
REMARK    8  A    between atoms: C_14  and  N_15
REMARK    9  A    between atoms: C_27  and  O_28
REMARK   10  A    between atoms: O_28  and  C_29
REMARK                            x       y       z     vdW  Elec       q    Type
REMARK                         _______ _______ _______ _____ _____    ______ ____
ROOT
ATOM      1  C   UNL     1       2.381   4.828  20.998  0.00  0.00    +0.000 C 
ENDROOT
BRANCH   1   4
ATOM      2  C   UNL     1       2.265   6.962  19.796  0.00  0.00    +0.000 C 
ATOM      3  O   UNL     1       3.225   6.649  19.097  0.00  0.00    +0.000 OA
ATOM      4  N   UNL     1       1.771   6.125  20.772  0.00  0.00    +0.000 N 
ATOM      5  H   UNL     1       0.913   6.325  21.267  0.00  0.00    +0.000 HD
BRANCH   2   9
ATOM      6  C   UNL     1       0.279  10.708  19.001  0.00  0.00    +0.000 A 
ATOM      7  C   UNL     1       1.172  10.139  18.084  0.00  0.00    +0.000 A 
ATOM      8  C   UNL     1       1.813   8.931  18.366  0.00  0.00    +0.000 A 
ATOM      9  C   UNL     1       1.602   8.283  19.587  0.00  0.00    +0.000 A 
ATOM     10  C   UNL     1       0.784   8.900  20.538  0.00  0.00    +0.000 A 
ATOM     11  C   UNL     1       0.124  10.110  20.261  0.00  0.00    +0.000 A 
BRANCH   6  13
ATOM     12  C   UNL     1      -1.632  11.660  17.983  0.00  0.00    +0.000 C 
ATOM     13  O   UNL     1      -0.410  11.850  18.696  0.00  0.00    +0.000 OA
ENDBRANCH   6  13
BRANCH  11  14
ATOM     14  O   UNL     1      -0.630  10.528  21.326  0.00  0.00    +0.000 OA
ATOM     15  C   UNL     1      -0.291  11.739  21.980  0.00  0.00    +0.000 C 
ENDBRANCH  11  14
ENDBRANCH   2   9
ENDBRANCH   1   4
BRANCH   1  16
ATOM     16  C   UNL     1       1.581   3.678  20.403  0.00  0.00    +0.000 C 
ATOM     17  O   UNL     1       0.861   2.932  21.052  0.00  0.00    +0.000 OA
BRANCH  16  18
ATOM     18  O   UNL     1       1.804   3.606  19.062  0.00  0.00    +0.000 OA
BRANCH  18  19
ATOM     19  C   UNL     1       2.820   2.691  18.655  0.00  0.00    +0.000 C 
BRANCH  19  20
ATOM     20  N   UNL     1       3.937   3.424  18.078  0.00  0.00    +0.000 N 
ATOM     21  N   UNL     1       3.779   3.930  16.817  0.00  0.00    +0.000 NA
ATOM     22  N   UNL     1       4.658   4.634  16.280  0.00  0.00    +0.000 NA
ATOM     23  C   UNL     1       5.696   5.140  17.069  0.00  0.00    +0.000 A 
ATOM     24  C   UNL     1       6.489   6.174  16.560  0.00  0.00    +0.000 A 
ATOM     25  C   UNL     1       7.470   6.774  17.354  0.00  0.00    +0.000 A 
ATOM     26  C   UNL     1       7.679   6.330  18.660  0.00  0.00    +0.000 A 
ATOM     27  C   UNL     1       6.928   5.269  19.161  0.00  0.00    +0.000 A 
ATOM     28  C   UNL     1       5.945   4.686  18.354  0.00  0.00    +0.000 A 
ATOM     29  C   UNL     1       5.052   3.646  18.857  0.00  0.00    +0.000 A 
ATOM     30  O   UNL     1       5.284   3.088  19.925  0.00  0.00    +0.000 OA
ENDBRANCH  19  20
ENDBRANCH  18  19
ENDBRANCH  16  18
ENDBRANCH   1  16
TORSDOF 8
ENDMDL
MODEL 2
REMARK VINA RESULT:      -7.8      4.747      7.431
REMARK  Name = 
REMARK  10 active torsions:
REMARK  status: ('A' for Active; 'I' for Inactive)
REMARK    1  A    between atoms: C_1  and  O_2
REMARK    2  A    between atoms: O_2  and  C_3
REMARK    3  A    between atoms: C_6  and  C_7
REMARK    4  A    between atoms: N_9  and  C_10
REMARK    5  A    between atoms: C_10  and  C_11
REMARK    6  A    between atoms: C_11  and  O_13
REMARK    7  A    between atoms: O_13  and  C_14
REMARK    8  A    between atoms: C_14  and  N_15
REMARK    9  A    between atoms: C_27  and  O_28
REMARK   10  A    between atoms: O_28  and  C_29
REMARK                            x       y       z     vdW  Elec       q    Type
REMARK                         _______ _______ _______ _____ _____    ______ ____
ROOT
ATOM      1  C   UNL     1       7.749   6.830  18.229  0.00  0.00    +0.000 C 
ENDROOT
BRANCH   1   4
ATOM      2  C   UNL     1       8.405   9.192  18.300  0.00  0.00    +0.000 C 
ATOM      3  O   UNL     1       7.543   9.481  17.475  0.00  0.00    +0.000 OA
ATOM      4  N   UNL     1       8.588   7.898  18.739  0.00  0.00    +0.000 N 
ATOM      5  H   UNL     1       9.212   7.673  19.501  0.00  0.00    +0.000 HD
BRANCH   2   9
ATOM      6  C   UNL     1      10.888  12.412  19.739  0.00  0.00    +0.000 A 
ATOM      7  C   UNL     1      11.023  11.901  18.441  0.00  0.00    +0.000 A 
ATOM      8  C   UNL     1      10.216  10.851  18.000  0.00  0.00    +0.000 A 
ATOM      9  C   UNL     1       9.281  10.264  18.857  0.00  0.00    +0.000 A 
ATOM     10  C   UNL     1       9.213  10.712  20.180  0.00  0.00    +0.000 A 
ATOM     11  C   UNL     1      10.012  11.777  20.633  0.00  0.00    +0.000 A 
BRANCH   6  13
ATOM     12  C   UNL     1      11.220  14.750  19.610  0.00  0.00    +0.000 C 
ATOM     13  O   UNL     1      11.621  13.491  20.150  0.00  0.00    +0.000 OA
ENDBRANCH   6  13
BRANCH  11  14
ATOM     14  O   UNL     1       9.777  12.056  21.954  0.00  0.00    +0.000 OA
ATOM     15  C   UNL     1       8.774  13.000  22.292  0.00  0.00    +0.000 C 
ENDBRANCH  11  14
ENDBRANCH   2   9
ENDBRANCH   1   4
BRANCH   1  16
ATOM     16  C   UNL     1       7.693   5.621  19.151  0.00  0.00    +0.000 C 
ATOM     17  O   UNL     1       7.822   5.675  20.367  0.00  0.00    +0.000 OA
BRANCH  16  18
ATOM     18  O   UNL     1       7.495   4.490  18.419  0.00  0.00    +0.000 OA
BRANCH  18  19
ATOM     19  C   UNL     1       6.301   4.462  17.640  0.00  0.00    +0.000 C 
BRANCH  19  20
ATOM     20  N   UNL     1       5.146   4.650  18.505  0.00  0.00    +0.000 N 
ATOM     21  N   UNL     1       4.493   5.850  18.437  0.00  0.00    +0.000 NA
ATOM     22  N   UNL     1       3.450   6.064  19.089  0.00  0.00    +0.000 NA
ATOM     23  C   UNL     1       2.789   4.986  19.684  0.00  0.00    +0.000 A 
ATOM     24  C   UNL     1       1.475   5.162  20.131  0.00  0.00    +0.000 A 
ATOM     25  C   UNL     1       0.747   4.083  20.639  0.00  0.00    +0.000 A 
ATOM     26  C   UNL     1       1.335   2.821  20.722  0.00  0.00    +0.000 A 
ATOM     27  C   UNL     1       2.659   2.643  20.324  0.00  0.00    +0.000 A 
ATOM     28  C   UNL     1       3.369   3.734  19.811  0.00  0.00    +0.000 A 
ATOM     29  C   UNL     1       4.721   3.591  19.276  0.00  0.00    +0.000 A 
ATOM     30  O   UNL     1       5.361   2.562  19.470  0.00  0.00    +0.000 OA
ENDBRANCH  19  20
ENDBRANCH  18  19
ENDBRANCH  16  18
ENDBRANCH   1  16
TORSDOF 8
ENDMDL
MODEL 3
REMARK VINA RESULT:      -7.7      1.236      1.333
REMARK  Name = 
REMARK  10 active torsions:
REMARK  status: ('A' for Active; 'I' for Inactive)
REMARK    1  A    between atoms: C_1  and  O_2
REMARK    2  A    between atoms: O_2  and  C_3
REMARK    3  A    between atoms: C_6  and  C_7
REMARK    4  A    between atoms: N_9  and  C_10
REMARK    5  A    between atoms: C_10  and  C_11
REMARK    6  A    between atoms: C_11  and  O_13
REMARK    7  A    between atoms: O_13  and  C_14
REMARK    8  A    between atoms: C_14  and  N_15
REMARK    9  A    between atoms: C_27  and  O_28
REMARK   10  A    between atoms: O_28  and  C_29
REMARK                            x       y       z     vdW  Elec       q    Type
REMARK                         _______ _______ _______ _____ _____    ______ ____
ROOT
ATOM      1  C   UNL     1       1.361   3.809  20.445  0.00  0.00    +0.000 C 
ENDROOT
BRANCH   1   4
ATOM      2  C   UNL     1       2.033   6.163  20.311  0.00  0.00    +0.000 C 
ATOM      3  O   UNL     1       3.207   5.844  20.145  0.00  0.00    +0.000 OA
ATOM      4  N   UNL     1       1.038   5.223  20.472  0.00  0.00    +0.000 N 
ATOM      5  H   UNL     1       0.060   5.475  20.490  0.00  0.00    +0.000 HD
BRANCH   2   9
ATOM      6  C   UNL     1       0.822  10.302  20.210  0.00  0.00    +0.000 A 
ATOM      7  C   UNL     1       1.290   9.644  19.066  0.00  0.00    +0.000 A 
ATOM      8  C   UNL     1       1.688   8.306  19.123  0.00  0.00    +0.000 A 
ATOM      9  C   UNL     1       1.659   7.608  20.334  0.00  0.00    +0.000 A 
ATOM     10  C   UNL     1       1.281   8.293  21.492  0.00  0.00    +0.000 A 
ATOM     11  C   UNL     1       0.868   9.637  21.445  0.00  0.00    +0.000 A 
BRANCH   6  13
ATOM     12  C   UNL     1       1.340  12.607  20.325  0.00  0.00    +0.000 C 
ATOM     13  O   UNL     1       0.358  11.587  20.143  0.00  0.00    +0.000 OA
ENDBRANCH   6  13
BRANCH  11  14
ATOM     14  O   UNL     1       0.533  10.104  22.689  0.00  0.00    +0.000 OA
ATOM     15  C   UNL     1      -0.823  10.407  22.972  0.00  0.00    +0.000 C 
ENDBRANCH  11  14
ENDBRANCH   2   9
ENDBRANCH   1   4
BRANCH   1  16
ATOM     16  C   UNL     1       1.041   3.148  19.112  0.00  0.00    +0.000 C 
ATOM     17  O   UNL     1       0.140   2.337  18.944  0.00  0.00    +0.000 OA
BRANCH  16  18
ATOM     18  O   UNL     1       1.910   3.584  18.159  0.00  0.00    +0.000 OA
BRANCH  18  19
ATOM     19  C   UNL     1       2.954   2.674  17.815  0.00  0.00    +0.000 C 
BRANCH  19  20
ATOM     20  N   UNL     1       4.176   3.413  17.538  0.00  0.00    +0.000 N 
ATOM     21  N   UNL     1       4.339   3.917  16.276  0.00  0.00    +0.000 NA
ATOM     22  N   UNL     1       5.322   4.626  15.977  0.00  0.00    +0.000 NA
ATOM     23  C   UNL     1       6.124   5.139  17.001  0.00  0.00    +0.000 A 
ATOM     24  C   UNL     1       7.013   6.178  16.706  0.00  0.00    +0.000 A 
ATOM     25  C   UNL     1       7.758   6.785  17.720  0.00  0.00    +0.000 A 
ATOM     26  C   UNL     1       7.633   6.344  19.038  0.00  0.00    +0.000 A 
ATOM     27  C   UNL     1       6.786   5.279  19.336  0.00  0.00    +0.000 A 
ATOM     28  C   UNL     1       6.042   4.689  18.309  0.00  0.00    +0.000 A 
ATOM     29  C   UNL     1       5.057   3.643  18.572  0.00  0.00    +0.000 A 
ATOM     30  O   UNL     1       5.015   3.089  19.666  0.00  0.00    +0.000 OA
ENDBRANCH  19  20
ENDBRANCH  18  19
ENDBRANCH  16  18
ENDBRANCH   1  16
TORSDOF 8
ENDMDL
MODEL 4
REMARK VINA RESULT:      -7.7      2.042      4.532
REMARK  Name = 
REMARK  10 active torsions:
REMARK  status: ('A' for Active; 'I' for Inactive)
REMARK    1  A    between atoms: C_1  and  O_2
REMARK    2  A    between atoms: O_2  and  C_3
REMARK    3  A    between atoms: C_6  and  C_7
REMARK    4  A    between atoms: N_9  and  C_10
REMARK    5  A    between atoms: C_10  and  C_11
REMARK    6  A    between atoms: C_11  and  O_13
REMARK    7  A    between atoms: O_13  and  C_14
REMARK    8  A    between atoms: C_14  and  N_15
REMARK    9  A    between atoms: C_27  and  O_28
REMARK   10  A    between atoms: O_28  and  C_29
REMARK                            x       y       z     vdW  Elec       q    Type
REMARK                         _______ _______ _______ _____ _____    ______ ____
ROOT
ATOM      1  C   UNL     1       4.474   6.628  16.686  0.00  0.00    +0.000 C 
ENDROOT
BRANCH   1   4
ATOM      2  C   UNL     1       2.588   7.227  18.134  0.00  0.00    +0.000 C 
ATOM      3  O   UNL     1       1.981   6.212  17.804  0.00  0.00    +0.000 OA
ATOM      4  N   UNL     1       3.836   7.525  17.630  0.00  0.00    +0.000 N 
ATOM      5  H   UNL     1       4.388   8.293  17.985  0.00  0.00    +0.000 HD
BRANCH   2   9
ATOM      6  C   UNL     1       0.958   9.901  21.099  0.00  0.00    +0.000 A 
ATOM      7  C   UNL     1       1.256   8.565  21.397  0.00  0.00    +0.000 A 
ATOM      8  C   UNL     1       1.773   7.714  20.419  0.00  0.00    +0.000 A 
ATOM      9  C   UNL     1       1.970   8.169  19.112  0.00  0.00    +0.000 A 
ATOM     10  C   UNL     1       1.583   9.475  18.793  0.00  0.00    +0.000 A 
ATOM     11  C   UNL     1       1.073  10.346  19.772  0.00  0.00    +0.000 A 
BRANCH   6  13
ATOM     12  C   UNL     1      -0.881  10.759  22.315  0.00  0.00    +0.000 C 
ATOM     13  O   UNL     1       0.526  10.760  22.073  0.00  0.00    +0.000 OA
ENDBRANCH   6  13
BRANCH  11  14
ATOM     14  O   UNL     1       0.771  11.574  19.246  0.00  0.00    +0.000 OA
ATOM     15  C   UNL     1       1.788  12.314  18.591  0.00  0.00    +0.000 C 
ENDBRANCH  11  14
ENDBRANCH   2   9
ENDBRANCH   1   4
BRANCH   1  16
ATOM     16  C   UNL     1       5.967   6.462  16.933  0.00  0.00    +0.000 C 
ATOM     17  O   UNL     1       6.815   7.279  16.600  0.00  0.00    +0.000 OA
BRANCH  16  18
ATOM     18  O   UNL     1       6.202   5.276  17.558  0.00  0.00    +0.000 OA
BRANCH  18  19
ATOM     19  C   UNL     1       5.479   4.157  17.048  0.00  0.00    +0.000 C 
BRANCH  19  20
ATOM     20  N   UNL     1       4.722   3.532  18.122  0.00  0.00    +0.000 N 
ATOM     21  N   UNL     1       5.376   3.288  19.299  0.00  0.00    +0.000 NA
ATOM     22  N   UNL     1       4.782   2.825  20.294  0.00  0.00    +0.000 NA
ATOM     23  C   UNL     1       3.384   2.809  20.301  0.00  0.00    +0.000 A 
ATOM     24  C   UNL     1       2.716   2.600  21.512  0.00  0.00    +0.000 A 
ATOM     25  C   UNL     1       1.323   2.677  21.578  0.00  0.00    +0.000 A 
ATOM     26  C   UNL     1       0.583   2.944  20.426  0.00  0.00    +0.000 A 
ATOM     27  C   UNL     1       1.234   3.105  19.204  0.00  0.00    +0.000 A 
ATOM     28  C   UNL     1       2.630   3.033  19.160  0.00  0.00    +0.000 A 
ATOM     29  C   UNL     1       3.377   3.302  17.934  0.00  0.00    +0.000 A 
ATOM     30  O   UNL     1       2.797   3.372  16.854  0.00  0.00    +0.000 OA
ENDBRANCH  19  20
ENDBRANCH  18  19
ENDBRANCH  16  18
ENDBRANCH   1  16
TORSDOF 8
ENDMDL
MODEL 5
REMARK VINA RESULT:      -7.6      5.242      7.769
REMARK  Name = 
REMARK  10 active torsions:
REMARK  status: ('A' for Active; 'I' for Inactive)
REMARK    1  A    between atoms: C_1  and  O_2
REMARK    2  A    between atoms: O_2  and  C_3
REMARK    3  A    between atoms: C_6  and  C_7
REMARK    4  A    between atoms: N_9  and  C_10
REMARK    5  A    between atoms: C_10  and  C_11
REMARK    6  A    between atoms: C_11  and  O_13
REMARK    7  A    between atoms: O_13  and  C_14
REMARK    8  A    between atoms: C_14  and  N_15
REMARK    9  A    between atoms: C_27  and  O_28
REMARK   10  A    between atoms: O_28  and  C_29
REMARK                            x       y       z     vdW  Elec       q    Type
REMARK                         _______ _______ _______ _____ _____    ______ ____
ROOT
ATOM      1  C   UNL     1       8.034   7.936  18.232  0.00  0.00    +0.000 C 
ENDROOT
BRANCH   1   4
ATOM      2  C   UNL     1       9.052  10.100  18.776  0.00  0.00    +0.000 C 
ATOM      3  O   UNL     1       9.155   9.781  19.957  0.00  0.00    +0.000 OA
ATOM      4  N   UNL     1       8.505   9.251  17.838  0.00  0.00    +0.000 N 
ATOM      5  H   UNL     1       8.526   9.459  16.850  0.00  0.00    +0.000 HD
BRANCH   2   9
ATOM      6  C   UNL     1      10.535  13.877  17.313  0.00  0.00    +0.000 A 
ATOM      7  C   UNL     1      11.369  12.759  17.445  0.00  0.00    +0.000 A 
ATOM      8  C   UNL     1      10.871  11.549  17.931  0.00  0.00    +0.000 A 
ATOM      9  C   UNL     1       9.536  11.439  18.330  0.00  0.00    +0.000 A 
ATOM     10  C   UNL     1       8.729  12.580  18.286  0.00  0.00    +0.000 A 
ATOM     11  C   UNL     1       9.216  13.802  17.787  0.00  0.00    +0.000 A 
BRANCH   6  13
ATOM     12  C   UNL     1      12.293  15.455  17.201  0.00  0.00    +0.000 C 
ATOM     13  O   UNL     1      10.999  15.041  16.764  0.00  0.00    +0.000 OA
ENDBRANCH   6  13
BRANCH  11  14
ATOM     14  O   UNL     1       8.257  14.780  17.826  0.00  0.00    +0.000 OA
ATOM     15  C   UNL     1       6.893  14.416  17.691  0.00  0.00    +0.000 C 
ENDBRANCH  11  14
ENDBRANCH   2   9
ENDBRANCH   1   4
BRANCH   1  16
ATOM     16  C   UNL     1       7.257   7.225  17.133  0.00  0.00    +0.000 C 
ATOM     17  O   UNL     1       7.775   6.596  16.220  0.00  0.00    +0.000 OA
BRANCH  16  18
ATOM     18  O   UNL     1       5.921   7.412  17.316  0.00  0.00    +0.000 OA
BRANCH  18  19
ATOM     19  C   UNL     1       5.070   6.662  16.453  0.00  0.00    +0.000 C 
BRANCH  19  20
ATOM     20  N   UNL     1       4.373   5.640  17.219  0.00  0.00    +0.000 N 
ATOM     21  N   UNL     1       4.847   4.359  17.144  0.00  0.00    +0.000 NA
ATOM     22  N   UNL     1       4.355   3.438  17.828  0.00  0.00    +0.000 NA
ATOM     23  C   UNL     1       3.494   3.761  18.880  0.00  0.00    +0.000 A 
ATOM     24  C   UNL     1       3.200   2.785  19.837  0.00  0.00    +0.000 A 
ATOM     25  C   UNL     1       2.425   3.098  20.957  0.00  0.00    +0.000 A 
ATOM     26  C   UNL     1       1.921   4.389  21.119  0.00  0.00    +0.000 A 
ATOM     27  C   UNL     1       2.168   5.358  20.148  0.00  0.00    +0.000 A 
ATOM     28  C   UNL     1       2.952   5.027  19.038  0.00  0.00    +0.000 A 
ATOM     29  C   UNL     1       3.337   6.024  18.042  0.00  0.00    +0.000 A 
ATOM     30  O   UNL     1       2.798   7.126  18.023  0.00  0.00    +0.000 OA
ENDBRANCH  19  20
ENDBRANCH  18  19
ENDBRANCH  16  18
ENDBRANCH   1  16
TORSDOF 8
ENDMDL
MODEL 6
REMARK VINA RESULT:      -7.6      1.679      2.812
REMARK  Name = 
REMARK  10 active torsions:
REMARK  status: ('A' for Active; 'I' for Inactive)
REMARK    1  A    between atoms: C_1  and  O_2
REMARK    2  A    between atoms: O_2  and  C_3
REMARK    3  A    between atoms: C_6  and  C_7
REMARK    4  A    between atoms: N_9  and  C_10
REMARK    5  A    between atoms: C_10  and  C_11
REMARK    6  A    between atoms: C_11  and  O_13
REMARK    7  A    between atoms: O_13  and  C_14
REMARK    8  A    between atoms: C_14  and  N_15
REMARK    9  A    between atoms: C_27  and  O_28
REMARK   10  A    between atoms: O_28  and  C_29
REMARK                            x       y       z     vdW  Elec       q    Type
REMARK                         _______ _______ _______ _____ _____    ______ ____
ROOT
ATOM      1  C   UNL     1       2.606   5.596  20.432  0.00  0.00    +0.000 C 
ENDROOT
BRANCH   1   4
ATOM      2  C   UNL     1       1.610   7.836  20.384  0.00  0.00    +0.000 C 
ATOM      3  O   UNL     1       2.201   8.103  19.341  0.00  0.00    +0.000 OA
ATOM      4  N   UNL     1       1.748   6.615  21.007  0.00  0.00    +0.000 N 
ATOM      5  H   UNL     1       1.176   6.347  21.796  0.00  0.00    +0.000 HD
BRANCH   2   9
ATOM      6  C   UNL     1      -0.837  10.827  22.300  0.00  0.00    +0.000 A 
ATOM      7  C   UNL     1      -0.175   9.836  23.036  0.00  0.00    +0.000 A 
ATOM      8  C   UNL     1       0.604   8.871  22.394  0.00  0.00    +0.000 A 
ATOM      9  C   UNL     1       0.708   8.854  21.000  0.00  0.00    +0.000 A 
ATOM     10  C   UNL     1      -0.029   9.785  20.263  0.00  0.00    +0.000 A 
ATOM     11  C   UNL     1      -0.807  10.770  20.898  0.00  0.00    +0.000 A 
BRANCH   6  13
ATOM     12  C   UNL     1      -0.930  13.114  22.901  0.00  0.00    +0.000 C 
ATOM     13  O   UNL     1      -1.536  11.822  22.928  0.00  0.00    +0.000 OA
ENDBRANCH   6  13
BRANCH  11  14
ATOM     14  O   UNL     1      -1.433  11.581  19.988  0.00  0.00    +0.000 OA
ATOM     15  C   UNL     1      -0.682  12.128  18.917  0.00  0.00    +0.000 C 
ENDBRANCH  11  14
ENDBRANCH   2   9
ENDBRANCH   1   4
BRANCH   1  16
ATOM     16  C   UNL     1       2.268   4.191  20.907  0.00  0.00    +0.000 C 
ATOM     17  O   UNL     1       2.197   3.860  22.083  0.00  0.00    +0.000 OA
BRANCH  16  18
ATOM     18  O   UNL     1       2.077   3.374  19.835  0.00  0.00    +0.000 OA
BRANCH  18  19
ATOM     19  C   UNL     1       3.195   2.568  19.468  0.00  0.00    +0.000 C 
BRANCH  19  20
ATOM     20  N   UNL     1       4.152   3.369  18.721  0.00  0.00    +0.000 N 
ATOM     21  N   UNL     1       5.324   3.700  19.344  0.00  0.00    +0.000 NA
ATOM     22  N   UNL     1       6.230   4.319  18.749  0.00  0.00    +0.000 NA
ATOM     23  C   UNL     1       6.166   4.441  17.357  0.00  0.00    +0.000 A 
ATOM     24  C   UNL     1       7.311   4.839  16.661  0.00  0.00    +0.000 A 
ATOM     25  C   UNL     1       7.317   4.875  15.264  0.00  0.00    +0.000 A 
ATOM     26  C   UNL     1       6.167   4.530  14.552  0.00  0.00    +0.000 A 
ATOM     27  C   UNL     1       5.005   4.179  15.237  0.00  0.00    +0.000 A 
ATOM     28  C   UNL     1       5.022   4.141  16.635  0.00  0.00    +0.000 A 
ATOM     29  C   UNL     1       3.873   3.676  17.407  0.00  0.00    +0.000 A 
ATOM     30  O   UNL     1       2.781   3.523  16.868  0.00  0.00    +0.000 OA
ENDBRANCH  19  20
ENDBRANCH  18  19
ENDBRANCH  16  18
ENDBRANCH   1  16
TORSDOF 8
ENDMDL
MODEL 7
REMARK VINA RESULT:      -7.6      2.155      4.711
REMARK  Name = 
REMARK  10 active torsions:
REMARK  status: ('A' for Active; 'I' for Inactive)
REMARK    1  A    between atoms: C_1  and  O_2
REMARK    2  A    between atoms: O_2  and  C_3
REMARK    3  A    between atoms: C_6  and  C_7
REMARK    4  A    between atoms: N_9  and  C_10
REMARK    5  A    between atoms: C_10  and  C_11
REMARK    6  A    between atoms: C_11  and  O_13
REMARK    7  A    between atoms: O_13  and  C_14
REMARK    8  A    between atoms: C_14  and  N_15
REMARK    9  A    between atoms: C_27  and  O_28
REMARK   10  A    between atoms: O_28  and  C_29
REMARK                            x       y       z     vdW  Elec       q    Type
REMARK                         _______ _______ _______ _____ _____    ______ ____
ROOT
ATOM      1  C   UNL     1       6.575   6.081  16.929  0.00  0.00    +0.000 C 
ENDROOT
BRANCH   1   4
ATOM      2  C   UNL     1       4.335   7.013  17.288  0.00  0.00    +0.000 C 
ATOM      3  O   UNL     1       4.165   7.133  16.079  0.00  0.00    +0.000 OA
ATOM      4  N   UNL     1       5.503   6.502  17.812  0.00  0.00    +0.000 N 
ATOM      5  H   UNL     1       5.604   6.291  18.795  0.00  0.00    +0.000 HD
BRANCH   2   9
ATOM      6  C   UNL     1       1.339   8.162  20.171  0.00  0.00    +0.000 A 
ATOM      7  C   UNL     1       2.022   6.943  20.265  0.00  0.00    +0.000 A 
ATOM      8  C   UNL     1       2.981   6.586  19.314  0.00  0.00    +0.000 A 
ATOM      9  C   UNL     1       3.252   7.424  18.229  0.00  0.00    +0.000 A 
ATOM     10  C   UNL     1       2.503   8.596  18.086  0.00  0.00    +0.000 A 
ATOM     11  C   UNL     1       1.543   8.972  19.042  0.00  0.00    +0.000 A 
BRANCH   6  13
ATOM     12  C   UNL     1       1.011   9.332  22.201  0.00  0.00    +0.000 C 
ATOM     13  O   UNL     1       0.457   8.552  21.141  0.00  0.00    +0.000 OA
ENDBRANCH   6  13
BRANCH  11  14
ATOM     14  O   UNL     1       0.938  10.155  18.710  0.00  0.00    +0.000 OA
ATOM     15  C   UNL     1      -0.409  10.142  18.267  0.00  0.00    +0.000 C 
ENDBRANCH  11  14
ENDBRANCH   2   9
ENDBRANCH   1   4
BRANCH   1  16
ATOM     16  C   UNL     1       7.161   4.727  17.302  0.00  0.00    +0.000 C 
ATOM     17  O   UNL     1       8.032   4.562  18.145  0.00  0.00    +0.000 OA
BRANCH  16  18
ATOM     18  O   UNL     1       6.582   3.751  16.550  0.00  0.00    +0.000 OA
BRANCH  18  19
ATOM     19  C   UNL     1       5.170   3.859  16.381  0.00  0.00    +0.000 C 
BRANCH  19  20
ATOM     20  N   UNL     1       4.495   3.371  17.574  0.00  0.00    +0.000 N 
ATOM     21  N   UNL     1       5.259   3.152  18.688  0.00  0.00    +0.000 NA
ATOM     22  N   UNL     1       4.747   2.807  19.774  0.00  0.00    +0.000 NA
ATOM     23  C   UNL     1       3.362   2.906  19.932  0.00  0.00    +0.000 A 
ATOM     24  C   UNL     1       2.823   2.835  21.221  0.00  0.00    +0.000 A 
ATOM     25  C   UNL     1       1.455   3.031  21.431  0.00  0.00    +0.000 A 
ATOM     26  C   UNL     1       0.612   3.281  20.348  0.00  0.00    +0.000 A 
ATOM     27  C   UNL     1       1.130   3.308  19.055  0.00  0.00    +0.000 A 
ATOM     28  C   UNL     1       2.503   3.117  18.866  0.00  0.00    +0.000 A 
ATOM     29  C   UNL     1       3.124   3.241  17.550  0.00  0.00    +0.000 A 
ATOM     30  O   UNL     1       2.433   3.287  16.537  0.00  0.00    +0.000 OA
ENDBRANCH  19  20
ENDBRANCH  18  19
ENDBRANCH  16  18
ENDBRANCH   1  16
TORSDOF 8
ENDMDL
MODEL 8
REMARK VINA RESULT:      -7.4      4.387      7.060
REMARK  Name = 
REMARK  10 active torsions:
REMARK  status: ('A' for Active; 'I' for Inactive)
REMARK    1  A    between atoms: C_1  and  O_2
REMARK    2  A    between atoms: O_2  and  C_3
REMARK    3  A    between atoms: C_6  and  C_7
REMARK    4  A    between atoms: N_9  and  C_10
REMARK    5  A    between atoms: C_10  and  C_11
REMARK    6  A    between atoms: C_11  and  O_13
REMARK    7  A    between atoms: O_13  and  C_14
REMARK    8  A    between atoms: C_14  and  N_15
REMARK    9  A    between atoms: C_27  and  O_28
REMARK   10  A    between atoms: O_28  and  C_29
REMARK                            x       y       z     vdW  Elec       q    Type
REMARK                         _______ _______ _______ _____ _____    ______ ____
ROOT
ATOM      1  C   UNL     1       6.765   6.638  16.990  0.00  0.00    +0.000 C 
ENDROOT
BRANCH   1   4
ATOM      2  C   UNL     1       8.153   8.277  18.172  0.00  0.00    +0.000 C 
ATOM      3  O   UNL     1       8.647   7.394  18.866  0.00  0.00    +0.000 OA
ATOM      4  N   UNL     1       7.205   8.003  17.210  0.00  0.00    +0.000 N 
ATOM      5  H   UNL     1       6.883   8.704  16.558  0.00  0.00    +0.000 HD
BRANCH   2   9
ATOM      6  C   UNL     1       9.204  12.424  18.726  0.00  0.00    +0.000 A 
ATOM      7  C   UNL     1       8.305  12.019  17.731  0.00  0.00    +0.000 A 
ATOM      8  C   UNL     1       7.987  10.670  17.562  0.00  0.00    +0.000 A 
ATOM      9  C   UNL     1       8.589   9.693  18.360  0.00  0.00    +0.000 A 
ATOM     10  C   UNL     1       9.556  10.089  19.289  0.00  0.00    +0.000 A 
ATOM     11  C   UNL     1       9.876  11.446  19.477  0.00  0.00    +0.000 A 
BRANCH   6  13
ATOM     12  C   UNL     1       9.169  14.623  17.856  0.00  0.00    +0.000 C 
ATOM     13  O   UNL     1       9.459  13.750  18.948  0.00  0.00    +0.000 OA
ENDBRANCH   6  13
BRANCH  11  14
ATOM     14  O   UNL     1      10.837  11.608  20.439  0.00  0.00    +0.000 OA
ATOM     15  C   UNL     1      12.172  11.879  20.044  0.00  0.00    +0.000 C 
ENDBRANCH  11  14
ENDBRANCH   2   9
ENDBRANCH   1   4
BRANCH   1  16
ATOM     16  C   UNL     1       5.331   6.545  16.486  0.00  0.00    +0.000 C 
ATOM     17  O   UNL     1       4.464   7.376  16.722  0.00  0.00    +0.000 OA
BRANCH  16  18
ATOM     18  O   UNL     1       5.170   5.406  15.760  0.00  0.00    +0.000 OA
BRANCH  18  19
ATOM     19  C   UNL     1       5.210   4.190  16.505  0.00  0.00    +0.000 C 
BRANCH  19  20
ATOM     20  N   UNL     1       4.130   4.177  17.480  0.00  0.00    +0.000 N 
ATOM     21  N   UNL     1       2.857   4.365  17.018  0.00  0.00    +0.000 NA
ATOM     22  N   UNL     1       1.868   4.292  17.776  0.00  0.00    +0.000 NA
ATOM     23  C   UNL     1       2.031   3.747  19.052  0.00  0.00    +0.000 A 
ATOM     24  C   UNL     1       0.896   3.367  19.775  0.00  0.00    +0.000 A 
ATOM     25  C   UNL     1       1.021   2.727  21.011  0.00  0.00    +0.000 A 
ATOM     26  C   UNL     1       2.287   2.478  21.543  0.00  0.00    +0.000 A 
ATOM     27  C   UNL     1       3.424   2.894  20.854  0.00  0.00    +0.000 A 
ATOM     28  C   UNL     1       3.278   3.527  19.615  0.00  0.00    +0.000 A 
ATOM     29  C   UNL     1       4.431   3.889  18.794  0.00  0.00    +0.000 A 
ATOM     30  O   UNL     1       5.564   3.859  19.264  0.00  0.00    +0.000 OA
ENDBRANCH  19  20
ENDBRANCH  18  19
ENDBRANCH  16  18
ENDBRANCH   1  16
TORSDOF 8
ENDMDL
MODEL 9
REMARK VINA RESULT:      -7.4      2.428      7.375
REMARK  Name = 
REMARK  10 active torsions:
REMARK  status: ('A' for Active; 'I' for Inactive)
REMARK    1  A    between atoms: C_1  and  O_2
REMARK    2  A    between atoms: O_2  and  C_3
REMARK    3  A    between atoms: C_6  and  C_7
REMARK    4  A    between atoms: N_9  and  C_10
REMARK    5  A    between atoms: C_10  and  C_11
REMARK    6  A    between atoms: C_11  and  O_13
REMARK    7  A    between atoms: O_13  and  C_14
REMARK    8  A    between atoms: C_14  and  N_15
REMARK    9  A    between atoms: C_27  and  O_28
REMARK   10  A    between atoms: O_28  and  C_29
REMARK                            x       y       z     vdW  Elec       q    Type
REMARK                         _______ _______ _______ _____ _____    ______ ____
ROOT
ATOM      1  C   UNL     1       2.205   3.115  18.980  0.00  0.00    +0.000 C 
ENDROOT
BRANCH   1   4
ATOM      2  C   UNL     1       4.474   3.645  18.217  0.00  0.00    +0.000 C 
ATOM      3  O   UNL     1       4.943   3.307  19.300  0.00  0.00    +0.000 OA
ATOM      4  N   UNL     1       3.121   3.589  17.960  0.00  0.00    +0.000 N 
ATOM      5  H   UNL     1       2.743   3.752  17.038  0.00  0.00    +0.000 HD
BRANCH   2   9
ATOM      6  C   UNL     1       6.941   5.031  14.962  0.00  0.00    +0.000 A 
ATOM      7  C   UNL     1       6.160   3.873  14.853  0.00  0.00    +0.000 A 
ATOM      8  C   UNL     1       5.377   3.436  15.923  0.00  0.00    +0.000 A 
ATOM      9  C   UNL     1       5.385   4.128  17.138  0.00  0.00    +0.000 A 
ATOM     10  C   UNL     1       6.237   5.228  17.276  0.00  0.00    +0.000 A 
ATOM     11  C   UNL     1       7.021   5.685  16.202  0.00  0.00    +0.000 A 
BRANCH   6  13
ATOM     12  C   UNL     1       7.513   4.760  12.683  0.00  0.00    +0.000 C 
ATOM     13  O   UNL     1       7.649   5.507  13.892  0.00  0.00    +0.000 OA
ENDBRANCH   6  13
BRANCH  11  14
ATOM     14  O   UNL     1       7.769   6.778  16.553  0.00  0.00    +0.000 OA
ATOM     15  C   UNL     1       7.620   7.328  17.852  0.00  0.00    +0.000 C 
ENDBRANCH  11  14
ENDBRANCH   2   9
ENDBRANCH   1   4
BRANCH   1  16
ATOM     16  C   UNL     1       1.686   4.226  19.882  0.00  0.00    +0.000 C 
ATOM     17  O   UNL     1       1.276   4.053  21.022  0.00  0.00    +0.000 OA
BRANCH  16  18
ATOM     18  O   UNL     1       1.736   5.416  19.223  0.00  0.00    +0.000 OA
BRANCH  18  19
ATOM     19  C   UNL     1       2.598   6.399  19.792  0.00  0.00    +0.000 C 
BRANCH  19  20
ATOM     20  N   UNL     1       2.071   7.729  19.522  0.00  0.00    +0.000 N 
ATOM     21  N   UNL     1       2.123   8.180  18.232  0.00  0.00    +0.000 NA
ATOM     22  N   UNL     1       1.625   9.276  17.902  0.00  0.00    +0.000 NA
ATOM     23  C   UNL     1       0.768   9.927  18.794  0.00  0.00    +0.000 A 
ATOM     24  C   UNL     1      -0.036  10.969  18.321  0.00  0.00    +0.000 A 
ATOM     25  C   UNL     1      -0.976  11.577  19.157  0.00  0.00    +0.000 A 
ATOM     26  C   UNL     1      -1.107  11.159  20.481  0.00  0.00    +0.000 A 
ATOM     27  C   UNL     1      -0.278  10.154  20.978  0.00  0.00    +0.000 A 
ATOM     28  C   UNL     1       0.652   9.552  20.123  0.00  0.00    +0.000 A 
ATOM     29  C   UNL     1       1.472   8.422  20.551  0.00  0.00    +0.000 A 
ATOM     30  O   UNL     1       1.538   8.114  21.737  0.00  0.00    +0.000 OA
ENDBRANCH  19  20
ENDBRANCH  18  19
ENDBRANCH  16  18
ENDBRANCH   1  16
TORSDOF 8
ENDMDL
