MODEL 1
REMARK VINA RESULT:      -6.7      0.000      0.000
REMARK  Name = 
REMARK  3 active torsions:
REMARK  status: ('A' for Active; 'I' for Inactive)
REMARK    1  A    between atoms: C_1  and  C_2
REMARK    2  A    between atoms: C_6  and  C_7
REMARK    3  A    between atoms: C_11  and  C_13
REMARK                            x       y       z     vdW  Elec       q    Type
REMARK                         _______ _______ _______ _____ _____    ______ ____
ROOT
ATOM      1  C   UNL     1       2.438   7.359  19.517  0.00  0.00    +0.000 C 
ATOM      2  C   UNL     1       1.863   7.971  20.812  0.00  0.00    +0.000 C 
ATOM      3  C   UNL     1       0.578   8.750  20.570  0.00  0.00    +0.000 C 
ATOM      4  N   UNL     1       0.828   9.776  19.573  0.00  0.00    +0.000 N 
ATOM      5  C   UNL     1       1.042  11.077  20.030  0.00  0.00    +0.000 C 
ATOM      6  O   UNL     1       0.975  11.369  21.221  0.00  0.00    +0.000 OA
ATOM      7  C   UNL     1       1.134   9.239  18.252  0.00  0.00    +0.000 C 
ATOM      8  C   UNL     1       2.346   8.302  18.295  0.00  0.00    +0.000 C 
ENDROOT
BRANCH   1  14
ATOM      9  C   UNL     1       1.318   2.777  21.434  0.00  0.00    +0.000 C 
ATOM     10  C   UNL     1       1.471   3.699  20.260  0.00  0.00    +0.000 A 
ATOM     11  C   UNL     1       1.481   3.178  18.959  0.00  0.00    +0.000 A 
ATOM     12  C   UNL     1       1.674   4.019  17.869  0.00  0.00    +0.000 A 
ATOM     13  C   UNL     1       1.896   5.378  18.075  0.00  0.00    +0.000 A 
ATOM     14  C   UNL     1       1.924   5.929  19.372  0.00  0.00    +0.000 A 
ATOM     15  C   UNL     1       1.668   5.081  20.457  0.00  0.00    +0.000 A 
ENDBRANCH   1  14
BRANCH   5  16
ATOM     16  C   UNL     1       1.381  12.157  19.051  0.00  0.00    +0.000 C 
ATOM     17  C   UNL     1       0.279  13.061  18.530  0.00  0.00    +0.000 C 
ATOM     18  C   UNL     1       1.300  13.607  19.482  0.00  0.00    +0.000 C 
ENDBRANCH   5  16
TORSDOF 2
ENDMDL
MODEL 2
REMARK VINA RESULT:      -6.7      5.071      7.428
REMARK  Name = 
REMARK  3 active torsions:
REMARK  status: ('A' for Active; 'I' for Inactive)
REMARK    1  A    between atoms: C_1  and  C_2
REMARK    2  A    between atoms: C_6  and  C_7
REMARK    3  A    between atoms: C_11  and  C_13
REMARK                            x       y       z     vdW  Elec       q    Type
REMARK                         _______ _______ _______ _____ _____    ______ ____
ROOT
ATOM      1  C   UNL     1       4.895   3.558  17.590  0.00  0.00    +0.000 C 
ATOM      2  C   UNL     1       3.728   2.657  17.133  0.00  0.00    +0.000 C 
ATOM      3  C   UNL     1       2.393   3.388  17.126  0.00  0.00    +0.000 C 
ATOM      4  N   UNL     1       2.146   3.932  18.450  0.00  0.00    +0.000 N 
ATOM      5  C   UNL     1       1.283   3.222  19.285  0.00  0.00    +0.000 C 
ATOM      6  O   UNL     1       0.707   2.203  18.913  0.00  0.00    +0.000 OA
ATOM      7  C   UNL     1       3.085   4.981  18.831  0.00  0.00    +0.000 C 
ATOM      8  C   UNL     1       4.534   4.480  18.777  0.00  0.00    +0.000 C 
ENDROOT
BRANCH   1  14
ATOM      9  C   UNL     1       6.068   3.540  12.635  0.00  0.00    +0.000 C 
ATOM     10  C   UNL     1       6.203   4.135  14.007  0.00  0.00    +0.000 A 
ATOM     11  C   UNL     1       7.213   5.070  14.266  0.00  0.00    +0.000 A 
ATOM     12  C   UNL     1       7.377   5.587  15.546  0.00  0.00    +0.000 A 
ATOM     13  C   UNL     1       6.559   5.144  16.581  0.00  0.00    +0.000 A 
ATOM     14  C   UNL     1       5.554   4.178  16.361  0.00  0.00    +0.000 A 
ATOM     15  C   UNL     1       5.361   3.712  15.055  0.00  0.00    +0.000 A 
ENDBRANCH   1  14
BRANCH   5  16
ATOM     16  C   UNL     1       1.054   3.697  20.685  0.00  0.00    +0.000 C 
ATOM     17  C   UNL     1       1.242   2.729  21.840  0.00  0.00    +0.000 C 
ATOM     18  C   UNL     1       2.232   3.835  21.629  0.00  0.00    +0.000 C 
ENDBRANCH   5  16
TORSDOF 2
ENDMDL
MODEL 3
REMARK VINA RESULT:      -6.7      4.397      7.088
REMARK  Name = 
REMARK  3 active torsions:
REMARK  status: ('A' for Active; 'I' for Inactive)
REMARK    1  A    between atoms: C_1  and  C_2
REMARK    2  A    between atoms: C_6  and  C_7
REMARK    3  A    between atoms: C_11  and  C_13
REMARK                            x       y       z     vdW  Elec       q    Type
REMARK                         _______ _______ _______ _____ _____    ______ ____
ROOT
ATOM      1  C   UNL     1       3.796   4.023  17.084  0.00  0.00    +0.000 C 
ATOM      2  C   UNL     1       3.040   5.293  17.529  0.00  0.00    +0.000 C 
ATOM      3  C   UNL     1       3.564   5.855  18.843  0.00  0.00    +0.000 C 
ATOM      4  N   UNL     1       3.493   4.820  19.860  0.00  0.00    +0.000 N 
ATOM      5  C   UNL     1       2.417   4.865  20.747  0.00  0.00    +0.000 C 
ATOM      6  O   UNL     1       1.582   5.766  20.715  0.00  0.00    +0.000 OA
ATOM      7  C   UNL     1       4.389   3.697  19.609  0.00  0.00    +0.000 C 
ATOM      8  C   UNL     1       4.111   3.054  18.246  0.00  0.00    +0.000 C 
ENDROOT
BRANCH   1  14
ATOM      9  C   UNL     1       6.305   3.653  12.668  0.00  0.00    +0.000 C 
ATOM     10  C   UNL     1       6.194   4.187  14.067  0.00  0.00    +0.000 A 
ATOM     11  C   UNL     1       7.303   4.793  14.672  0.00  0.00    +0.000 A 
ATOM     12  C   UNL     1       7.224   5.244  15.985  0.00  0.00    +0.000 A 
ATOM     13  C   UNL     1       6.051   5.059  16.711  0.00  0.00    +0.000 A 
ATOM     14  C   UNL     1       4.928   4.423  16.142  0.00  0.00    +0.000 A 
ATOM     15  C   UNL     1       5.001   4.028  14.800  0.00  0.00    +0.000 A 
ENDBRANCH   1  14
BRANCH   5  16
ATOM     16  C   UNL     1       2.254   3.780  21.765  0.00  0.00    +0.000 C 
ATOM     17  C   UNL     1       1.243   2.675  21.520  0.00  0.00    +0.000 C 
ATOM     18  C   UNL     1       2.709   2.373  21.436  0.00  0.00    +0.000 C 
ENDBRANCH   5  16
TORSDOF 2
ENDMDL
MODEL 4
REMARK VINA RESULT:      -6.6      5.386      7.275
REMARK  Name = 
REMARK  3 active torsions:
REMARK  status: ('A' for Active; 'I' for Inactive)
REMARK    1  A    between atoms: C_1  and  C_2
REMARK    2  A    between atoms: C_6  and  C_7
REMARK    3  A    between atoms: C_11  and  C_13
REMARK                            x       y       z     vdW  Elec       q    Type
REMARK                         _______ _______ _______ _____ _____    ______ ____
ROOT
ATOM      1  C   UNL     1       6.169   4.670  16.109  0.00  0.00    +0.000 C 
ATOM      2  C   UNL     1       5.223   3.532  16.550  0.00  0.00    +0.000 C 
ATOM      3  C   UNL     1       3.769   3.973  16.613  0.00  0.00    +0.000 C 
ATOM      4  N   UNL     1       3.659   5.117  17.502  0.00  0.00    +0.000 N 
ATOM      5  C   UNL     1       3.213   4.879  18.802  0.00  0.00    +0.000 C 
ATOM      6  O   UNL     1       2.873   3.761  19.181  0.00  0.00    +0.000 OA
ATOM      7  C   UNL     1       4.336   6.308  17.000  0.00  0.00    +0.000 C 
ATOM      8  C   UNL     1       5.823   6.038  16.740  0.00  0.00    +0.000 C 
ENDROOT
BRANCH   1  14
ATOM      9  C   UNL     1       5.447   2.431  11.593  0.00  0.00    +0.000 C 
ATOM     10  C   UNL     1       6.108   3.480  12.440  0.00  0.00    +0.000 A 
ATOM     11  C   UNL     1       7.195   4.204  11.933  0.00  0.00    +0.000 A 
ATOM     12  C   UNL     1       7.845   5.140  12.729  0.00  0.00    +0.000 A 
ATOM     13  C   UNL     1       7.437   5.330  14.047  0.00  0.00    +0.000 A 
ATOM     14  C   UNL     1       6.369   4.594  14.598  0.00  0.00    +0.000 A 
ATOM     15  C   UNL     1       5.684   3.698  13.767  0.00  0.00    +0.000 A 
ENDBRANCH   1  14
BRANCH   5  16
ATOM     16  C   UNL     1       3.156   6.009  19.781  0.00  0.00    +0.000 C 
ATOM     17  C   UNL     1       2.185   7.151  19.545  0.00  0.00    +0.000 C 
ATOM     18  C   UNL     1       1.931   6.178  20.656  0.00  0.00    +0.000 C 
ENDBRANCH   5  16
TORSDOF 2
ENDMDL
MODEL 5
REMARK VINA RESULT:      -6.5      4.948      7.269
REMARK  Name = 
REMARK  3 active torsions:
REMARK  status: ('A' for Active; 'I' for Inactive)
REMARK    1  A    between atoms: C_1  and  C_2
REMARK    2  A    between atoms: C_6  and  C_7
REMARK    3  A    between atoms: C_11  and  C_13
REMARK                            x       y       z     vdW  Elec       q    Type
REMARK                         _______ _______ _______ _____ _____    ______ ____
ROOT
ATOM      1  C   UNL     1       5.111   4.039  18.295  0.00  0.00    +0.000 C 
ATOM      2  C   UNL     1       5.949   5.252  17.837  0.00  0.00    +0.000 C 
ATOM      3  C   UNL     1       5.440   5.856  16.537  0.00  0.00    +0.000 C 
ATOM      4  N   UNL     1       5.413   4.824  15.515  0.00  0.00    +0.000 N 
ATOM      5  C   UNL     1       6.470   4.794  14.605  0.00  0.00    +0.000 C 
ATOM      6  O   UNL     1       7.370   5.630  14.622  0.00  0.00    +0.000 OA
ATOM      7  C   UNL     1       4.443   3.769  15.781  0.00  0.00    +0.000 C 
ATOM      8  C   UNL     1       4.702   3.100  17.137  0.00  0.00    +0.000 C 
ENDROOT
BRANCH   1  14
ATOM      9  C   UNL     1       1.341   3.161  21.602  0.00  0.00    +0.000 C 
ATOM     10  C   UNL     1       2.160   4.112  20.778  0.00  0.00    +0.000 A 
ATOM     11  C   UNL     1       1.732   5.434  20.606  0.00  0.00    +0.000 A 
ATOM     12  C   UNL     1       2.458   6.306  19.802  0.00  0.00    +0.000 A 
ATOM     13  C   UNL     1       3.593   5.851  19.136  0.00  0.00    +0.000 A 
ATOM     14  C   UNL     1       4.031   4.517  19.261  0.00  0.00    +0.000 A 
ATOM     15  C   UNL     1       3.326   3.666  20.122  0.00  0.00    +0.000 A 
ENDBRANCH   1  14
BRANCH   5  16
ATOM     16  C   UNL     1       6.532   3.705  13.581  0.00  0.00    +0.000 C 
ATOM     17  C   UNL     1       5.533   3.701  12.437  0.00  0.00    +0.000 C 
ATOM     18  C   UNL     1       6.970   4.033  12.168  0.00  0.00    +0.000 C 
ENDBRANCH   5  16
TORSDOF 2
ENDMDL
MODEL 6
REMARK VINA RESULT:      -6.3      5.533      7.646
REMARK  Name = 
REMARK  3 active torsions:
REMARK  status: ('A' for Active; 'I' for Inactive)
REMARK    1  A    between atoms: C_1  and  C_2
REMARK    2  A    between atoms: C_6  and  C_7
REMARK    3  A    between atoms: C_11  and  C_13
REMARK                            x       y       z     vdW  Elec       q    Type
REMARK                         _______ _______ _______ _____ _____    ______ ____
ROOT
ATOM      1  C   UNL     1       4.591   5.043  17.389  0.00  0.00    +0.000 C 
ATOM      2  C   UNL     1       5.399   4.331  18.496  0.00  0.00    +0.000 C 
ATOM      3  C   UNL     1       5.055   2.854  18.612  0.00  0.00    +0.000 C 
ATOM      4  N   UNL     1       3.626   2.717  18.838  0.00  0.00    +0.000 N 
ATOM      5  C   UNL     1       3.203   2.495  20.148  0.00  0.00    +0.000 C 
ATOM      6  O   UNL     1       3.995   2.366  21.078  0.00  0.00    +0.000 OA
ATOM      7  C   UNL     1       2.816   3.149  17.705  0.00  0.00    +0.000 C 
ATOM      8  C   UNL     1       3.109   4.606  17.331  0.00  0.00    +0.000 C 
ENDROOT
BRANCH   1  14
ATOM      9  C   UNL     1       5.447   3.434  12.634  0.00  0.00    +0.000 C 
ATOM     10  C   UNL     1       5.877   4.202  13.851  0.00  0.00    +0.000 A 
ATOM     11  C   UNL     1       7.199   4.651  13.961  0.00  0.00    +0.000 A 
ATOM     12  C   UNL     1       7.619   5.317  15.107  0.00  0.00    +0.000 A 
ATOM     13  C   UNL     1       6.731   5.504  16.163  0.00  0.00    +0.000 A 
ATOM     14  C   UNL     1       5.403   5.035  16.097  0.00  0.00    +0.000 A 
ATOM     15  C   UNL     1       4.977   4.420  14.913  0.00  0.00    +0.000 A 
ENDBRANCH   1  14
BRANCH   5  16
ATOM     16  C   UNL     1       1.738   2.424  20.449  0.00  0.00    +0.000 C 
ATOM     17  C   UNL     1       1.240   2.827  21.825  0.00  0.00    +0.000 C 
ATOM     18  C   UNL     1       0.954   3.706  20.644  0.00  0.00    +0.000 C 
ENDBRANCH   5  16
TORSDOF 2
ENDMDL
MODEL 7
REMARK VINA RESULT:      -6.2      4.852      7.382
REMARK  Name = 
REMARK  3 active torsions:
REMARK  status: ('A' for Active; 'I' for Inactive)
REMARK    1  A    between atoms: C_1  and  C_2
REMARK    2  A    between atoms: C_6  and  C_7
REMARK    3  A    between atoms: C_11  and  C_13
REMARK                            x       y       z     vdW  Elec       q    Type
REMARK                         _______ _______ _______ _____ _____    ______ ____
ROOT
ATOM      1  C   UNL     1       4.679   4.312  18.195  0.00  0.00    +0.000 C 
ATOM      2  C   UNL     1       5.592   5.481  17.767  0.00  0.00    +0.000 C 
ATOM      3  C   UNL     1       5.241   6.021  16.388  0.00  0.00    +0.000 C 
ATOM      4  N   UNL     1       5.297   4.934  15.426  0.00  0.00    +0.000 N 
ATOM      5  C   UNL     1       6.445   4.831  14.640  0.00  0.00    +0.000 C 
ATOM      6  O   UNL     1       7.359   5.650  14.709  0.00  0.00    +0.000 OA
ATOM      7  C   UNL     1       4.277   3.914  15.642  0.00  0.00    +0.000 C 
ATOM      8  C   UNL     1       4.372   3.318  17.052  0.00  0.00    +0.000 C 
ENDROOT
BRANCH   1  14
ATOM      9  C   UNL     1       1.831   8.168  19.912  0.00  0.00    +0.000 C 
ATOM     10  C   UNL     1       2.197   6.712  19.917  0.00  0.00    +0.000 A 
ATOM     11  C   UNL     1       1.712   5.872  20.928  0.00  0.00    +0.000 A 
ATOM     12  C   UNL     1       2.088   4.535  20.968  0.00  0.00    +0.000 A 
ATOM     13  C   UNL     1       2.981   4.038  20.023  0.00  0.00    +0.000 A 
ATOM     14  C   UNL     1       3.514   4.864  19.012  0.00  0.00    +0.000 A 
ATOM     15  C   UNL     1       3.079   6.194  18.947  0.00  0.00    +0.000 A 
ENDBRANCH   1  14
BRANCH   5  16
ATOM     16  C   UNL     1       6.588   3.685  13.688  0.00  0.00    +0.000 C 
ATOM     17  C   UNL     1       5.620   3.558  12.525  0.00  0.00    +0.000 C 
ATOM     18  C   UNL     1       7.045   3.948  12.267  0.00  0.00    +0.000 C 
ENDBRANCH   5  16
TORSDOF 2
ENDMDL
MODEL 8
REMARK VINA RESULT:      -6.1      4.763      5.668
REMARK  Name = 
REMARK  3 active torsions:
REMARK  status: ('A' for Active; 'I' for Inactive)
REMARK    1  A    between atoms: C_1  and  C_2
REMARK    2  A    between atoms: C_6  and  C_7
REMARK    3  A    between atoms: C_11  and  C_13
REMARK                            x       y       z     vdW  Elec       q    Type
REMARK                         _______ _______ _______ _____ _____    ______ ____
ROOT
ATOM      1  C   UNL     1       3.213   5.618  18.989  0.00  0.00    +0.000 C 
ATOM      2  C   UNL     1       3.191   5.776  17.453  0.00  0.00    +0.000 C 
ATOM      3  C   UNL     1       4.236   4.912  16.762  0.00  0.00    +0.000 C 
ATOM      4  N   UNL     1       5.546   5.232  17.302  0.00  0.00    +0.000 N 
ATOM      5  C   UNL     1       6.357   6.086  16.554  0.00  0.00    +0.000 C 
ATOM      6  O   UNL     1       6.013   6.518  15.457  0.00  0.00    +0.000 OA
ATOM      7  C   UNL     1       5.701   4.865  18.705  0.00  0.00    +0.000 C 
ATOM      8  C   UNL     1       4.639   5.541  19.580  0.00  0.00    +0.000 C 
ENDROOT
BRANCH   1  14
ATOM      9  C   UNL     1       1.290   2.289  22.328  0.00  0.00    +0.000 C 
ATOM     10  C   UNL     1       1.324   2.886  20.951  0.00  0.00    +0.000 A 
ATOM     11  C   UNL     1       0.662   2.245  19.896  0.00  0.00    +0.000 A 
ATOM     12  C   UNL     1       0.732   2.762  18.608  0.00  0.00    +0.000 A 
ATOM     13  C   UNL     1       1.493   3.901  18.360  0.00  0.00    +0.000 A 
ATOM     14  C   UNL     1       2.199   4.552  19.393  0.00  0.00    +0.000 A 
ATOM     15  C   UNL     1       2.070   4.054  20.697  0.00  0.00    +0.000 A 
ENDBRANCH   1  14
BRANCH   5  16
ATOM     16  C   UNL     1       7.684   6.510  17.101  0.00  0.00    +0.000 C 
ATOM     17  C   UNL     1       7.853   7.920  17.637  0.00  0.00    +0.000 C 
ATOM     18  C   UNL     1       7.834   6.760  18.588  0.00  0.00    +0.000 C 
ENDBRANCH   5  16
TORSDOF 2
ENDMDL
MODEL 9
REMARK VINA RESULT:      -6.0      3.062      6.919
REMARK  Name = 
REMARK  3 active torsions:
REMARK  status: ('A' for Active; 'I' for Inactive)
REMARK    1  A    between atoms: C_1  and  C_2
REMARK    2  A    between atoms: C_6  and  C_7
REMARK    3  A    between atoms: C_11  and  C_13
REMARK                            x       y       z     vdW  Elec       q    Type
REMARK                         _______ _______ _______ _____ _____    ______ ____
ROOT
ATOM      1  C   UNL     1       2.671   6.776  19.604  0.00  0.00    +0.000 C 
ATOM      2  C   UNL     1       2.481   6.433  18.111  0.00  0.00    +0.000 C 
ATOM      3  C   UNL     1       1.379   5.409  17.882  0.00  0.00    +0.000 C 
ATOM      4  N   UNL     1       1.673   4.217  18.659  0.00  0.00    +0.000 N 
ATOM      5  C   UNL     1       2.246   3.138  17.987  0.00  0.00    +0.000 C 
ATOM      6  O   UNL     1       2.454   3.159  16.776  0.00  0.00    +0.000 OA
ATOM      7  C   UNL     1       1.616   4.436  20.100  0.00  0.00    +0.000 C 
ATOM      8  C   UNL     1       2.580   5.546  20.536  0.00  0.00    +0.000 C 
ENDROOT
BRANCH   1  14
ATOM      9  C   UNL     1      -0.511   9.350  22.632  0.00  0.00    +0.000 C 
ATOM     10  C   UNL     1       0.238   9.216  21.338  0.00  0.00    +0.000 A 
ATOM     11  C   UNL     1      -0.079  10.050  20.258  0.00  0.00    +0.000 A 
ATOM     12  C   UNL     1       0.574   9.897  19.041  0.00  0.00    +0.000 A 
ATOM     13  C   UNL     1       1.519   8.886  18.884  0.00  0.00    +0.000 A 
ATOM     14  C   UNL     1       1.837   8.008  19.941  0.00  0.00    +0.000 A 
ATOM     15  C   UNL     1       1.215   8.213  21.180  0.00  0.00    +0.000 A 
ENDBRANCH   1  14
BRANCH   5  16
ATOM     16  C   UNL     1       2.640   1.915  18.754  0.00  0.00    +0.000 C 
ATOM     17  C   UNL     1       3.880   1.144  18.340  0.00  0.00    +0.000 C 
ATOM     18  C   UNL     1       3.891   1.941  19.610  0.00  0.00    +0.000 C 
ENDBRANCH   5  16
TORSDOF 2
ENDMDL
