MODEL 1
REMARK VINA RESULT:      -8.1      0.000      0.000
REMARK  Name = 
REMARK  14 active torsions:
REMARK  status: ('A' for Active; 'I' for Inactive)
REMARK    1  A    between atoms: C_1  and  O_2
REMARK    2  A    between atoms: O_2  and  C_3
REMARK    3  A    between atoms: C_7  and  O_8
REMARK    4  A    between atoms: O_8  and  C_9
REMARK    5  A    between atoms: C_10  and  O_11
REMARK    6  A    between atoms: O_11  and  C_12
REMARK    7  A    between atoms: C_12  and  C_13
REMARK    8  A    between atoms: C_13  and  N_14
REMARK    9  A    between atoms: N_14  and  C_15
REMARK   10  A    between atoms: C_15  and  C_16
REMARK   11  A    between atoms: C_25  and  C_26
REMARK   12  A    between atoms: C_29  and  O_30
REMARK   13  A    between atoms: O_30  and  C_31
REMARK   14  A    between atoms: C_31  and  C_32
REMARK                            x       y       z     vdW  Elec       q    Type
REMARK                         _______ _______ _______ _____ _____    ______ ____
ROOT
ATOM      1  C   UNL     1       0.665   9.683  18.711  0.00  0.00    +0.000 C 
ATOM      2  O   UNL     1       0.931   9.166  20.024  0.00  0.00    +0.000 OA
ATOM      3  C   UNL     1       0.309   9.856  21.022  0.00  0.00    +0.000 A 
ATOM      4  C   UNL     1      -0.076   9.143  22.153  0.00  0.00    +0.000 A 
ATOM      5  C   UNL     1      -0.780   9.786  23.173  0.00  0.00    +0.000 A 
ATOM      6  C   UNL     1      -1.049  11.154  23.083  0.00  0.00    +0.000 A 
ATOM      7  C   UNL     1      -0.641  11.874  21.960  0.00  0.00    +0.000 A 
ATOM      8  C   UNL     1       0.003  11.212  20.918  0.00  0.00    +0.000 A 
ATOM      9  O   UNL     1       0.235  11.909  19.762  0.00  0.00    +0.000 OA
ATOM     10  C   UNL     1      -0.044  11.067  18.630  0.00  0.00    +0.000 C 
ENDROOT
BRANCH  10  11
ATOM     11  C   UNL     1      -1.560  10.986  18.390  0.00  0.00    +0.000 A 
ATOM     12  C   UNL     1      -2.106   9.940  17.627  0.00  0.00    +0.000 A 
ATOM     13  C   UNL     1      -3.489   9.869  17.403  0.00  0.00    +0.000 A 
ATOM     14  C   UNL     1      -4.333  10.849  17.926  0.00  0.00    +0.000 A 
ATOM     15  C   UNL     1      -3.804  11.921  18.631  0.00  0.00    +0.000 A 
ATOM     16  C   UNL     1      -2.435  11.972  18.879  0.00  0.00    +0.000 A 
BRANCH  14  17
ATOM     17  O   UNL     1      -5.710  10.714  17.654  0.00  0.00    +0.000 OA
BRANCH  17  18
ATOM     18  C   UNL     1      -6.670  11.354  18.444  0.00  0.00    +0.000 C 
ATOM     19  C   UNL     1      -6.953  10.521  19.656  0.00  0.00    +0.000 C 
ATOM     20  O   UNL     1      -7.177  12.450  18.250  0.00  0.00    +0.000 OA
ENDBRANCH  17  18
ENDBRANCH  14  17
ENDBRANCH  10  11
BRANCH   1  21
ATOM     21  C   UNL     1       1.939   9.610  17.834  0.00  0.00    +0.000 C 
BRANCH  21  22
ATOM     22  N   UNL     1       2.309   8.302  17.279  0.00  0.00    +0.000 NA
ATOM     23  H   UNL     1       1.523   7.651  17.308  0.00  0.00    +0.000 HD
BRANCH  22  24
ATOM     24  C   UNL     1       3.480   7.712  17.959  0.00  0.00    +0.000 C 
BRANCH  24  25
ATOM     25  C   UNL     1       3.189   6.357  18.627  0.00  0.00    +0.000 C 
BRANCH  25  26
ATOM     26  O   UNL     1       4.372   5.603  18.858  0.00  0.00    +0.000 OA
BRANCH  26  32
ATOM     27  C   UNL     1       6.413   5.723  17.431  0.00  0.00    +0.000 A 
ATOM     28  C   UNL     1       7.124   5.196  16.334  0.00  0.00    +0.000 A 
ATOM     29  C   UNL     1       6.538   4.253  15.507  0.00  0.00    +0.000 A 
ATOM     30  C   UNL     1       5.259   3.800  15.789  0.00  0.00    +0.000 A 
ATOM     31  C   UNL     1       4.546   4.257  16.913  0.00  0.00    +0.000 A 
ATOM     32  C   UNL     1       5.125   5.224  17.765  0.00  0.00    +0.000 A 
BRANCH  27  34
ATOM     33  C   UNL     1       7.599   7.784  17.516  0.00  0.00    +0.000 C 
ATOM     34  O   UNL     1       7.025   6.676  18.212  0.00  0.00    +0.000 OA
ENDBRANCH  27  34
BRANCH  31  35
ATOM     35  O   UNL     1       3.321   3.644  16.995  0.00  0.00    +0.000 OA
ATOM     36  C   UNL     1       3.157   2.506  17.823  0.00  0.00    +0.000 C 
ENDBRANCH  31  35
ENDBRANCH  26  32
ENDBRANCH  25  26
ENDBRANCH  24  25
ENDBRANCH  22  24
ENDBRANCH  21  22
ENDBRANCH   1  21
TORSDOF 11
ENDMDL
MODEL 2
REMARK VINA RESULT:      -8.1      1.332      2.672
REMARK  Name = 
REMARK  14 active torsions:
REMARK  status: ('A' for Active; 'I' for Inactive)
REMARK    1  A    between atoms: C_1  and  O_2
REMARK    2  A    between atoms: O_2  and  C_3
REMARK    3  A    between atoms: C_7  and  O_8
REMARK    4  A    between atoms: O_8  and  C_9
REMARK    5  A    between atoms: C_10  and  O_11
REMARK    6  A    between atoms: O_11  and  C_12
REMARK    7  A    between atoms: C_12  and  C_13
REMARK    8  A    between atoms: C_13  and  N_14
REMARK    9  A    between atoms: N_14  and  C_15
REMARK   10  A    between atoms: C_15  and  C_16
REMARK   11  A    between atoms: C_25  and  C_26
REMARK   12  A    between atoms: C_29  and  O_30
REMARK   13  A    between atoms: O_30  and  C_31
REMARK   14  A    between atoms: C_31  and  C_32
REMARK                            x       y       z     vdW  Elec       q    Type
REMARK                         _______ _______ _______ _____ _____    ______ ____
ROOT
ATOM      1  C   UNL     1       0.469   9.740  18.697  0.00  0.00    +0.000 C 
ATOM      2  O   UNL     1       0.787   9.263  20.014  0.00  0.00    +0.000 OA
ATOM      3  C   UNL     1       0.221   9.997  21.014  0.00  0.00    +0.000 A 
ATOM      4  C   UNL     1      -0.123   9.328  22.186  0.00  0.00    +0.000 A 
ATOM      5  C   UNL     1      -0.771  10.016  23.213  0.00  0.00    +0.000 A 
ATOM      6  C   UNL     1      -1.023  11.385  23.089  0.00  0.00    +0.000 A 
ATOM      7  C   UNL     1      -0.656  12.060  21.925  0.00  0.00    +0.000 A 
ATOM      8  C   UNL     1      -0.070  11.353  20.878  0.00  0.00    +0.000 A 
ATOM      9  O   UNL     1       0.120  12.007  19.689  0.00  0.00    +0.000 OA
ATOM     10  C   UNL     1      -0.222  11.132  18.601  0.00  0.00    +0.000 C 
ENDROOT
BRANCH  10  11
ATOM     11  C   UNL     1      -1.749  11.068  18.432  0.00  0.00    +0.000 A 
ATOM     12  C   UNL     1      -2.343  10.015  17.716  0.00  0.00    +0.000 A 
ATOM     13  C   UNL     1      -3.735   9.958  17.558  0.00  0.00    +0.000 A 
ATOM     14  C   UNL     1      -4.541  10.961  18.097  0.00  0.00    +0.000 A 
ATOM     15  C   UNL     1      -3.967  12.040  18.754  0.00  0.00    +0.000 A 
ATOM     16  C   UNL     1      -2.587  12.076  18.939  0.00  0.00    +0.000 A 
BRANCH  14  17
ATOM     17  O   UNL     1      -5.931  10.840  17.891  0.00  0.00    +0.000 OA
BRANCH  17  18
ATOM     18  C   UNL     1      -6.783  10.434  18.923  0.00  0.00    +0.000 C 
ATOM     19  C   UNL     1      -7.411  11.639  19.552  0.00  0.00    +0.000 C 
ATOM     20  O   UNL     1      -7.055   9.287  19.251  0.00  0.00    +0.000 OA
ENDBRANCH  17  18
ENDBRANCH  14  17
ENDBRANCH  10  11
BRANCH   1  21
ATOM     21  C   UNL     1       1.701   9.617  17.767  0.00  0.00    +0.000 C 
BRANCH  21  22
ATOM     22  N   UNL     1       2.812   8.770  18.219  0.00  0.00    +0.000 NA
ATOM     23  H   UNL     1       3.665   8.965  17.692  0.00  0.00    +0.000 HD
BRANCH  22  24
ATOM     24  C   UNL     1       2.490   7.331  18.145  0.00  0.00    +0.000 C 
BRANCH  24  25
ATOM     25  C   UNL     1       2.646   6.593  19.486  0.00  0.00    +0.000 C 
BRANCH  25  26
ATOM     26  O   UNL     1       3.766   5.717  19.496  0.00  0.00    +0.000 OA
BRANCH  26  32
ATOM     27  C   UNL     1       2.926   3.400  19.872  0.00  0.00    +0.000 A 
ATOM     28  C   UNL     1       2.705   2.117  19.332  0.00  0.00    +0.000 A 
ATOM     29  C   UNL     1       3.197   1.791  18.080  0.00  0.00    +0.000 A 
ATOM     30  C   UNL     1       3.876   2.748  17.343  0.00  0.00    +0.000 A 
ATOM     31  C   UNL     1       4.058   4.058  17.826  0.00  0.00    +0.000 A 
ATOM     32  C   UNL     1       3.568   4.407  19.104  0.00  0.00    +0.000 A 
BRANCH  27  34
ATOM     33  C   UNL     1       1.535   2.712  21.676  0.00  0.00    +0.000 C 
ATOM     34  O   UNL     1       2.440   3.673  21.130  0.00  0.00    +0.000 OA
ENDBRANCH  27  34
BRANCH  31  35
ATOM     35  O   UNL     1       4.731   4.826  16.910  0.00  0.00    +0.000 OA
ATOM     36  C   UNL     1       5.663   4.219  16.032  0.00  0.00    +0.000 C 
ENDBRANCH  31  35
ENDBRANCH  26  32
ENDBRANCH  25  26
ENDBRANCH  24  25
ENDBRANCH  22  24
ENDBRANCH  21  22
ENDBRANCH   1  21
TORSDOF 11
ENDMDL
MODEL 3
REMARK VINA RESULT:      -8.0      0.714      1.157
REMARK  Name = 
REMARK  14 active torsions:
REMARK  status: ('A' for Active; 'I' for Inactive)
REMARK    1  A    between atoms: C_1  and  O_2
REMARK    2  A    between atoms: O_2  and  C_3
REMARK    3  A    between atoms: C_7  and  O_8
REMARK    4  A    between atoms: O_8  and  C_9
REMARK    5  A    between atoms: C_10  and  O_11
REMARK    6  A    between atoms: O_11  and  C_12
REMARK    7  A    between atoms: C_12  and  C_13
REMARK    8  A    between atoms: C_13  and  N_14
REMARK    9  A    between atoms: N_14  and  C_15
REMARK   10  A    between atoms: C_15  and  C_16
REMARK   11  A    between atoms: C_25  and  C_26
REMARK   12  A    between atoms: C_29  and  O_30
REMARK   13  A    between atoms: O_30  and  C_31
REMARK   14  A    between atoms: C_31  and  C_32
REMARK                            x       y       z     vdW  Elec       q    Type
REMARK                         _______ _______ _______ _____ _____    ______ ____
ROOT
ATOM      1  C   UNL     1       0.608   9.578  18.649  0.00  0.00    +0.000 C 
ATOM      2  O   UNL     1       0.885   9.031  19.947  0.00  0.00    +0.000 OA
ATOM      3  C   UNL     1       0.315   9.730  20.970  0.00  0.00    +0.000 A 
ATOM      4  C   UNL     1      -0.070   9.014  22.100  0.00  0.00    +0.000 A 
ATOM      5  C   UNL     1      -0.723   9.668  23.146  0.00  0.00    +0.000 A 
ATOM      6  C   UNL     1      -0.940  11.047  23.083  0.00  0.00    +0.000 A 
ATOM      7  C   UNL     1      -0.533  11.768  21.961  0.00  0.00    +0.000 A 
ATOM      8  C   UNL     1       0.060  11.097  20.893  0.00  0.00    +0.000 A 
ATOM      9  O   UNL     1       0.291  11.802  19.742  0.00  0.00    +0.000 OA
ATOM     10  C   UNL     1      -0.049  10.989  18.606  0.00  0.00    +0.000 C 
ENDROOT
BRANCH  10  11
ATOM     11  C   UNL     1      -1.573  10.970  18.402  0.00  0.00    +0.000 A 
ATOM     12  C   UNL     1      -2.379  11.977  18.959  0.00  0.00    +0.000 A 
ATOM     13  C   UNL     1      -3.769  11.958  18.778  0.00  0.00    +0.000 A 
ATOM     14  C   UNL     1      -4.365  10.925  18.054  0.00  0.00    +0.000 A 
ATOM     15  C   UNL     1      -3.591   9.890  17.549  0.00  0.00    +0.000 A 
ATOM     16  C   UNL     1      -2.207   9.930  17.702  0.00  0.00    +0.000 A 
BRANCH  14  17
ATOM     17  O   UNL     1      -5.768  10.969  17.920  0.00  0.00    +0.000 OA
BRANCH  17  18
ATOM     18  C   UNL     1      -6.606  10.451  18.911  0.00  0.00    +0.000 C 
ATOM     19  C   UNL     1      -7.312  11.575  19.604  0.00  0.00    +0.000 C 
ATOM     20  O   UNL     1      -6.813   9.271  19.164  0.00  0.00    +0.000 OA
ENDBRANCH  17  18
ENDBRANCH  14  17
ENDBRANCH  10  11
BRANCH   1  21
ATOM     21  C   UNL     1       1.856   9.469  17.739  0.00  0.00    +0.000 C 
BRANCH  21  22
ATOM     22  N   UNL     1       2.921   8.547  18.153  0.00  0.00    +0.000 NA
ATOM     23  H   UNL     1       3.815   8.800  17.731  0.00  0.00    +0.000 HD
BRANCH  22  24
ATOM     24  C   UNL     1       2.597   7.139  17.846  0.00  0.00    +0.000 C 
BRANCH  24  25
ATOM     25  C   UNL     1       2.919   6.166  18.993  0.00  0.00    +0.000 C 
BRANCH  25  26
ATOM     26  O   UNL     1       4.295   5.808  19.030  0.00  0.00    +0.000 OA
BRANCH  26  32
ATOM     27  C   UNL     1       5.751   6.109  17.029  0.00  0.00    +0.000 A 
ATOM     28  C   UNL     1       6.358   5.514  15.905  0.00  0.00    +0.000 A 
ATOM     29  C   UNL     1       6.038   4.217  15.541  0.00  0.00    +0.000 A 
ATOM     30  C   UNL     1       5.145   3.492  16.314  0.00  0.00    +0.000 A 
ATOM     31  C   UNL     1       4.570   4.034  17.480  0.00  0.00    +0.000 A 
ATOM     32  C   UNL     1       4.880   5.358  17.862  0.00  0.00    +0.000 A 
BRANCH  27  34
ATOM     33  C   UNL     1       7.474   7.690  17.470  0.00  0.00    +0.000 C 
ATOM     34  O   UNL     1       6.080   7.408  17.339  0.00  0.00    +0.000 OA
ENDBRANCH  27  34
BRANCH  31  35
ATOM     35  O   UNL     1       3.746   3.120  18.086  0.00  0.00    +0.000 OA
ATOM     36  C   UNL     1       2.482   2.827  17.518  0.00  0.00    +0.000 C 
ENDBRANCH  31  35
ENDBRANCH  26  32
ENDBRANCH  25  26
ENDBRANCH  24  25
ENDBRANCH  22  24
ENDBRANCH  21  22
ENDBRANCH   1  21
TORSDOF 11
ENDMDL
MODEL 4
REMARK VINA RESULT:      -7.9      0.686      2.349
REMARK  Name = 
REMARK  14 active torsions:
REMARK  status: ('A' for Active; 'I' for Inactive)
REMARK    1  A    between atoms: C_1  and  O_2
REMARK    2  A    between atoms: O_2  and  C_3
REMARK    3  A    between atoms: C_7  and  O_8
REMARK    4  A    between atoms: O_8  and  C_9
REMARK    5  A    between atoms: C_10  and  O_11
REMARK    6  A    between atoms: O_11  and  C_12
REMARK    7  A    between atoms: C_12  and  C_13
REMARK    8  A    between atoms: C_13  and  N_14
REMARK    9  A    between atoms: N_14  and  C_15
REMARK   10  A    between atoms: C_15  and  C_16
REMARK   11  A    between atoms: C_25  and  C_26
REMARK   12  A    between atoms: C_29  and  O_30
REMARK   13  A    between atoms: O_30  and  C_31
REMARK   14  A    between atoms: C_31  and  C_32
REMARK                            x       y       z     vdW  Elec       q    Type
REMARK                         _______ _______ _______ _____ _____    ______ ____
ROOT
ATOM      1  C   UNL     1       0.718   9.708  18.728  0.00  0.00    +0.000 C 
ATOM      2  O   UNL     1       0.973   9.149  20.025  0.00  0.00    +0.000 OA
ATOM      3  C   UNL     1       0.343   9.806  21.040  0.00  0.00    +0.000 A 
ATOM      4  C   UNL     1      -0.052   9.056  22.144  0.00  0.00    +0.000 A 
ATOM      5  C   UNL     1      -0.765   9.666  23.178  0.00  0.00    +0.000 A 
ATOM      6  C   UNL     1      -1.033  11.036  23.131  0.00  0.00    +0.000 A 
ATOM      7  C   UNL     1      -0.616  11.793  22.035  0.00  0.00    +0.000 A 
ATOM      8  C   UNL     1       0.037  11.164  20.978  0.00  0.00    +0.000 A 
ATOM      9  O   UNL     1       0.279  11.899  19.847  0.00  0.00    +0.000 OA
ATOM     10  C   UNL     1       0.009  11.094  18.686  0.00  0.00    +0.000 C 
ENDROOT
BRANCH  10  11
ATOM     11  C   UNL     1      -1.505  11.021  18.431  0.00  0.00    +0.000 A 
ATOM     12  C   UNL     1      -2.368  11.987  18.976  0.00  0.00    +0.000 A 
ATOM     13  C   UNL     1      -3.749  11.918  18.747  0.00  0.00    +0.000 A 
ATOM     14  C   UNL     1      -4.280  10.875  17.987  0.00  0.00    +0.000 A 
ATOM     15  C   UNL     1      -3.450   9.879  17.492  0.00  0.00    +0.000 A 
ATOM     16  C   UNL     1      -2.075   9.969  17.693  0.00  0.00    +0.000 A 
BRANCH  14  17
ATOM     17  O   UNL     1      -5.679  10.868  17.806  0.00  0.00    +0.000 OA
BRANCH  17  18
ATOM     18  C   UNL     1      -6.407  12.060  17.747  0.00  0.00    +0.000 C 
ATOM     19  C   UNL     1      -7.306  12.154  18.941  0.00  0.00    +0.000 C 
ATOM     20  O   UNL     1      -6.310  12.947  16.909  0.00  0.00    +0.000 OA
ENDBRANCH  17  18
ENDBRANCH  14  17
ENDBRANCH  10  11
BRANCH   1  21
ATOM     21  C   UNL     1       1.999   9.664  17.859  0.00  0.00    +0.000 C 
BRANCH  21  22
ATOM     22  N   UNL     1       2.342   8.388  17.218  0.00  0.00    +0.000 NA
ATOM     23  H   UNL     1       1.538   7.761  17.186  0.00  0.00    +0.000 HD
BRANCH  22  24
ATOM     24  C   UNL     1       3.482   7.717  17.875  0.00  0.00    +0.000 C 
BRANCH  24  25
ATOM     25  C   UNL     1       3.075   6.513  18.741  0.00  0.00    +0.000 C 
BRANCH  25  26
ATOM     26  O   UNL     1       4.169   5.647  19.015  0.00  0.00    +0.000 OA
BRANCH  26  32
ATOM     27  C   UNL     1       4.237   4.100  17.061  0.00  0.00    +0.000 A 
ATOM     28  C   UNL     1       4.963   3.626  15.950  0.00  0.00    +0.000 A 
ATOM     29  C   UNL     1       6.279   4.007  15.759  0.00  0.00    +0.000 A 
ATOM     30  C   UNL     1       6.869   4.893  16.647  0.00  0.00    +0.000 A 
ATOM     31  C   UNL     1       6.152   5.435  17.731  0.00  0.00    +0.000 A 
ATOM     32  C   UNL     1       4.810   5.052  17.945  0.00  0.00    +0.000 A 
BRANCH  27  34
ATOM     33  C   UNL     1       2.770   2.325  17.660  0.00  0.00    +0.000 C 
ATOM     34  O   UNL     1       2.939   3.675  17.225  0.00  0.00    +0.000 OA
ENDBRANCH  27  34
BRANCH  31  35
ATOM     35  O   UNL     1       6.937   6.304  18.447  0.00  0.00    +0.000 OA
ATOM     36  C   UNL     1       7.948   5.798  19.301  0.00  0.00    +0.000 C 
ENDBRANCH  31  35
ENDBRANCH  26  32
ENDBRANCH  25  26
ENDBRANCH  24  25
ENDBRANCH  22  24
ENDBRANCH  21  22
ENDBRANCH   1  21
TORSDOF 11
ENDMDL
MODEL 5
REMARK VINA RESULT:      -7.9      1.277      2.667
REMARK  Name = 
REMARK  14 active torsions:
REMARK  status: ('A' for Active; 'I' for Inactive)
REMARK    1  A    between atoms: C_1  and  O_2
REMARK    2  A    between atoms: O_2  and  C_3
REMARK    3  A    between atoms: C_7  and  O_8
REMARK    4  A    between atoms: O_8  and  C_9
REMARK    5  A    between atoms: C_10  and  O_11
REMARK    6  A    between atoms: O_11  and  C_12
REMARK    7  A    between atoms: C_12  and  C_13
REMARK    8  A    between atoms: C_13  and  N_14
REMARK    9  A    between atoms: N_14  and  C_15
REMARK   10  A    between atoms: C_15  and  C_16
REMARK   11  A    between atoms: C_25  and  C_26
REMARK   12  A    between atoms: C_29  and  O_30
REMARK   13  A    between atoms: O_30  and  C_31
REMARK   14  A    between atoms: C_31  and  C_32
REMARK                            x       y       z     vdW  Elec       q    Type
REMARK                         _______ _______ _______ _____ _____    ______ ____
ROOT
ATOM      1  C   UNL     1       0.709   9.870  18.872  0.00  0.00    +0.000 C 
ATOM      2  O   UNL     1       0.936   9.399  20.209  0.00  0.00    +0.000 OA
ATOM      3  C   UNL     1       0.265  10.107  21.162  0.00  0.00    +0.000 A 
ATOM      4  C   UNL     1      -0.147   9.421  22.301  0.00  0.00    +0.000 A 
ATOM      5  C   UNL     1      -0.901  10.080  23.273  0.00  0.00    +0.000 A 
ATOM      6  C   UNL     1      -1.192  11.439  23.131  0.00  0.00    +0.000 A 
ATOM      7  C   UNL     1      -0.758  12.133  22.002  0.00  0.00    +0.000 A 
ATOM      8  C   UNL     1      -0.063  11.452  21.005  0.00  0.00    +0.000 A 
ATOM      9  O   UNL     1       0.198  12.118  19.836  0.00  0.00    +0.000 OA
ATOM     10  C   UNL     1      -0.023  11.236  18.722  0.00  0.00    +0.000 C 
ENDROOT
BRANCH  10  11
ATOM     11  C   UNL     1      -1.528  11.117  18.430  0.00  0.00    +0.000 A 
ATOM     12  C   UNL     1      -2.422  12.105  18.876  0.00  0.00    +0.000 A 
ATOM     13  C   UNL     1      -3.795  11.995  18.614  0.00  0.00    +0.000 A 
ATOM     14  C   UNL     1      -4.286  10.889  17.920  0.00  0.00    +0.000 A 
ATOM     15  C   UNL     1      -3.427   9.873  17.526  0.00  0.00    +0.000 A 
ATOM     16  C   UNL     1      -2.060  10.003  17.758  0.00  0.00    +0.000 A 
BRANCH  14  17
ATOM     17  O   UNL     1      -5.679  10.843  17.700  0.00  0.00    +0.000 OA
BRANCH  17  18
ATOM     18  C   UNL     1      -6.568  10.579  18.746  0.00  0.00    +0.000 C 
ATOM     19  C   UNL     1      -7.343  11.819  19.066  0.00  0.00    +0.000 C 
ATOM     20  O   UNL     1      -6.764   9.504  19.298  0.00  0.00    +0.000 OA
ENDBRANCH  17  18
ENDBRANCH  14  17
ENDBRANCH  10  11
BRANCH   1  21
ATOM     21  C   UNL     1       2.015   9.796  18.044  0.00  0.00    +0.000 C 
BRANCH  21  22
ATOM     22  N   UNL     1       2.250   8.583  17.251  0.00  0.00    +0.000 NA
ATOM     23  H   UNL     1       1.494   8.424  16.583  0.00  0.00    +0.000 HD
BRANCH  22  24
ATOM     24  C   UNL     1       2.438   7.386  18.095  0.00  0.00    +0.000 C 
BRANCH  24  25
ATOM     25  C   UNL     1       3.874   6.833  18.072  0.00  0.00    +0.000 C 
BRANCH  25  26
ATOM     26  O   UNL     1       4.047   5.737  18.962  0.00  0.00    +0.000 OA
BRANCH  26  32
ATOM     27  C   UNL     1       2.344   3.925  19.133  0.00  0.00    +0.000 A 
ATOM     28  C   UNL     1       1.853   2.708  18.618  0.00  0.00    +0.000 A 
ATOM     29  C   UNL     1       2.562   2.021  17.648  0.00  0.00    +0.000 A 
ATOM     30  C   UNL     1       3.741   2.559  17.156  0.00  0.00    +0.000 A 
ATOM     31  C   UNL     1       4.226   3.803  17.602  0.00  0.00    +0.000 A 
ATOM     32  C   UNL     1       3.519   4.515  18.596  0.00  0.00    +0.000 A 
BRANCH  27  34
ATOM     33  C   UNL     1       2.108   4.420  21.448  0.00  0.00    +0.000 C 
ATOM     34  O   UNL     1       1.619   4.561  20.114  0.00  0.00    +0.000 OA
ENDBRANCH  27  34
BRANCH  31  35
ATOM     35  O   UNL     1       5.387   4.134  16.950  0.00  0.00    +0.000 OA
ATOM     36  C   UNL     1       5.396   4.239  15.537  0.00  0.00    +0.000 C 
ENDBRANCH  31  35
ENDBRANCH  26  32
ENDBRANCH  25  26
ENDBRANCH  24  25
ENDBRANCH  22  24
ENDBRANCH  21  22
ENDBRANCH   1  21
TORSDOF 11
ENDMDL
MODEL 6
REMARK VINA RESULT:      -7.8      1.144      2.169
REMARK  Name = 
REMARK  14 active torsions:
REMARK  status: ('A' for Active; 'I' for Inactive)
REMARK    1  A    between atoms: C_1  and  O_2
REMARK    2  A    between atoms: O_2  and  C_3
REMARK    3  A    between atoms: C_7  and  O_8
REMARK    4  A    between atoms: O_8  and  C_9
REMARK    5  A    between atoms: C_10  and  O_11
REMARK    6  A    between atoms: O_11  and  C_12
REMARK    7  A    between atoms: C_12  and  C_13
REMARK    8  A    between atoms: C_13  and  N_14
REMARK    9  A    between atoms: N_14  and  C_15
REMARK   10  A    between atoms: C_15  and  C_16
REMARK   11  A    between atoms: C_25  and  C_26
REMARK   12  A    between atoms: C_29  and  O_30
REMARK   13  A    between atoms: O_30  and  C_31
REMARK   14  A    between atoms: C_31  and  C_32
REMARK                            x       y       z     vdW  Elec       q    Type
REMARK                         _______ _______ _______ _____ _____    ______ ____
ROOT
ATOM      1  C   UNL     1       0.545   9.855  18.750  0.00  0.00    +0.000 C 
ATOM      2  O   UNL     1       0.852   9.288  20.034  0.00  0.00    +0.000 OA
ATOM      3  C   UNL     1       0.245   9.927  21.074  0.00  0.00    +0.000 A 
ATOM      4  C   UNL     1      -0.100   9.162  22.185  0.00  0.00    +0.000 A 
ATOM      5  C   UNL     1      -0.788   9.751  23.247  0.00  0.00    +0.000 A 
ATOM      6  C   UNL     1      -1.079  11.117  23.221  0.00  0.00    +0.000 A 
ATOM      7  C   UNL     1      -0.711  11.889  22.119  0.00  0.00    +0.000 A 
ATOM      8  C   UNL     1      -0.084  11.280  21.035  0.00  0.00    +0.000 A 
ATOM      9  O   UNL     1       0.108  12.028  19.903  0.00  0.00    +0.000 OA
ATOM     10  C   UNL     1      -0.187  11.229  18.745  0.00  0.00    +0.000 C 
ENDROOT
BRANCH  10  11
ATOM     11  C   UNL     1      -1.708  11.134  18.539  0.00  0.00    +0.000 A 
ATOM     12  C   UNL     1      -2.265  10.055  17.832  0.00  0.00    +0.000 A 
ATOM     13  C   UNL     1      -3.651   9.970  17.640  0.00  0.00    +0.000 A 
ATOM     14  C   UNL     1      -4.488  10.970  18.138  0.00  0.00    +0.000 A 
ATOM     15  C   UNL     1      -3.950  12.073  18.785  0.00  0.00    +0.000 A 
ATOM     16  C   UNL     1      -2.576  12.137  19.003  0.00  0.00    +0.000 A 
BRANCH  14  17
ATOM     17  O   UNL     1      -5.870  10.819  17.900  0.00  0.00    +0.000 OA
BRANCH  17  18
ATOM     18  C   UNL     1      -6.736  10.389  18.910  0.00  0.00    +0.000 C 
ATOM     19  C   UNL     1      -7.407  11.576  19.529  0.00  0.00    +0.000 C 
ATOM     20  O   UNL     1      -6.987   9.235  19.228  0.00  0.00    +0.000 OA
ENDBRANCH  17  18
ENDBRANCH  14  17
ENDBRANCH  10  11
BRANCH   1  21
ATOM     21  C   UNL     1       1.797   9.838  17.840  0.00  0.00    +0.000 C 
BRANCH  21  22
ATOM     22  N   UNL     1       2.202   8.549  17.264  0.00  0.00    +0.000 NA
ATOM     23  H   UNL     1       1.392   7.962  17.061  0.00  0.00    +0.000 HD
BRANCH  22  24
ATOM     24  C   UNL     1       3.151   7.820  18.129  0.00  0.00    +0.000 C 
BRANCH  24  25
ATOM     25  C   UNL     1       4.048   6.831  17.365  0.00  0.00    +0.000 C 
BRANCH  25  26
ATOM     26  O   UNL     1       4.629   5.855  18.221  0.00  0.00    +0.000 OA
BRANCH  26  32
ATOM     27  C   UNL     1       4.250   3.685  17.053  0.00  0.00    +0.000 A 
ATOM     28  C   UNL     1       3.784   2.358  17.141  0.00  0.00    +0.000 A 
ATOM     29  C   UNL     1       3.123   1.922  18.276  0.00  0.00    +0.000 A 
ATOM     30  C   UNL     1       2.957   2.788  19.345  0.00  0.00    +0.000 A 
ATOM     31  C   UNL     1       3.467   4.101  19.315  0.00  0.00    +0.000 A 
ATOM     32  C   UNL     1       4.138   4.565  18.162  0.00  0.00    +0.000 A 
BRANCH  27  34
ATOM     33  C   UNL     1       6.304   3.978  15.888  0.00  0.00    +0.000 C 
ATOM     34  O   UNL     1       4.879   4.083  15.896  0.00  0.00    +0.000 OA
ENDBRANCH  27  34
BRANCH  31  35
ATOM     35  O   UNL     1       3.203   4.752  20.493  0.00  0.00    +0.000 OA
ATOM     36  C   UNL     1       2.053   4.408  21.246  0.00  0.00    +0.000 C 
ENDBRANCH  31  35
ENDBRANCH  26  32
ENDBRANCH  25  26
ENDBRANCH  24  25
ENDBRANCH  22  24
ENDBRANCH  21  22
ENDBRANCH   1  21
TORSDOF 11
ENDMDL
MODEL 7
REMARK VINA RESULT:      -7.8      2.285     10.288
REMARK  Name = 
REMARK  14 active torsions:
REMARK  status: ('A' for Active; 'I' for Inactive)
REMARK    1  A    between atoms: C_1  and  O_2
REMARK    2  A    between atoms: O_2  and  C_3
REMARK    3  A    between atoms: C_7  and  O_8
REMARK    4  A    between atoms: O_8  and  C_9
REMARK    5  A    between atoms: C_10  and  O_11
REMARK    6  A    between atoms: O_11  and  C_12
REMARK    7  A    between atoms: C_12  and  C_13
REMARK    8  A    between atoms: C_13  and  N_14
REMARK    9  A    between atoms: N_14  and  C_15
REMARK   10  A    between atoms: C_15  and  C_16
REMARK   11  A    between atoms: C_25  and  C_26
REMARK   12  A    between atoms: C_29  and  O_30
REMARK   13  A    between atoms: O_30  and  C_31
REMARK   14  A    between atoms: C_31  and  C_32
REMARK                            x       y       z     vdW  Elec       q    Type
REMARK                         _______ _______ _______ _____ _____    ______ ____
ROOT
ATOM      1  C   UNL     1       2.413   6.789  19.728  0.00  0.00    +0.000 C 
ATOM      2  O   UNL     1       2.094   5.861  20.776  0.00  0.00    +0.000 OA
ATOM      3  C   UNL     1       1.910   4.582  20.339  0.00  0.00    +0.000 A 
ATOM      4  C   UNL     1       2.263   3.550  21.204  0.00  0.00    +0.000 A 
ATOM      5  C   UNL     1       2.164   2.224  20.779  0.00  0.00    +0.000 A 
ATOM      6  C   UNL     1       1.657   1.931  19.511  0.00  0.00    +0.000 A 
ATOM      7  C   UNL     1       1.280   2.965  18.653  0.00  0.00    +0.000 A 
ATOM      8  C   UNL     1       1.445   4.287  19.059  0.00  0.00    +0.000 A 
ATOM      9  O   UNL     1       1.228   5.273  18.134  0.00  0.00    +0.000 OA
ATOM     10  C   UNL     1       2.241   6.285  18.265  0.00  0.00    +0.000 C 
ENDROOT
BRANCH  10  11
ATOM     11  C   UNL     1       3.547   5.817  17.601  0.00  0.00    +0.000 A 
ATOM     12  C   UNL     1       4.563   6.739  17.298  0.00  0.00    +0.000 A 
ATOM     13  C   UNL     1       5.752   6.314  16.689  0.00  0.00    +0.000 A 
ATOM     14  C   UNL     1       5.928   4.969  16.363  0.00  0.00    +0.000 A 
ATOM     15  C   UNL     1       4.911   4.055  16.600  0.00  0.00    +0.000 A 
ATOM     16  C   UNL     1       3.745   4.474  17.235  0.00  0.00    +0.000 A 
BRANCH  14  17
ATOM     17  O   UNL     1       7.146   4.618  15.747  0.00  0.00    +0.000 OA
BRANCH  17  18
ATOM     18  C   UNL     1       7.362   4.852  14.385  0.00  0.00    +0.000 C 
ATOM     19  C   UNL     1       6.436   3.995  13.579  0.00  0.00    +0.000 C 
ATOM     20  O   UNL     1       8.128   5.666  13.886  0.00  0.00    +0.000 OA
ENDBRANCH  17  18
ENDBRANCH  14  17
ENDBRANCH  10  11
BRANCH   1  21
ATOM     21  C   UNL     1       1.714   8.148  19.979  0.00  0.00    +0.000 C 
BRANCH  21  22
ATOM     22  N   UNL     1       1.548   9.050  18.833  0.00  0.00    +0.000 NA
ATOM     23  H   UNL     1       2.449   9.292  18.418  0.00  0.00    +0.000 HD
BRANCH  22  24
ATOM     24  C   UNL     1       0.808  10.279  19.186  0.00  0.00    +0.000 C 
BRANCH  24  25
ATOM     25  C   UNL     1      -0.718  10.141  19.052  0.00  0.00    +0.000 C 
BRANCH  25  26
ATOM     26  O   UNL     1      -1.286  11.167  18.248  0.00  0.00    +0.000 OA
BRANCH  26  32
ATOM     27  C   UNL     1      -3.610  10.791  17.428  0.00  0.00    +0.000 A 
ATOM     28  C   UNL     1      -4.989  10.989  17.643  0.00  0.00    +0.000 A 
ATOM     29  C   UNL     1      -5.427  11.820  18.660  0.00  0.00    +0.000 A 
ATOM     30  C   UNL     1      -4.500  12.426  19.493  0.00  0.00    +0.000 A 
ATOM     31  C   UNL     1      -3.118  12.198  19.346  0.00  0.00    +0.000 A 
ATOM     32  C   UNL     1      -2.652  11.359  18.310  0.00  0.00    +0.000 A 
BRANCH  27  34
ATOM     33  C   UNL     1      -3.260  10.558  15.086  0.00  0.00    +0.000 C 
ATOM     34  O   UNL     1      -3.220   9.977  16.390  0.00  0.00    +0.000 OA
ENDBRANCH  27  34
BRANCH  31  35
ATOM     35  O   UNL     1      -2.408  12.881  20.301  0.00  0.00    +0.000 OA
ATOM     36  C   UNL     1      -3.089  13.715  21.221  0.00  0.00    +0.000 C 
ENDBRANCH  31  35
ENDBRANCH  26  32
ENDBRANCH  25  26
ENDBRANCH  24  25
ENDBRANCH  22  24
ENDBRANCH  21  22
ENDBRANCH   1  21
TORSDOF 11
ENDMDL
MODEL 8
REMARK VINA RESULT:      -7.8      2.245      3.828
REMARK  Name = 
REMARK  14 active torsions:
REMARK  status: ('A' for Active; 'I' for Inactive)
REMARK    1  A    between atoms: C_1  and  O_2
REMARK    2  A    between atoms: O_2  and  C_3
REMARK    3  A    between atoms: C_7  and  O_8
REMARK    4  A    between atoms: O_8  and  C_9
REMARK    5  A    between atoms: C_10  and  O_11
REMARK    6  A    between atoms: O_11  and  C_12
REMARK    7  A    between atoms: C_12  and  C_13
REMARK    8  A    between atoms: C_13  and  N_14
REMARK    9  A    between atoms: N_14  and  C_15
REMARK   10  A    between atoms: C_15  and  C_16
REMARK   11  A    between atoms: C_25  and  C_26
REMARK   12  A    between atoms: C_29  and  O_30
REMARK   13  A    between atoms: O_30  and  C_31
REMARK   14  A    between atoms: C_31  and  C_32
REMARK                            x       y       z     vdW  Elec       q    Type
REMARK                         _______ _______ _______ _____ _____    ______ ____
ROOT
ATOM      1  C   UNL     1       0.153   9.864  21.847  0.00  0.00    +0.000 C 
ATOM      2  O   UNL     1      -0.706  10.157  22.959  0.00  0.00    +0.000 OA
ATOM      3  C   UNL     1      -1.229  11.416  22.932  0.00  0.00    +0.000 A 
ATOM      4  C   UNL     1      -2.495  11.598  23.481  0.00  0.00    +0.000 A 
ATOM      5  C   UNL     1      -3.107  12.851  23.414  0.00  0.00    +0.000 A 
ATOM      6  C   UNL     1      -2.428  13.933  22.847  0.00  0.00    +0.000 A 
ATOM      7  C   UNL     1      -1.149  13.756  22.318  0.00  0.00    +0.000 A 
ATOM      8  C   UNL     1      -0.572  12.488  22.330  0.00  0.00    +0.000 A 
ATOM      9  O   UNL     1       0.606  12.314  21.652  0.00  0.00    +0.000 OA
ATOM     10  C   UNL     1       0.570  11.063  20.945  0.00  0.00    +0.000 C 
ENDROOT
BRANCH  10  11
ATOM     11  C   UNL     1      -0.260  11.204  19.658  0.00  0.00    +0.000 A 
ATOM     12  C   UNL     1      -0.266  12.412  18.942  0.00  0.00    +0.000 A 
ATOM     13  C   UNL     1      -1.027  12.543  17.772  0.00  0.00    +0.000 A 
ATOM     14  C   UNL     1      -1.800  11.473  17.318  0.00  0.00    +0.000 A 
ATOM     15  C   UNL     1      -1.853  10.293  18.046  0.00  0.00    +0.000 A 
ATOM     16  C   UNL     1      -1.071  10.155  19.189  0.00  0.00    +0.000 A 
BRANCH  14  17
ATOM     17  O   UNL     1      -2.543  11.681  16.138  0.00  0.00    +0.000 OA
BRANCH  17  18
ATOM     18  C   UNL     1      -3.759  11.025  15.924  0.00  0.00    +0.000 C 
ATOM     19  C   UNL     1      -3.625  10.098  14.756  0.00  0.00    +0.000 C 
ATOM     20  O   UNL     1      -4.777  11.113  16.598  0.00  0.00    +0.000 OA
ENDBRANCH  17  18
ENDBRANCH  14  17
ENDBRANCH  10  11
BRANCH   1  21
ATOM     21  C   UNL     1       1.360   9.011  22.307  0.00  0.00    +0.000 C 
BRANCH  21  22
ATOM     22  N   UNL     1       1.694   7.821  21.514  0.00  0.00    +0.000 NA
ATOM     23  H   UNL     1       2.509   7.339  21.894  0.00  0.00    +0.000 HD
BRANCH  22  24
ATOM     24  C   UNL     1       1.915   8.138  20.088  0.00  0.00    +0.000 C 
BRANCH  24  25
ATOM     25  C   UNL     1       2.181   6.900  19.214  0.00  0.00    +0.000 C 
BRANCH  25  26
ATOM     26  O   UNL     1       2.797   5.845  19.942  0.00  0.00    +0.000 OA
BRANCH  26  32
ATOM     27  C   UNL     1       2.162   3.467  19.546  0.00  0.00    +0.000 A 
ATOM     28  C   UNL     1       2.356   2.301  18.779  0.00  0.00    +0.000 A 
ATOM     29  C   UNL     1       3.383   2.235  17.853  0.00  0.00    +0.000 A 
ATOM     30  C   UNL     1       4.196   3.339  17.656  0.00  0.00    +0.000 A 
ATOM     31  C   UNL     1       3.989   4.542  18.359  0.00  0.00    +0.000 A 
ATOM     32  C   UNL     1       2.950   4.625  19.313  0.00  0.00    +0.000 A 
BRANCH  27  34
ATOM     33  C   UNL     1       1.385   2.757  21.680  0.00  0.00    +0.000 C 
ATOM     34  O   UNL     1       1.144   3.480  20.473  0.00  0.00    +0.000 OA
ENDBRANCH  27  34
BRANCH  31  35
ATOM     35  O   UNL     1       4.898   5.494  17.973  0.00  0.00    +0.000 OA
ATOM     36  C   UNL     1       4.860   6.010  16.654  0.00  0.00    +0.000 C 
ENDBRANCH  31  35
ENDBRANCH  26  32
ENDBRANCH  25  26
ENDBRANCH  24  25
ENDBRANCH  22  24
ENDBRANCH  21  22
ENDBRANCH   1  21
TORSDOF 11
ENDMDL
MODEL 9
REMARK VINA RESULT:      -7.8      1.709      3.348
REMARK  Name = 
REMARK  14 active torsions:
REMARK  status: ('A' for Active; 'I' for Inactive)
REMARK    1  A    between atoms: C_1  and  O_2
REMARK    2  A    between atoms: O_2  and  C_3
REMARK    3  A    between atoms: C_7  and  O_8
REMARK    4  A    between atoms: O_8  and  C_9
REMARK    5  A    between atoms: C_10  and  O_11
REMARK    6  A    between atoms: O_11  and  C_12
REMARK    7  A    between atoms: C_12  and  C_13
REMARK    8  A    between atoms: C_13  and  N_14
REMARK    9  A    between atoms: N_14  and  C_15
REMARK   10  A    between atoms: C_15  and  C_16
REMARK   11  A    between atoms: C_25  and  C_26
REMARK   12  A    between atoms: C_29  and  O_30
REMARK   13  A    between atoms: O_30  and  C_31
REMARK   14  A    between atoms: C_31  and  C_32
REMARK                            x       y       z     vdW  Elec       q    Type
REMARK                         _______ _______ _______ _____ _____    ______ ____
ROOT
ATOM      1  C   UNL     1       0.112   9.975  20.845  0.00  0.00    +0.000 C 
ATOM      2  O   UNL     1       0.797  11.088  21.439  0.00  0.00    +0.000 OA
ATOM      3  C   UNL     1       1.173  12.043  20.542  0.00  0.00    +0.000 A 
ATOM      4  C   UNL     1       1.203  13.363  20.984  0.00  0.00    +0.000 A 
ATOM      5  C   UNL     1       1.511  14.388  20.088  0.00  0.00    +0.000 A 
ATOM      6  C   UNL     1       1.842  14.085  18.765  0.00  0.00    +0.000 A 
ATOM      7  C   UNL     1       1.836  12.760  18.328  0.00  0.00    +0.000 A 
ATOM      8  C   UNL     1       1.464  11.749  19.212  0.00  0.00    +0.000 A 
ATOM      9  O   UNL     1       1.303  10.486  18.708  0.00  0.00    +0.000 OA
ATOM     10  C   UNL     1       0.134   9.884  19.290  0.00  0.00    +0.000 C 
ENDROOT
BRANCH  10  11
ATOM     11  C   UNL     1      -1.135  10.421  18.609  0.00  0.00    +0.000 A 
ATOM     12  C   UNL     1      -1.911  11.415  19.229  0.00  0.00    +0.000 A 
ATOM     13  C   UNL     1      -3.071  11.902  18.610  0.00  0.00    +0.000 A 
ATOM     14  C   UNL     1      -3.473  11.388  17.377  0.00  0.00    +0.000 A 
ATOM     15  C   UNL     1      -2.753  10.364  16.779  0.00  0.00    +0.000 A 
ATOM     16  C   UNL     1      -1.583   9.906  17.380  0.00  0.00    +0.000 A 
BRANCH  14  17
ATOM     17  O   UNL     1      -4.654  11.922  16.820  0.00  0.00    +0.000 OA
BRANCH  17  18
ATOM     18  C   UNL     1      -5.762  12.218  17.619  0.00  0.00    +0.000 C 
ATOM     19  C   UNL     1      -6.334  10.947  18.168  0.00  0.00    +0.000 C 
ATOM     20  O   UNL     1      -6.192  13.327  17.908  0.00  0.00    +0.000 OA
ENDBRANCH  17  18
ENDBRANCH  14  17
ENDBRANCH  10  11
BRANCH   1  21
ATOM     21  C   UNL     1       0.536   8.652  21.528  0.00  0.00    +0.000 C 
BRANCH  21  22
ATOM     22  N   UNL     1       1.867   8.118  21.211  0.00  0.00    +0.000 NA
ATOM     23  H   UNL     1       2.419   8.791  20.679  0.00  0.00    +0.000 HD
BRANCH  22  24
ATOM     24  C   UNL     1       1.800   6.833  20.487  0.00  0.00    +0.000 C 
BRANCH  24  25
ATOM     25  C   UNL     1       2.567   6.834  19.154  0.00  0.00    +0.000 C 
BRANCH  25  26
ATOM     26  O   UNL     1       3.797   6.126  19.235  0.00  0.00    +0.000 OA
BRANCH  26  32
ATOM     27  C   UNL     1       3.752   4.086  17.803  0.00  0.00    +0.000 A 
ATOM     28  C   UNL     1       4.166   3.469  16.606  0.00  0.00    +0.000 A 
ATOM     29  C   UNL     1       5.092   4.088  15.784  0.00  0.00    +0.000 A 
ATOM     30  C   UNL     1       5.579   5.340  16.126  0.00  0.00    +0.000 A 
ATOM     31  C   UNL     1       5.137   6.011  17.282  0.00  0.00    +0.000 A 
ATOM     32  C   UNL     1       4.198   5.392  18.136  0.00  0.00    +0.000 A 
BRANCH  27  34
ATOM     33  C   UNL     1       3.220   2.106  19.012  0.00  0.00    +0.000 C 
ATOM     34  O   UNL     1       2.849   3.423  18.602  0.00  0.00    +0.000 OA
ENDBRANCH  27  34
BRANCH  31  35
ATOM     35  O   UNL     1       5.739   7.239  17.391  0.00  0.00    +0.000 OA
ATOM     36  C   UNL     1       7.152   7.329  17.432  0.00  0.00    +0.000 C 
ENDBRANCH  31  35
ENDBRANCH  26  32
ENDBRANCH  25  26
ENDBRANCH  24  25
ENDBRANCH  22  24
ENDBRANCH  21  22
ENDBRANCH   1  21
TORSDOF 11
ENDMDL
