MODEL 1
REMARK VINA RESULT:      -8.1      0.000      0.000
REMARK  Name = 
REMARK  10 active torsions:
REMARK  status: ('A' for Active; 'I' for Inactive)
REMARK    1  A    between atoms: C_1  and  C_2
REMARK    2  A    between atoms: C_2  and  C_3
REMARK    3  A    between atoms: C_3  and  C_4
REMARK    4  A    between atoms: C_4  and  C_5
REMARK    5  A    between atoms: C_4  and  C_8
REMARK    6  A    between atoms: C_5  and  C_6
REMARK    7  A    between atoms: C_6  and  C_7
REMARK    8  A    between atoms: N_10  and  C_11
REMARK    9  A    between atoms: C_13  and  C_14
REMARK   10  A    between atoms: C_21  and  C_22
REMARK                            x       y       z     vdW  Elec       q    Type
REMARK                         _______ _______ _______ _____ _____    ______ ____
ROOT
ATOM      1  C   UNL     1       2.442   6.972  19.340  0.00  0.00    +0.000 A 
ATOM      2  O   UNL     1       2.061   8.242  19.672  0.00  0.00    +0.000 OA
ATOM      3  C   UNL     1       1.177   8.093  20.697  0.00  0.00    +0.000 A 
ATOM      4  N   UNL     1       0.956   6.839  21.038  0.00  0.00    +0.000 NA
ATOM      5  C   UNL     1       1.756   6.112  20.178  0.00  0.00    +0.000 A 
ENDROOT
BRANCH   3   6
ATOM      6  C   UNL     1       0.609   9.311  21.266  0.00  0.00    +0.000 A 
ATOM      7  C   UNL     1      -0.201   9.289  22.412  0.00  0.00    +0.000 A 
ATOM      8  C   UNL     1      -0.731  10.472  22.931  0.00  0.00    +0.000 A 
ATOM      9  C   UNL     1      -0.460  11.692  22.310  0.00  0.00    +0.000 A 
ATOM     10  C   UNL     1       0.342  11.729  21.172  0.00  0.00    +0.000 A 
ATOM     11  C   UNL     1       0.869  10.546  20.652  0.00  0.00    +0.000 A 
ENDBRANCH   3   6
BRANCH   5  12
ATOM     12  C   UNL     1       1.754   4.661  20.189  0.00  0.00    +0.000 A 
ATOM     13  C   UNL     1       2.143   3.923  21.314  0.00  0.00    +0.000 A 
ATOM     14  C   UNL     1       2.212   2.529  21.256  0.00  0.00    +0.000 A 
ATOM     15  C   UNL     1       1.902   1.862  20.074  0.00  0.00    +0.000 A 
ATOM     16  C   UNL     1       1.506   2.583  18.950  0.00  0.00    +0.000 A 
ATOM     17  C   UNL     1       1.433   3.975  19.007  0.00  0.00    +0.000 A 
ENDBRANCH   5  12
BRANCH   1  20
ATOM     18  C   UNL     1       4.530   6.051  18.571  0.00  0.00    +0.000 C 
ATOM     19  O   UNL     1       4.810   5.537  19.657  0.00  0.00    +0.000 OA
ATOM     20  N   UNL     1       3.391   6.802  18.350  0.00  0.00    +0.000 N 
ATOM     21  H   UNL     1       3.249   7.294  17.476  0.00  0.00    +0.000 HD
BRANCH  18  22
ATOM     22  C   UNL     1       5.517   5.950  17.386  0.00  0.00    +0.000 C 
BRANCH  22  23
ATOM     23  C   UNL     1       6.925   5.635  17.969  0.00  0.00    +0.000 C 
BRANCH  23  25
ATOM     24  C   UNL     1       7.741   8.023  17.523  0.00  0.00    +0.000 C 
ATOM     25  C   UNL     1       7.831   6.788  18.403  0.00  0.00    +0.000 C 
ENDBRANCH  23  25
ENDBRANCH  22  23
BRANCH  22  26
ATOM     26  C   UNL     1       5.028   4.956  16.312  0.00  0.00    +0.000 C 
BRANCH  26  27
ATOM     27  C   UNL     1       5.599   5.221  14.914  0.00  0.00    +0.000 C 
ATOM     28  C   UNL     1       6.195   3.967  14.292  0.00  0.00    +0.000 C 
ENDBRANCH  26  27
ENDBRANCH  22  26
ENDBRANCH  18  22
ENDBRANCH   1  20
TORSDOF 8
ENDMDL
MODEL 2
REMARK VINA RESULT:      -8.0      0.490      1.037
REMARK  Name = 
REMARK  10 active torsions:
REMARK  status: ('A' for Active; 'I' for Inactive)
REMARK    1  A    between atoms: C_1  and  C_2
REMARK    2  A    between atoms: C_2  and  C_3
REMARK    3  A    between atoms: C_3  and  C_4
REMARK    4  A    between atoms: C_4  and  C_5
REMARK    5  A    between atoms: C_4  and  C_8
REMARK    6  A    between atoms: C_5  and  C_6
REMARK    7  A    between atoms: C_6  and  C_7
REMARK    8  A    between atoms: N_10  and  C_11
REMARK    9  A    between atoms: C_13  and  C_14
REMARK   10  A    between atoms: C_21  and  C_22
REMARK                            x       y       z     vdW  Elec       q    Type
REMARK                         _______ _______ _______ _____ _____    ______ ____
ROOT
ATOM      1  C   UNL     1       2.524   7.058  19.017  0.00  0.00    +0.000 A 
ATOM      2  O   UNL     1       2.121   8.289  19.453  0.00  0.00    +0.000 OA
ATOM      3  C   UNL     1       1.248   8.040  20.468  0.00  0.00    +0.000 A 
ATOM      4  N   UNL     1       1.055   6.759  20.709  0.00  0.00    +0.000 NA
ATOM      5  C   UNL     1       1.862   6.120  19.788  0.00  0.00    +0.000 A 
ENDROOT
BRANCH   3   6
ATOM      6  C   UNL     1       0.661   9.197  21.138  0.00  0.00    +0.000 A 
ATOM      7  C   UNL     1       0.008   9.088  22.374  0.00  0.00    +0.000 A 
ATOM      8  C   UNL     1      -0.545  10.214  22.988  0.00  0.00    +0.000 A 
ATOM      9  C   UNL     1      -0.454  11.462  22.373  0.00  0.00    +0.000 A 
ATOM     10  C   UNL     1       0.191  11.586  21.144  0.00  0.00    +0.000 A 
ATOM     11  C   UNL     1       0.742  10.460  20.530  0.00  0.00    +0.000 A 
ENDBRANCH   3   6
BRANCH   5  12
ATOM     12  C   UNL     1       1.888   4.673  19.682  0.00  0.00    +0.000 A 
ATOM     13  C   UNL     1       1.801   4.013  18.449  0.00  0.00    +0.000 A 
ATOM     14  C   UNL     1       1.740   2.619  18.397  0.00  0.00    +0.000 A 
ATOM     15  C   UNL     1       1.756   1.873  19.572  0.00  0.00    +0.000 A 
ATOM     16  C   UNL     1       1.849   2.515  20.804  0.00  0.00    +0.000 A 
ATOM     17  C   UNL     1       1.914   3.908  20.859  0.00  0.00    +0.000 A 
ENDBRANCH   5  12
BRANCH   1  20
ATOM     18  C   UNL     1       4.650   6.292  18.184  0.00  0.00    +0.000 C 
ATOM     19  O   UNL     1       4.973   5.745  19.242  0.00  0.00    +0.000 OA
ATOM     20  N   UNL     1       3.468   6.987  18.011  0.00  0.00    +0.000 N 
ATOM     21  H   UNL     1       3.287   7.510  17.162  0.00  0.00    +0.000 HD
BRANCH  18  22
ATOM     22  C   UNL     1       5.625   6.301  16.985  0.00  0.00    +0.000 C 
BRANCH  22  23
ATOM     23  C   UNL     1       7.037   5.927  17.522  0.00  0.00    +0.000 C 
BRANCH  23  25
ATOM     24  C   UNL     1       7.873   8.347  17.626  0.00  0.00    +0.000 C 
ATOM     25  C   UNL     1       7.854   6.975  18.278  0.00  0.00    +0.000 C 
ENDBRANCH  23  25
ENDBRANCH  22  23
BRANCH  22  26
ATOM     26  C   UNL     1       5.122   5.417  15.826  0.00  0.00    +0.000 C 
BRANCH  26  27
ATOM     27  C   UNL     1       6.062   4.259  15.473  0.00  0.00    +0.000 C 
ATOM     28  C   UNL     1       6.552   4.336  14.036  0.00  0.00    +0.000 C 
ENDBRANCH  26  27
ENDBRANCH  22  26
ENDBRANCH  18  22
ENDBRANCH   1  20
TORSDOF 8
ENDMDL
MODEL 3
REMARK VINA RESULT:      -8.0      0.416      2.504
REMARK  Name = 
REMARK  10 active torsions:
REMARK  status: ('A' for Active; 'I' for Inactive)
REMARK    1  A    between atoms: C_1  and  C_2
REMARK    2  A    between atoms: C_2  and  C_3
REMARK    3  A    between atoms: C_3  and  C_4
REMARK    4  A    between atoms: C_4  and  C_5
REMARK    5  A    between atoms: C_4  and  C_8
REMARK    6  A    between atoms: C_5  and  C_6
REMARK    7  A    between atoms: C_6  and  C_7
REMARK    8  A    between atoms: N_10  and  C_11
REMARK    9  A    between atoms: C_13  and  C_14
REMARK   10  A    between atoms: C_21  and  C_22
REMARK                            x       y       z     vdW  Elec       q    Type
REMARK                         _______ _______ _______ _____ _____    ______ ____
ROOT
ATOM      1  C   UNL     1       2.530   6.892  19.310  0.00  0.00    +0.000 A 
ATOM      2  O   UNL     1       2.152   8.162  19.649  0.00  0.00    +0.000 OA
ATOM      3  C   UNL     1       1.219   8.008  20.628  0.00  0.00    +0.000 A 
ATOM      4  N   UNL     1       0.964   6.752  20.935  0.00  0.00    +0.000 NA
ATOM      5  C   UNL     1       1.792   6.029  20.099  0.00  0.00    +0.000 A 
ENDROOT
BRANCH   3   6
ATOM      6  C   UNL     1       0.643   9.224  21.194  0.00  0.00    +0.000 A 
ATOM      7  C   UNL     1       0.796  10.475  20.577  0.00  0.00    +0.000 A 
ATOM      8  C   UNL     1       0.234  11.621  21.144  0.00  0.00    +0.000 A 
ATOM      9  C   UNL     1      -0.486  11.532  22.336  0.00  0.00    +0.000 A 
ATOM     10  C   UNL     1      -0.646  10.296  22.960  0.00  0.00    +0.000 A 
ATOM     11  C   UNL     1      -0.082   9.152  22.393  0.00  0.00    +0.000 A 
ENDBRANCH   3   6
BRANCH   5  12
ATOM     12  C   UNL     1       1.767   4.578  20.082  0.00  0.00    +0.000 A 
ATOM     13  C   UNL     1       1.421   3.851  18.937  0.00  0.00    +0.000 A 
ATOM     14  C   UNL     1       1.323   2.458  18.986  0.00  0.00    +0.000 A 
ATOM     15  C   UNL     1       1.560   1.782  20.179  0.00  0.00    +0.000 A 
ATOM     16  C   UNL     1       1.913   2.492  21.324  0.00  0.00    +0.000 A 
ATOM     17  C   UNL     1       2.015   3.882  21.276  0.00  0.00    +0.000 A 
ENDBRANCH   5  12
BRANCH   1  20
ATOM     18  C   UNL     1       4.656   5.985  18.636  0.00  0.00    +0.000 C 
ATOM     19  O   UNL     1       4.893   5.478  19.735  0.00  0.00    +0.000 OA
ATOM     20  N   UNL     1       3.521   6.726  18.363  0.00  0.00    +0.000 N 
ATOM     21  H   UNL     1       3.413   7.213  17.481  0.00  0.00    +0.000 HD
BRANCH  18  22
ATOM     22  C   UNL     1       5.693   5.887  17.495  0.00  0.00    +0.000 C 
BRANCH  22  23
ATOM     23  C   UNL     1       4.995   5.212  16.279  0.00  0.00    +0.000 C 
BRANCH  23  25
ATOM     24  C   UNL     1       6.057   3.942  14.323  0.00  0.00    +0.000 C 
ATOM     25  C   UNL     1       5.653   5.288  14.900  0.00  0.00    +0.000 C 
ENDBRANCH  23  25
ENDBRANCH  22  23
BRANCH  22  26
ATOM     26  C   UNL     1       6.344   7.251  17.189  0.00  0.00    +0.000 C 
BRANCH  26  27
ATOM     27  C   UNL     1       7.751   7.414  17.775  0.00  0.00    +0.000 C 
ATOM     28  C   UNL     1       8.153   8.875  17.904  0.00  0.00    +0.000 C 
ENDBRANCH  26  27
ENDBRANCH  22  26
ENDBRANCH  18  22
ENDBRANCH   1  20
TORSDOF 8
ENDMDL
MODEL 4
REMARK VINA RESULT:      -7.9      0.588      1.474
REMARK  Name = 
REMARK  10 active torsions:
REMARK  status: ('A' for Active; 'I' for Inactive)
REMARK    1  A    between atoms: C_1  and  C_2
REMARK    2  A    between atoms: C_2  and  C_3
REMARK    3  A    between atoms: C_3  and  C_4
REMARK    4  A    between atoms: C_4  and  C_5
REMARK    5  A    between atoms: C_4  and  C_8
REMARK    6  A    between atoms: C_5  and  C_6
REMARK    7  A    between atoms: C_6  and  C_7
REMARK    8  A    between atoms: N_10  and  C_11
REMARK    9  A    between atoms: C_13  and  C_14
REMARK   10  A    between atoms: C_21  and  C_22
REMARK                            x       y       z     vdW  Elec       q    Type
REMARK                         _______ _______ _______ _____ _____    ______ ____
ROOT
ATOM      1  C   UNL     1       2.444   6.975  19.225  0.00  0.00    +0.000 A 
ATOM      2  O   UNL     1       2.047   8.245  19.542  0.00  0.00    +0.000 OA
ATOM      3  C   UNL     1       1.230   8.103  20.623  0.00  0.00    +0.000 A 
ATOM      4  N   UNL     1       1.067   6.855  21.013  0.00  0.00    +0.000 NA
ATOM      5  C   UNL     1       1.834   6.124  20.128  0.00  0.00    +0.000 A 
ENDROOT
BRANCH   3   6
ATOM      6  C   UNL     1       0.663   9.323  21.190  0.00  0.00    +0.000 A 
ATOM      7  C   UNL     1       0.847  10.578  20.589  0.00  0.00    +0.000 A 
ATOM      8  C   UNL     1       0.293  11.727  21.157  0.00  0.00    +0.000 A 
ATOM      9  C   UNL     1      -0.450  11.637  22.334  0.00  0.00    +0.000 A 
ATOM     10  C   UNL     1      -0.642  10.397  22.943  0.00  0.00    +0.000 A 
ATOM     11  C   UNL     1      -0.085   9.250  22.375  0.00  0.00    +0.000 A 
ENDBRANCH   3   6
BRANCH   5  12
ATOM     12  C   UNL     1       1.873   4.674  20.182  0.00  0.00    +0.000 A 
ATOM     13  C   UNL     1       1.520   3.878  19.085  0.00  0.00    +0.000 A 
ATOM     14  C   UNL     1       1.486   2.486  19.205  0.00  0.00    +0.000 A 
ATOM     15  C   UNL     1       1.794   1.881  20.419  0.00  0.00    +0.000 A 
ATOM     16  C   UNL     1       2.155   2.660  21.516  0.00  0.00    +0.000 A 
ATOM     17  C   UNL     1       2.192   4.050  21.398  0.00  0.00    +0.000 A 
ENDBRANCH   5  12
BRANCH   1  20
ATOM     18  C   UNL     1       4.500   6.074  18.354  0.00  0.00    +0.000 C 
ATOM     19  O   UNL     1       4.852   5.588  19.431  0.00  0.00    +0.000 OA
ATOM     20  N   UNL     1       3.336   6.801  18.185  0.00  0.00    +0.000 N 
ATOM     21  H   UNL     1       3.134   7.271  17.311  0.00  0.00    +0.000 HD
BRANCH  18  22
ATOM     22  C   UNL     1       5.417   5.964  17.115  0.00  0.00    +0.000 C 
BRANCH  22  23
ATOM     23  C   UNL     1       6.286   7.254  17.055  0.00  0.00    +0.000 C 
BRANCH  23  25
ATOM     24  C   UNL     1       8.210   8.687  17.954  0.00  0.00    +0.000 C 
ATOM     25  C   UNL     1       7.617   7.296  17.806  0.00  0.00    +0.000 C 
ENDBRANCH  23  25
ENDBRANCH  22  23
BRANCH  22  26
ATOM     26  C   UNL     1       6.219   4.646  17.106  0.00  0.00    +0.000 C 
BRANCH  26  27
ATOM     27  C   UNL     1       6.107   3.859  15.796  0.00  0.00    +0.000 C 
ATOM     28  C   UNL     1       5.532   4.702  14.668  0.00  0.00    +0.000 C 
ENDBRANCH  26  27
ENDBRANCH  22  26
ENDBRANCH  18  22
ENDBRANCH   1  20
TORSDOF 8
ENDMDL
MODEL 5
REMARK VINA RESULT:      -7.9      0.484      1.071
REMARK  Name = 
REMARK  10 active torsions:
REMARK  status: ('A' for Active; 'I' for Inactive)
REMARK    1  A    between atoms: C_1  and  C_2
REMARK    2  A    between atoms: C_2  and  C_3
REMARK    3  A    between atoms: C_3  and  C_4
REMARK    4  A    between atoms: C_4  and  C_5
REMARK    5  A    between atoms: C_4  and  C_8
REMARK    6  A    between atoms: C_5  and  C_6
REMARK    7  A    between atoms: C_6  and  C_7
REMARK    8  A    between atoms: N_10  and  C_11
REMARK    9  A    between atoms: C_13  and  C_14
REMARK   10  A    between atoms: C_21  and  C_22
REMARK                            x       y       z     vdW  Elec       q    Type
REMARK                         _______ _______ _______ _____ _____    ______ ____
ROOT
ATOM      1  C   UNL     1       2.331   7.026  19.191  0.00  0.00    +0.000 A 
ATOM      2  O   UNL     1       1.961   8.314  19.459  0.00  0.00    +0.000 OA
ATOM      3  C   UNL     1       1.190   8.237  20.580  0.00  0.00    +0.000 A 
ATOM      4  N   UNL     1       1.031   7.013  21.040  0.00  0.00    +0.000 NA
ATOM      5  C   UNL     1       1.753   6.229  20.161  0.00  0.00    +0.000 A 
ENDROOT
BRANCH   3   6
ATOM      6  C   UNL     1       0.659   9.491  21.107  0.00  0.00    +0.000 A 
ATOM      7  C   UNL     1       0.911  10.724  20.487  0.00  0.00    +0.000 A 
ATOM      8  C   UNL     1       0.390  11.906  21.018  0.00  0.00    +0.000 A 
ATOM      9  C   UNL     1      -0.387  11.871  22.175  0.00  0.00    +0.000 A 
ATOM     10  C   UNL     1      -0.646  10.653  22.802  0.00  0.00    +0.000 A 
ATOM     11  C   UNL     1      -0.123   9.473  22.272  0.00  0.00    +0.000 A 
ENDBRANCH   3   6
BRANCH   5  12
ATOM     12  C   UNL     1       1.781   4.783  20.287  0.00  0.00    +0.000 A 
ATOM     13  C   UNL     1       2.309   4.143  21.415  0.00  0.00    +0.000 A 
ATOM     14  C   UNL     1       2.399   2.749  21.459  0.00  0.00    +0.000 A 
ATOM     15  C   UNL     1       1.972   1.986  20.377  0.00  0.00    +0.000 A 
ATOM     16  C   UNL     1       1.438   2.609  19.252  0.00  0.00    +0.000 A 
ATOM     17  C   UNL     1       1.344   4.000  19.207  0.00  0.00    +0.000 A 
ENDBRANCH   5  12
BRANCH   1  20
ATOM     18  C   UNL     1       4.373   6.118  18.294  0.00  0.00    +0.000 C 
ATOM     19  O   UNL     1       4.797   5.742  19.390  0.00  0.00    +0.000 OA
ATOM     20  N   UNL     1       3.177   6.788  18.124  0.00  0.00    +0.000 N 
ATOM     21  H   UNL     1       2.914   7.172  17.224  0.00  0.00    +0.000 HD
BRANCH  18  22
ATOM     22  C   UNL     1       5.231   5.928  17.022  0.00  0.00    +0.000 C 
BRANCH  22  23
ATOM     23  C   UNL     1       6.724   6.088  17.432  0.00  0.00    +0.000 C 
BRANCH  23  25
ATOM     24  C   UNL     1       8.291   7.832  18.464  0.00  0.00    +0.000 C 
ATOM     25  C   UNL     1       7.396   7.455  17.296  0.00  0.00    +0.000 C 
ENDBRANCH  23  25
ENDBRANCH  22  23
BRANCH  22  26
ATOM     26  C   UNL     1       4.901   4.609  16.296  0.00  0.00    +0.000 C 
BRANCH  26  27
ATOM     27  C   UNL     1       6.100   3.976  15.580  0.00  0.00    +0.000 C 
ATOM     28  C   UNL     1       5.977   4.067  14.067  0.00  0.00    +0.000 C 
ENDBRANCH  26  27
ENDBRANCH  22  26
ENDBRANCH  18  22
ENDBRANCH   1  20
TORSDOF 8
ENDMDL
MODEL 6
REMARK VINA RESULT:      -7.8      0.556      2.316
REMARK  Name = 
REMARK  10 active torsions:
REMARK  status: ('A' for Active; 'I' for Inactive)
REMARK    1  A    between atoms: C_1  and  C_2
REMARK    2  A    between atoms: C_2  and  C_3
REMARK    3  A    between atoms: C_3  and  C_4
REMARK    4  A    between atoms: C_4  and  C_5
REMARK    5  A    between atoms: C_4  and  C_8
REMARK    6  A    between atoms: C_5  and  C_6
REMARK    7  A    between atoms: C_6  and  C_7
REMARK    8  A    between atoms: N_10  and  C_11
REMARK    9  A    between atoms: C_13  and  C_14
REMARK   10  A    between atoms: C_21  and  C_22
REMARK                            x       y       z     vdW  Elec       q    Type
REMARK                         _______ _______ _______ _____ _____    ______ ____
ROOT
ATOM      1  C   UNL     1       2.720   6.783  19.159  0.00  0.00    +0.000 A 
ATOM      2  O   UNL     1       2.364   8.056  19.511  0.00  0.00    +0.000 OA
ATOM      3  C   UNL     1       1.375   7.907  20.436  0.00  0.00    +0.000 A 
ATOM      4  N   UNL     1       1.065   6.652  20.694  0.00  0.00    +0.000 NA
ATOM      5  C   UNL     1       1.914   5.924  19.884  0.00  0.00    +0.000 A 
ENDROOT
BRANCH   3   6
ATOM      6  C   UNL     1       0.808   9.127  21.003  0.00  0.00    +0.000 A 
ATOM      7  C   UNL     1       0.172   9.139  22.253  0.00  0.00    +0.000 A 
ATOM      8  C   UNL     1      -0.363  10.323  22.767  0.00  0.00    +0.000 A 
ATOM      9  C   UNL     1      -0.270  11.508  22.037  0.00  0.00    +0.000 A 
ATOM     10  C   UNL     1       0.359  11.511  20.794  0.00  0.00    +0.000 A 
ATOM     11  C   UNL     1       0.890  10.327  20.280  0.00  0.00    +0.000 A 
ENDBRANCH   3   6
BRANCH   5  12
ATOM     12  C   UNL     1       1.845   4.476  19.826  0.00  0.00    +0.000 A 
ATOM     13  C   UNL     1       1.652   3.785  18.623  0.00  0.00    +0.000 A 
ATOM     14  C   UNL     1       1.502   2.397  18.621  0.00  0.00    +0.000 A 
ATOM     15  C   UNL     1       1.535   1.688  19.818  0.00  0.00    +0.000 A 
ATOM     16  C   UNL     1       1.734   2.361  21.022  0.00  0.00    +0.000 A 
ATOM     17  C   UNL     1       1.886   3.747  21.025  0.00  0.00    +0.000 A 
ENDBRANCH   5  12
BRANCH   1  20
ATOM     18  C   UNL     1       4.895   5.910  18.610  0.00  0.00    +0.000 C 
ATOM     19  O   UNL     1       5.099   5.452  19.737  0.00  0.00    +0.000 OA
ATOM     20  N   UNL     1       3.755   6.609  18.261  0.00  0.00    +0.000 N 
ATOM     21  H   UNL     1       3.672   7.059  17.357  0.00  0.00    +0.000 HD
BRANCH  18  22
ATOM     22  C   UNL     1       5.983   5.798  17.518  0.00  0.00    +0.000 C 
BRANCH  22  23
ATOM     23  C   UNL     1       5.354   6.265  16.174  0.00  0.00    +0.000 C 
BRANCH  23  25
ATOM     24  C   UNL     1       6.318   4.125  15.149  0.00  0.00    +0.000 C 
ATOM     25  C   UNL     1       5.513   5.393  14.928  0.00  0.00    +0.000 C 
ENDBRANCH  23  25
ENDBRANCH  22  23
BRANCH  22  26
ATOM     26  C   UNL     1       7.277   6.538  17.915  0.00  0.00    +0.000 C 
BRANCH  26  27
ATOM     27  C   UNL     1       7.360   7.973  17.383  0.00  0.00    +0.000 C 
ATOM     28  C   UNL     1       8.377   8.809  18.144  0.00  0.00    +0.000 C 
ENDBRANCH  26  27
ENDBRANCH  22  26
ENDBRANCH  18  22
ENDBRANCH   1  20
TORSDOF 8
ENDMDL
MODEL 7
REMARK VINA RESULT:      -7.8      1.544      2.909
REMARK  Name = 
REMARK  10 active torsions:
REMARK  status: ('A' for Active; 'I' for Inactive)
REMARK    1  A    between atoms: C_1  and  C_2
REMARK    2  A    between atoms: C_2  and  C_3
REMARK    3  A    between atoms: C_3  and  C_4
REMARK    4  A    between atoms: C_4  and  C_5
REMARK    5  A    between atoms: C_4  and  C_8
REMARK    6  A    between atoms: C_5  and  C_6
REMARK    7  A    between atoms: C_6  and  C_7
REMARK    8  A    between atoms: N_10  and  C_11
REMARK    9  A    between atoms: C_13  and  C_14
REMARK   10  A    between atoms: C_21  and  C_22
REMARK                            x       y       z     vdW  Elec       q    Type
REMARK                         _______ _______ _______ _____ _____    ______ ____
ROOT
ATOM      1  C   UNL     1       3.040   6.648  18.229  0.00  0.00    +0.000 A 
ATOM      2  O   UNL     1       2.874   7.981  17.975  0.00  0.00    +0.000 OA
ATOM      3  C   UNL     1       1.924   8.397  18.858  0.00  0.00    +0.000 A 
ATOM      4  N   UNL     1       1.466   7.443  19.644  0.00  0.00    +0.000 NA
ATOM      5  C   UNL     1       2.167   6.321  19.252  0.00  0.00    +0.000 A 
ENDROOT
BRANCH   3   6
ATOM      6  C   UNL     1       1.553   9.809  18.817  0.00  0.00    +0.000 A 
ATOM      7  C   UNL     1       2.332  10.763  18.145  0.00  0.00    +0.000 A 
ATOM      8  C   UNL     1       1.951  12.106  18.126  0.00  0.00    +0.000 A 
ATOM      9  C   UNL     1       0.788  12.513  18.781  0.00  0.00    +0.000 A 
ATOM     10  C   UNL     1       0.005  11.577  19.453  0.00  0.00    +0.000 A 
ATOM     11  C   UNL     1       0.388  10.235  19.473  0.00  0.00    +0.000 A 
ENDBRANCH   3   6
BRANCH   5  12
ATOM     12  C   UNL     1       1.905   5.021  19.843  0.00  0.00    +0.000 A 
ATOM     13  C   UNL     1       2.261   4.717  21.163  0.00  0.00    +0.000 A 
ATOM     14  C   UNL     1       2.073   3.428  21.666  0.00  0.00    +0.000 A 
ATOM     15  C   UNL     1       1.537   2.432  20.856  0.00  0.00    +0.000 A 
ATOM     16  C   UNL     1       1.171   2.722  19.543  0.00  0.00    +0.000 A 
ATOM     17  C   UNL     1       1.356   4.009  19.040  0.00  0.00    +0.000 A 
ENDBRANCH   5  12
BRANCH   1  20
ATOM     18  C   UNL     1       5.047   5.320  18.151  0.00  0.00    +0.000 C 
ATOM     19  O   UNL     1       5.244   5.378  19.367  0.00  0.00    +0.000 OA
ATOM     20  N   UNL     1       3.994   5.951  17.515  0.00  0.00    +0.000 N 
ATOM     21  H   UNL     1       3.926   5.965  16.504  0.00  0.00    +0.000 HD
BRANCH  18  22
ATOM     22  C   UNL     1       6.051   4.585  17.235  0.00  0.00    +0.000 C 
BRANCH  22  23
ATOM     23  C   UNL     1       5.447   4.551  15.801  0.00  0.00    +0.000 C 
BRANCH  23  25
ATOM     24  C   UNL     1       5.769   3.734  13.395  0.00  0.00    +0.000 C 
ATOM     25  C   UNL     1       6.381   4.433  14.597  0.00  0.00    +0.000 C 
ENDBRANCH  23  25
ENDBRANCH  22  23
BRANCH  22  26
ATOM     26  C   UNL     1       7.465   5.194  17.324  0.00  0.00    +0.000 C 
BRANCH  26  27
ATOM     27  C   UNL     1       7.489   6.725  17.234  0.00  0.00    +0.000 C 
ATOM     28  C   UNL     1       8.132   7.361  18.457  0.00  0.00    +0.000 C 
ENDBRANCH  26  27
ENDBRANCH  22  26
ENDBRANCH  18  22
ENDBRANCH   1  20
TORSDOF 8
ENDMDL
MODEL 8
REMARK VINA RESULT:      -7.8      1.113      1.604
REMARK  Name = 
REMARK  10 active torsions:
REMARK  status: ('A' for Active; 'I' for Inactive)
REMARK    1  A    between atoms: C_1  and  C_2
REMARK    2  A    between atoms: C_2  and  C_3
REMARK    3  A    between atoms: C_3  and  C_4
REMARK    4  A    between atoms: C_4  and  C_5
REMARK    5  A    between atoms: C_4  and  C_8
REMARK    6  A    between atoms: C_5  and  C_6
REMARK    7  A    between atoms: C_6  and  C_7
REMARK    8  A    between atoms: N_10  and  C_11
REMARK    9  A    between atoms: C_13  and  C_14
REMARK   10  A    between atoms: C_21  and  C_22
REMARK                            x       y       z     vdW  Elec       q    Type
REMARK                         _______ _______ _______ _____ _____    ______ ____
ROOT
ATOM      1  C   UNL     1       3.177   6.693  18.718  0.00  0.00    +0.000 A 
ATOM      2  O   UNL     1       2.753   7.900  19.200  0.00  0.00    +0.000 OA
ATOM      3  C   UNL     1       1.717   7.606  20.034  0.00  0.00    +0.000 A 
ATOM      4  N   UNL     1       1.440   6.320  20.116  0.00  0.00    +0.000 NA
ATOM      5  C   UNL     1       2.363   5.726  19.279  0.00  0.00    +0.000 A 
ENDROOT
BRANCH   3   6
ATOM      6  C   UNL     1       1.070   8.728  20.709  0.00  0.00    +0.000 A 
ATOM      7  C   UNL     1       0.808   9.940  20.053  0.00  0.00    +0.000 A 
ATOM      8  C   UNL     1       0.189  10.994  20.727  0.00  0.00    +0.000 A 
ATOM      9  C   UNL     1      -0.172  10.853  22.066  0.00  0.00    +0.000 A 
ATOM     10  C   UNL     1       0.082   9.655  22.732  0.00  0.00    +0.000 A 
ATOM     11  C   UNL     1       0.702   8.602  22.058  0.00  0.00    +0.000 A 
ENDBRANCH   3   6
BRANCH   5  12
ATOM     12  C   UNL     1       2.354   4.294  19.039  0.00  0.00    +0.000 A 
ATOM     13  C   UNL     1       2.216   3.365  20.078  0.00  0.00    +0.000 A 
ATOM     14  C   UNL     1       2.301   1.995  19.817  0.00  0.00    +0.000 A 
ATOM     15  C   UNL     1       2.533   1.543  18.522  0.00  0.00    +0.000 A 
ATOM     16  C   UNL     1       2.664   2.456  17.477  0.00  0.00    +0.000 A 
ATOM     17  C   UNL     1       2.576   3.824  17.735  0.00  0.00    +0.000 A 
ENDBRANCH   5  12
BRANCH   1  20
ATOM     18  C   UNL     1       5.434   6.009  18.231  0.00  0.00    +0.000 C 
ATOM     19  O   UNL     1       5.604   5.465  19.325  0.00  0.00    +0.000 OA
ATOM     20  N   UNL     1       4.270   6.664  17.874  0.00  0.00    +0.000 N 
ATOM     21  H   UNL     1       4.208   7.187  17.009  0.00  0.00    +0.000 HD
BRANCH  18  22
ATOM     22  C   UNL     1       6.586   6.062  17.202  0.00  0.00    +0.000 C 
BRANCH  22  23
ATOM     23  C   UNL     1       7.713   6.953  17.800  0.00  0.00    +0.000 C 
BRANCH  23  25
ATOM     24  C   UNL     1       8.611   9.267  18.436  0.00  0.00    +0.000 C 
ATOM     25  C   UNL     1       7.705   8.457  17.524  0.00  0.00    +0.000 C 
ENDBRANCH  23  25
ENDBRANCH  22  23
BRANCH  22  26
ATOM     26  C   UNL     1       7.040   4.652  16.771  0.00  0.00    +0.000 C 
BRANCH  26  27
ATOM     27  C   UNL     1       6.060   3.945  15.827  0.00  0.00    +0.000 C 
ATOM     28  C   UNL     1       5.609   4.847  14.688  0.00  0.00    +0.000 C 
ENDBRANCH  26  27
ENDBRANCH  22  26
ENDBRANCH  18  22
ENDBRANCH   1  20
TORSDOF 8
ENDMDL
MODEL 9
REMARK VINA RESULT:      -7.8      2.242      5.144
REMARK  Name = 
REMARK  10 active torsions:
REMARK  status: ('A' for Active; 'I' for Inactive)
REMARK    1  A    between atoms: C_1  and  C_2
REMARK    2  A    between atoms: C_2  and  C_3
REMARK    3  A    between atoms: C_3  and  C_4
REMARK    4  A    between atoms: C_4  and  C_5
REMARK    5  A    between atoms: C_4  and  C_8
REMARK    6  A    between atoms: C_5  and  C_6
REMARK    7  A    between atoms: C_6  and  C_7
REMARK    8  A    between atoms: N_10  and  C_11
REMARK    9  A    between atoms: C_13  and  C_14
REMARK   10  A    between atoms: C_21  and  C_22
REMARK                            x       y       z     vdW  Elec       q    Type
REMARK                         _______ _______ _______ _____ _____    ______ ____
ROOT
ATOM      1  C   UNL     1       2.582   6.345  18.486  0.00  0.00    +0.000 A 
ATOM      2  O   UNL     1       1.763   7.406  18.753  0.00  0.00    +0.000 OA
ATOM      3  C   UNL     1       2.356   8.475  18.150  0.00  0.00    +0.000 A 
ATOM      4  N   UNL     1       3.484   8.185  17.533  0.00  0.00    +0.000 NA
ATOM      5  C   UNL     1       3.642   6.830  17.742  0.00  0.00    +0.000 A 
ENDROOT
BRANCH   3   6
ATOM      6  C   UNL     1       1.677   9.762  18.265  0.00  0.00    +0.000 A 
ATOM      7  C   UNL     1       2.373  10.978  18.193  0.00  0.00    +0.000 A 
ATOM      8  C   UNL     1       1.696  12.193  18.308  0.00  0.00    +0.000 A 
ATOM      9  C   UNL     1       0.314  12.209  18.500  0.00  0.00    +0.000 A 
ATOM     10  C   UNL     1      -0.391  11.009  18.574  0.00  0.00    +0.000 A 
ATOM     11  C   UNL     1       0.288   9.795  18.461  0.00  0.00    +0.000 A 
ENDBRANCH   3   6
BRANCH   5  12
ATOM     12  C   UNL     1       4.816   6.124  17.264  0.00  0.00    +0.000 A 
ATOM     13  C   UNL     1       4.825   5.425  16.051  0.00  0.00    +0.000 A 
ATOM     14  C   UNL     1       5.947   4.685  15.670  0.00  0.00    +0.000 A 
ATOM     15  C   UNL     1       7.063   4.629  16.499  0.00  0.00    +0.000 A 
ATOM     16  C   UNL     1       7.071   5.325  17.705  0.00  0.00    +0.000 A 
ATOM     17  C   UNL     1       5.954   6.068  18.086  0.00  0.00    +0.000 A 
ENDBRANCH   5  12
BRANCH   1  20
ATOM     18  C   UNL     1       1.503   4.224  18.117  0.00  0.00    +0.000 C 
ATOM     19  O   UNL     1       1.112   4.514  16.984  0.00  0.00    +0.000 OA
ATOM     20  N   UNL     1       2.208   5.091  18.930  0.00  0.00    +0.000 N 
ATOM     21  H   UNL     1       2.420   4.853  19.892  0.00  0.00    +0.000 HD
BRANCH  18  22
ATOM     22  C   UNL     1       1.136   2.857  18.739  0.00  0.00    +0.000 C 
BRANCH  22  23
ATOM     23  C   UNL     1       2.369   1.921  18.584  0.00  0.00    +0.000 C 
BRANCH  23  25
ATOM     24  C   UNL     1       4.695   2.774  19.237  0.00  0.00    +0.000 C 
ATOM     25  C   UNL     1       3.703   2.508  18.119  0.00  0.00    +0.000 C 
ENDBRANCH  23  25
ENDBRANCH  22  23
BRANCH  22  26
ATOM     26  C   UNL     1       0.615   3.003  20.183  0.00  0.00    +0.000 C 
BRANCH  26  27
ATOM     27  C   UNL     1       1.552   2.416  21.244  0.00  0.00    +0.000 C 
ATOM     28  C   UNL     1       2.337   3.494  21.976  0.00  0.00    +0.000 C 
ENDBRANCH  26  27
ENDBRANCH  22  26
ENDBRANCH  18  22
ENDBRANCH   1  20
TORSDOF 8
ENDMDL
