MODEL 1
REMARK VINA RESULT:      -8.0      0.000      0.000
REMARK  Name = 
REMARK  3 active torsions:
REMARK  status: ('A' for Active; 'I' for Inactive)
REMARK    1  A    between atoms: C_1  and  O_2
REMARK    2  A    between atoms: O_2  and  C_3
REMARK    3  A    between atoms: C_14  and  C_16
REMARK                            x       y       z     vdW  Elec       q    Type
REMARK                         _______ _______ _______ _____ _____    ______ ____
ROOT
ATOM      1  C   UNL     1       3.164   4.778  19.896  0.00  0.00    +0.000 A 
ATOM      2  C   UNL     1       3.931   3.673  19.502  0.00  0.00    +0.000 A 
ATOM      3  C   UNL     1       4.679   3.685  18.304  0.00  0.00    +0.000 A 
ATOM      4  C   UNL     1       4.667   4.799  17.461  0.00  0.00    +0.000 A 
ATOM      5 BR   UNL     1       5.672   4.779  15.865  0.00  0.00    +0.000 Br
ATOM      6  C   UNL     1       3.907   5.891  17.829  0.00  0.00    +0.000 A 
ATOM      7  C   UNL     1       3.161   5.877  19.050  0.00  0.00    +0.000 A 
ATOM      8  C   UNL     1       2.483   7.143  19.162  0.00  0.00    +0.000 A 
ATOM      9  N   UNL     1       1.679   7.742  20.082  0.00  0.00    +0.000 NA
ATOM     10  C   UNL     1       1.325   8.919  19.593  0.00  0.00    +0.000 A 
ATOM     11  N   UNL     1       0.493   9.758  20.293  0.00  0.00    +0.000 N 
ATOM     12  C   UNL     1      -0.123  10.895  19.819  0.00  0.00    +0.000 C 
ATOM     13  O   UNL     1      -0.043  11.340  18.678  0.00  0.00    +0.000 OA
ATOM     14  S   UNL     1       2.011   9.356  18.067  0.00  0.00    +0.000 S 
ATOM     15  C   UNL     1       2.787   7.879  18.046  0.00  0.00    +0.000 A 
ATOM     16  C   UNL     1       3.703   7.210  17.092  0.00  0.00    +0.000 C 
ATOM     17  H   UNL     1       0.277   9.410  21.219  0.00  0.00    +0.000 HD
ENDROOT
BRANCH  12  18
ATOM     18  C   UNL     1      -1.001  11.629  20.781  0.00  0.00    +0.000 A 
ATOM     19  C   UNL     1      -0.576  11.754  22.113  0.00  0.00    +0.000 A 
ATOM     20  C   UNL     1      -1.359  12.429  23.056  0.00  0.00    +0.000 A 
ATOM     21  C   UNL     1      -2.580  12.985  22.676  0.00  0.00    +0.000 A 
ATOM     22  C   UNL     1      -3.013  12.868  21.357  0.00  0.00    +0.000 A 
ATOM     23  C   UNL     1      -2.224  12.195  20.421  0.00  0.00    +0.000 A 
ATOM     24  F   UNL     1      -2.683  12.114  19.162  0.00  0.00    +0.000 F 
ENDBRANCH  12  18
BRANCH   1  26
ATOM     25  C   UNL     1       2.131   3.580  21.656  0.00  0.00    +0.000 C 
ATOM     26  O   UNL     1       2.382   4.822  21.011  0.00  0.00    +0.000 OA
ENDBRANCH   1  26
TORSDOF 2
ENDMDL
MODEL 2
REMARK VINA RESULT:      -7.9      1.047      1.403
REMARK  Name = 
REMARK  3 active torsions:
REMARK  status: ('A' for Active; 'I' for Inactive)
REMARK    1  A    between atoms: C_1  and  O_2
REMARK    2  A    between atoms: O_2  and  C_3
REMARK    3  A    between atoms: C_14  and  C_16
REMARK                            x       y       z     vdW  Elec       q    Type
REMARK                         _______ _______ _______ _____ _____    ______ ____
ROOT
ATOM      1  C   UNL     1       3.178   4.445  20.011  0.00  0.00    +0.000 A 
ATOM      2  C   UNL     1       3.936   3.334  19.618  0.00  0.00    +0.000 A 
ATOM      3  C   UNL     1       4.688   3.340  18.423  0.00  0.00    +0.000 A 
ATOM      4  C   UNL     1       4.690   4.454  17.581  0.00  0.00    +0.000 A 
ATOM      5 BR   UNL     1       5.700   4.427  15.989  0.00  0.00    +0.000 Br
ATOM      6  C   UNL     1       3.938   5.553  17.948  0.00  0.00    +0.000 A 
ATOM      7  C   UNL     1       3.189   5.545  19.166  0.00  0.00    +0.000 A 
ATOM      8  C   UNL     1       2.523   6.818  19.277  0.00  0.00    +0.000 A 
ATOM      9  N   UNL     1       1.720   7.423  20.194  0.00  0.00    +0.000 NA
ATOM     10  C   UNL     1       1.380   8.604  19.706  0.00  0.00    +0.000 A 
ATOM     11  N   UNL     1       0.554   9.451  20.404  0.00  0.00    +0.000 N 
ATOM     12  C   UNL     1      -0.050  10.594  19.928  0.00  0.00    +0.000 C 
ATOM     13  O   UNL     1       0.038  11.039  18.788  0.00  0.00    +0.000 OA
ATOM     14  S   UNL     1       2.075   9.037  18.183  0.00  0.00    +0.000 S 
ATOM     15  C   UNL     1       2.837   7.552  18.162  0.00  0.00    +0.000 A 
ATOM     16  C   UNL     1       3.750   6.875  17.211  0.00  0.00    +0.000 C 
ATOM     17  H   UNL     1       0.331   9.104  21.329  0.00  0.00    +0.000 HD
ENDROOT
BRANCH  12  18
ATOM     18  C   UNL     1      -0.925  11.335  20.888  0.00  0.00    +0.000 A 
ATOM     19  C   UNL     1      -1.896  12.208  20.371  0.00  0.00    +0.000 A 
ATOM     20  C   UNL     1      -2.739  12.928  21.223  0.00  0.00    +0.000 A 
ATOM     21  C   UNL     1      -2.620  12.786  22.605  0.00  0.00    +0.000 A 
ATOM     22  C   UNL     1      -1.660  11.923  23.131  0.00  0.00    +0.000 A 
ATOM     23  C   UNL     1      -0.823  11.205  22.273  0.00  0.00    +0.000 A 
ATOM     24  F   UNL     1       0.082  10.384  22.829  0.00  0.00    +0.000 F 
ENDBRANCH  12  18
BRANCH   1  26
ATOM     25  C   UNL     1       1.954   3.248  21.644  0.00  0.00    +0.000 C 
ATOM     26  O   UNL     1       2.393   4.496  21.123  0.00  0.00    +0.000 OA
ENDBRANCH   1  26
TORSDOF 2
ENDMDL
MODEL 3
REMARK VINA RESULT:      -7.7      1.181      1.226
REMARK  Name = 
REMARK  3 active torsions:
REMARK  status: ('A' for Active; 'I' for Inactive)
REMARK    1  A    between atoms: C_1  and  O_2
REMARK    2  A    between atoms: O_2  and  C_3
REMARK    3  A    between atoms: C_14  and  C_16
REMARK                            x       y       z     vdW  Elec       q    Type
REMARK                         _______ _______ _______ _____ _____    ______ ____
ROOT
ATOM      1  C   UNL     1       2.963   4.350  19.962  0.00  0.00    +0.000 A 
ATOM      2  C   UNL     1       3.564   3.176  19.490  0.00  0.00    +0.000 A 
ATOM      3  C   UNL     1       4.229   3.138  18.245  0.00  0.00    +0.000 A 
ATOM      4  C   UNL     1       4.298   4.271  17.432  0.00  0.00    +0.000 A 
ATOM      5 BR   UNL     1       5.188   4.185  15.773  0.00  0.00    +0.000 Br
ATOM      6  C   UNL     1       3.700   5.434  17.878  0.00  0.00    +0.000 A 
ATOM      7  C   UNL     1       3.038   5.469  19.145  0.00  0.00    +0.000 A 
ATOM      8  C   UNL     1       2.527   6.802  19.334  0.00  0.00    +0.000 A 
ATOM      9  N   UNL     1       1.861   7.462  20.320  0.00  0.00    +0.000 NA
ATOM     10  C   UNL     1       1.622   8.688  19.886  0.00  0.00    +0.000 A 
ATOM     11  N   UNL     1       0.944   9.598  20.661  0.00  0.00    +0.000 N 
ATOM     12  C   UNL     1       0.441  10.814  20.257  0.00  0.00    +0.000 C 
ATOM     13  O   UNL     1       0.500  11.283  19.125  0.00  0.00    +0.000 OA
ATOM     14  S   UNL     1       2.256   9.091  18.328  0.00  0.00    +0.000 S 
ATOM     15  C   UNL     1       2.846   7.533  18.218  0.00  0.00    +0.000 A 
ATOM     16  C   UNL     1       3.610   6.791  17.188  0.00  0.00    +0.000 C 
ATOM     17  H   UNL     1       0.747   9.248  21.590  0.00  0.00    +0.000 HD
ENDROOT
BRANCH  12  18
ATOM     18  C   UNL     1      -0.279  11.616  21.294  0.00  0.00    +0.000 A 
ATOM     19  C   UNL     1      -1.140  10.947  22.179  0.00  0.00    +0.000 A 
ATOM     20  C   UNL     1      -1.840  11.647  23.166  0.00  0.00    +0.000 A 
ATOM     21  C   UNL     1      -1.689  13.029  23.279  0.00  0.00    +0.000 A 
ATOM     22  C   UNL     1      -0.837  13.705  22.407  0.00  0.00    +0.000 A 
ATOM     23  C   UNL     1      -0.140  12.998  21.425  0.00  0.00    +0.000 A 
ATOM     24  F   UNL     1       0.671  13.694  20.613  0.00  0.00    +0.000 F 
ENDBRANCH  12  18
BRANCH   1  26
ATOM     25  C   UNL     1       1.812   3.231  21.700  0.00  0.00    +0.000 C 
ATOM     26  O   UNL     1       2.265   4.451  21.128  0.00  0.00    +0.000 OA
ENDBRANCH   1  26
TORSDOF 2
ENDMDL
MODEL 4
REMARK VINA RESULT:      -7.6      3.753      8.784
REMARK  Name = 
REMARK  3 active torsions:
REMARK  status: ('A' for Active; 'I' for Inactive)
REMARK    1  A    between atoms: C_1  and  O_2
REMARK    2  A    between atoms: O_2  and  C_3
REMARK    3  A    between atoms: C_14  and  C_16
REMARK                            x       y       z     vdW  Elec       q    Type
REMARK                         _______ _______ _______ _____ _____    ______ ____
ROOT
ATOM      1  C   UNL     1      -1.575  11.972  19.114  0.00  0.00    +0.000 A 
ATOM      2  C   UNL     1      -2.507  12.913  19.574  0.00  0.00    +0.000 A 
ATOM      3  C   UNL     1      -2.806  13.042  20.948  0.00  0.00    +0.000 A 
ATOM      4  C   UNL     1      -2.191  12.223  21.897  0.00  0.00    +0.000 A 
ATOM      5 BR   UNL     1      -2.619  12.417  23.723  0.00  0.00    +0.000 Br
ATOM      6  C   UNL     1      -1.280  11.283  21.459  0.00  0.00    +0.000 A 
ATOM      7  C   UNL     1      -0.972  11.165  20.067  0.00  0.00    +0.000 A 
ATOM      8  C   UNL     1       0.006  10.117  19.923  0.00  0.00    +0.000 A 
ATOM      9  N   UNL     1       0.707   9.570  18.892  0.00  0.00    +0.000 NA
ATOM     10  C   UNL     1       1.438   8.586  19.388  0.00  0.00    +0.000 A 
ATOM     11  N   UNL     1       2.250   7.827  18.581  0.00  0.00    +0.000 N 
ATOM     12  C   UNL     1       2.885   6.652  18.918  0.00  0.00    +0.000 C 
ATOM     13  O   UNL     1       2.816   6.076  19.999  0.00  0.00    +0.000 OA
ATOM     14  S   UNL     1       1.356   8.353  21.100  0.00  0.00    +0.000 S 
ATOM     15  C   UNL     1       0.258   9.608  21.171  0.00  0.00    +0.000 A 
ATOM     16  C   UNL     1      -0.490  10.261  22.270  0.00  0.00    +0.000 C 
ATOM     17  H   UNL     1       2.279   8.167  17.627  0.00  0.00    +0.000 HD
ENDROOT
BRANCH  12  18
ATOM     18  C   UNL     1       3.702   6.005  17.847  0.00  0.00    +0.000 A 
ATOM     19  C   UNL     1       4.554   6.811  17.075  0.00  0.00    +0.000 A 
ATOM     20  C   UNL     1       5.340   6.259  16.059  0.00  0.00    +0.000 A 
ATOM     21  C   UNL     1       5.281   4.889  15.800  0.00  0.00    +0.000 A 
ATOM     22  C   UNL     1       4.440   4.077  16.559  0.00  0.00    +0.000 A 
ATOM     23  C   UNL     1       3.661   4.637  17.574  0.00  0.00    +0.000 A 
ATOM     24  F   UNL     1       2.871   3.813  18.280  0.00  0.00    +0.000 F 
ENDBRANCH  12  18
BRANCH   1  26
ATOM     25  C   UNL     1      -2.266  11.114  17.020  0.00  0.00    +0.000 C 
ATOM     26  O   UNL     1      -1.270  11.759  17.803  0.00  0.00    +0.000 OA
ENDBRANCH   1  26
TORSDOF 2
ENDMDL
MODEL 5
REMARK VINA RESULT:      -7.5      3.715      8.722
REMARK  Name = 
REMARK  3 active torsions:
REMARK  status: ('A' for Active; 'I' for Inactive)
REMARK    1  A    between atoms: C_1  and  O_2
REMARK    2  A    between atoms: O_2  and  C_3
REMARK    3  A    between atoms: C_14  and  C_16
REMARK                            x       y       z     vdW  Elec       q    Type
REMARK                         _______ _______ _______ _____ _____    ______ ____
ROOT
ATOM      1  C   UNL     1       0.160  12.967  19.457  0.00  0.00    +0.000 A 
ATOM      2  C   UNL     1      -0.467  14.188  19.738  0.00  0.00    +0.000 A 
ATOM      3  C   UNL     1      -1.161  14.398  20.950  0.00  0.00    +0.000 A 
ATOM      4  C   UNL     1      -1.257  13.386  21.907  0.00  0.00    +0.000 A 
ATOM      5 BR   UNL     1      -2.197  13.698  23.512  0.00  0.00    +0.000 Br
ATOM      6  C   UNL     1      -0.654  12.173  21.641  0.00  0.00    +0.000 A 
ATOM      7  C   UNL     1       0.058  11.971  20.416  0.00  0.00    +0.000 A 
ATOM      8  C   UNL     1       0.575  10.627  20.429  0.00  0.00    +0.000 A 
ATOM      9  N   UNL     1       1.345   9.869  19.602  0.00  0.00    +0.000 NA
ATOM     10  C   UNL     1       1.450   8.668  20.147  0.00  0.00    +0.000 A 
ATOM     11  N   UNL     1       2.161   7.667  19.531  0.00  0.00    +0.000 N 
ATOM     12  C   UNL     1       2.169   6.332  19.867  0.00  0.00    +0.000 C 
ATOM     13  O   UNL     1       1.522   5.808  20.769  0.00  0.00    +0.000 OA
ATOM     14  S   UNL     1       0.695   8.453  21.688  0.00  0.00    +0.000 S 
ATOM     15  C   UNL     1       0.173  10.036  21.600  0.00  0.00    +0.000 A 
ATOM     16  C   UNL     1      -0.624  10.909  22.493  0.00  0.00    +0.000 C 
ATOM     17  H   UNL     1       2.643   7.986  18.699  0.00  0.00    +0.000 HD
ENDROOT
BRANCH  12  18
ATOM     18  C   UNL     1       3.018   5.436  19.023  0.00  0.00    +0.000 A 
ATOM     19  C   UNL     1       4.384   5.325  19.329  0.00  0.00    +0.000 A 
ATOM     20  C   UNL     1       5.225   4.503  18.572  0.00  0.00    +0.000 A 
ATOM     21  C   UNL     1       4.709   3.783  17.495  0.00  0.00    +0.000 A 
ATOM     22  C   UNL     1       3.355   3.884  17.181  0.00  0.00    +0.000 A 
ATOM     23  C   UNL     1       2.521   4.705  17.943  0.00  0.00    +0.000 A 
ATOM     24  F   UNL     1       1.224   4.764  17.603  0.00  0.00    +0.000 F 
ENDBRANCH  12  18
BRANCH   1  26
ATOM     25  C   UNL     1       2.145  13.144  18.180  0.00  0.00    +0.000 C 
ATOM     26  O   UNL     1       0.807  12.676  18.293  0.00  0.00    +0.000 OA
ENDBRANCH   1  26
TORSDOF 2
ENDMDL
MODEL 6
REMARK VINA RESULT:      -7.4      3.782      8.310
REMARK  Name = 
REMARK  3 active torsions:
REMARK  status: ('A' for Active; 'I' for Inactive)
REMARK    1  A    between atoms: C_1  and  O_2
REMARK    2  A    between atoms: O_2  and  C_3
REMARK    3  A    between atoms: C_14  and  C_16
REMARK                            x       y       z     vdW  Elec       q    Type
REMARK                         _______ _______ _______ _____ _____    ______ ____
ROOT
ATOM      1  C   UNL     1      -0.059  12.169  21.940  0.00  0.00    +0.000 A 
ATOM      2  C   UNL     1      -0.461  13.457  22.317  0.00  0.00    +0.000 A 
ATOM      3  C   UNL     1      -0.365  14.549  21.426  0.00  0.00    +0.000 A 
ATOM      4  C   UNL     1       0.149  14.382  20.138  0.00  0.00    +0.000 A 
ATOM      5 BR   UNL     1       0.270  15.862  18.977  0.00  0.00    +0.000 Br
ATOM      6  C   UNL     1       0.561  13.121  19.756  0.00  0.00    +0.000 A 
ATOM      7  C   UNL     1       0.450  12.017  20.659  0.00  0.00    +0.000 A 
ATOM      8  C   UNL     1       0.946  10.847  19.981  0.00  0.00    +0.000 A 
ATOM      9  N   UNL     1       1.066   9.524  20.277  0.00  0.00    +0.000 NA
ATOM     10  C   UNL     1       1.650   8.938  19.245  0.00  0.00    +0.000 A 
ATOM     11  N   UNL     1       1.923   7.592  19.253  0.00  0.00    +0.000 N 
ATOM     12  C   UNL     1       2.711   6.904  18.358  0.00  0.00    +0.000 C 
ATOM     13  O   UNL     1       3.320   7.386  17.408  0.00  0.00    +0.000 OA
ATOM     14  S   UNL     1       1.993   9.944  17.881  0.00  0.00    +0.000 S 
ATOM     15  C   UNL     1       1.361  11.233  18.732  0.00  0.00    +0.000 A 
ATOM     16  C   UNL     1       1.172  12.672  18.433  0.00  0.00    +0.000 C 
ATOM     17  H   UNL     1       1.552   7.123  20.070  0.00  0.00    +0.000 HD
ENDROOT
BRANCH  12  18
ATOM     18  C   UNL     1       2.867   5.436  18.597  0.00  0.00    +0.000 A 
ATOM     19  C   UNL     1       1.866   4.571  18.125  0.00  0.00    +0.000 A 
ATOM     20  C   UNL     1       1.959   3.190  18.323  0.00  0.00    +0.000 A 
ATOM     21  C   UNL     1       3.056   2.655  18.999  0.00  0.00    +0.000 A 
ATOM     22  C   UNL     1       4.057   3.503  19.471  0.00  0.00    +0.000 A 
ATOM     23  C   UNL     1       3.957   4.881  19.268  0.00  0.00    +0.000 A 
ATOM     24  F   UNL     1       4.949   5.654  19.738  0.00  0.00    +0.000 F 
ENDBRANCH  12  18
BRANCH   1  26
ATOM     25  C   UNL     1      -1.356  10.657  23.218  0.00  0.00    +0.000 C 
ATOM     26  O   UNL     1      -0.079  11.079  22.758  0.00  0.00    +0.000 OA
ENDBRANCH   1  26
TORSDOF 2
ENDMDL
MODEL 7
REMARK VINA RESULT:      -7.3      3.880      8.776
REMARK  Name = 
REMARK  3 active torsions:
REMARK  status: ('A' for Active; 'I' for Inactive)
REMARK    1  A    between atoms: C_1  and  O_2
REMARK    2  A    between atoms: O_2  and  C_3
REMARK    3  A    between atoms: C_14  and  C_16
REMARK                            x       y       z     vdW  Elec       q    Type
REMARK                         _______ _______ _______ _____ _____    ______ ____
ROOT
ATOM      1  C   UNL     1       0.521  12.858  19.451  0.00  0.00    +0.000 A 
ATOM      2  C   UNL     1      -0.010  14.119  19.753  0.00  0.00    +0.000 A 
ATOM      3  C   UNL     1      -0.659  14.370  20.982  0.00  0.00    +0.000 A 
ATOM      4  C   UNL     1      -0.806  13.360  21.936  0.00  0.00    +0.000 A 
ATOM      5 BR   UNL     1      -1.683  13.727  23.564  0.00  0.00    +0.000 Br
ATOM      6  C   UNL     1      -0.298  12.109  21.648  0.00  0.00    +0.000 A 
ATOM      7  C   UNL     1       0.369  11.865  20.406  0.00  0.00    +0.000 A 
ATOM      8  C   UNL     1       0.789  10.487  20.399  0.00  0.00    +0.000 A 
ATOM      9  N   UNL     1       1.482   9.681  19.550  0.00  0.00    +0.000 NA
ATOM     10  C   UNL     1       1.512   8.472  20.085  0.00  0.00    +0.000 A 
ATOM     11  N   UNL     1       2.135   7.428  19.446  0.00  0.00    +0.000 N 
ATOM     12  C   UNL     1       2.054   6.093  19.775  0.00  0.00    +0.000 C 
ATOM     13  O   UNL     1       1.393   5.610  20.689  0.00  0.00    +0.000 OA
ATOM     14  S   UNL     1       0.780   8.301  21.642  0.00  0.00    +0.000 S 
ATOM     15  C   UNL     1       0.371   9.918  21.576  0.00  0.00    +0.000 A 
ATOM     16  C   UNL     1      -0.340  10.839  22.492  0.00  0.00    +0.000 C 
ATOM     17  H   UNL     1       2.619   7.717  18.606  0.00  0.00    +0.000 HD
ENDROOT
BRANCH  12  18
ATOM     18  C   UNL     1       2.817   5.144  18.906  0.00  0.00    +0.000 A 
ATOM     19  C   UNL     1       2.104   4.365  17.980  0.00  0.00    +0.000 A 
ATOM     20  C   UNL     1       2.766   3.460  17.144  0.00  0.00    +0.000 A 
ATOM     21  C   UNL     1       4.152   3.322  17.225  0.00  0.00    +0.000 A 
ATOM     22  C   UNL     1       4.871   4.090  18.140  0.00  0.00    +0.000 A 
ATOM     23  C   UNL     1       4.202   4.993  18.969  0.00  0.00    +0.000 A 
ATOM     24  F   UNL     1       4.939   5.713  19.829  0.00  0.00    +0.000 F 
ENDBRANCH  12  18
BRANCH   1  26
ATOM     25  C   UNL     1       2.468  12.945  18.108  0.00  0.00    +0.000 C 
ATOM     26  O   UNL     1       1.118  12.530  18.270  0.00  0.00    +0.000 OA
ENDBRANCH   1  26
TORSDOF 2
ENDMDL
MODEL 8
REMARK VINA RESULT:      -7.3      3.647      8.131
REMARK  Name = 
REMARK  3 active torsions:
REMARK  status: ('A' for Active; 'I' for Inactive)
REMARK    1  A    between atoms: C_1  and  O_2
REMARK    2  A    between atoms: O_2  and  C_3
REMARK    3  A    between atoms: C_14  and  C_16
REMARK                            x       y       z     vdW  Elec       q    Type
REMARK                         _______ _______ _______ _____ _____    ______ ____
ROOT
ATOM      1  C   UNL     1      -0.146  12.762  21.937  0.00  0.00    +0.000 A 
ATOM      2  C   UNL     1      -0.378  14.128  22.142  0.00  0.00    +0.000 A 
ATOM      3  C   UNL     1      -0.019  15.090  21.172  0.00  0.00    +0.000 A 
ATOM      4  C   UNL     1       0.594  14.711  19.977  0.00  0.00    +0.000 A 
ATOM      5 BR   UNL     1       1.066  16.021  18.706  0.00  0.00    +0.000 Br
ATOM      6  C   UNL     1       0.840  13.369  19.764  0.00  0.00    +0.000 A 
ATOM      7  C   UNL     1       0.463  12.398  20.745  0.00  0.00    +0.000 A 
ATOM      8  C   UNL     1       0.838  11.101  20.243  0.00  0.00    +0.000 A 
ATOM      9  N   UNL     1       0.716   9.815  20.672  0.00  0.00    +0.000 NA
ATOM     10  C   UNL     1       1.306   9.041  19.776  0.00  0.00    +0.000 A 
ATOM     11  N   UNL     1       1.361   7.679  19.941  0.00  0.00    +0.000 N 
ATOM     12  C   UNL     1       2.121   6.789  19.214  0.00  0.00    +0.000 C 
ATOM     13  O   UNL     1       2.894   7.071  18.303  0.00  0.00    +0.000 OA
ATOM     14  S   UNL     1       1.943   9.831  18.376  0.00  0.00    +0.000 S 
ATOM     15  C   UNL     1       1.436  11.284  19.023  0.00  0.00    +0.000 A 
ATOM     16  C   UNL     1       1.508  12.693  18.571  0.00  0.00    +0.000 C 
ATOM     17  H   UNL     1       0.838   7.362  20.747  0.00  0.00    +0.000 HD
ENDROOT
BRANCH  12  18
ATOM     18  C   UNL     1       2.019   5.349  19.604  0.00  0.00    +0.000 A 
ATOM     19  C   UNL     1       2.282   4.997  20.938  0.00  0.00    +0.000 A 
ATOM     20  C   UNL     1       2.203   3.665  21.358  0.00  0.00    +0.000 A 
ATOM     21  C   UNL     1       1.861   2.667  20.446  0.00  0.00    +0.000 A 
ATOM     22  C   UNL     1       1.597   3.003  19.119  0.00  0.00    +0.000 A 
ATOM     23  C   UNL     1       1.676   4.336  18.709  0.00  0.00    +0.000 A 
ATOM     24  F   UNL     1       1.408   4.609  17.422  0.00  0.00    +0.000 F 
ENDBRANCH  12  18
BRANCH   1  26
ATOM     25  C   UNL     1      -1.797  11.544  23.117  0.00  0.00    +0.000 C 
ATOM     26  O   UNL     1      -0.422  11.782  22.844  0.00  0.00    +0.000 OA
ENDBRANCH   1  26
TORSDOF 2
ENDMDL
MODEL 9
REMARK VINA RESULT:      -7.3      3.573      8.182
REMARK  Name = 
REMARK  3 active torsions:
REMARK  status: ('A' for Active; 'I' for Inactive)
REMARK    1  A    between atoms: C_1  and  O_2
REMARK    2  A    between atoms: O_2  and  C_3
REMARK    3  A    between atoms: C_14  and  C_16
REMARK                            x       y       z     vdW  Elec       q    Type
REMARK                         _______ _______ _______ _____ _____    ______ ____
ROOT
ATOM      1  C   UNL     1      -0.706  11.137  21.921  0.00  0.00    +0.000 A 
ATOM      2  C   UNL     1      -1.244  12.330  22.424  0.00  0.00    +0.000 A 
ATOM      3  C   UNL     1      -1.054  13.561  21.759  0.00  0.00    +0.000 A 
ATOM      4  C   UNL     1      -0.310  13.633  20.579  0.00  0.00    +0.000 A 
ATOM      5 BR   UNL     1      -0.071  15.294  19.720  0.00  0.00    +0.000 Br
ATOM      6  C   UNL     1       0.236  12.469  20.077  0.00  0.00    +0.000 A 
ATOM      7  C   UNL     1       0.030  11.223  20.749  0.00  0.00    +0.000 A 
ATOM      8  C   UNL     1       0.707  10.201  19.992  0.00  0.00    +0.000 A 
ATOM      9  N   UNL     1       0.849   8.851  20.082  0.00  0.00    +0.000 NA
ATOM     10  C   UNL     1       1.641   8.468  19.095  0.00  0.00    +0.000 A 
ATOM     11  N   UNL     1       1.986   7.148  18.931  0.00  0.00    +0.000 N 
ATOM     12  C   UNL     1       2.960   6.647  18.097  0.00  0.00    +0.000 C 
ATOM     13  O   UNL     1       3.698   7.303  17.369  0.00  0.00    +0.000 OA
ATOM     14  S   UNL     1       2.162   9.703  18.002  0.00  0.00    +0.000 S 
ATOM     15  C   UNL     1       1.315  10.808  18.922  0.00  0.00    +0.000 A 
ATOM     16  C   UNL     1       1.098  12.271  18.834  0.00  0.00    +0.000 C 
ATOM     17  H   UNL     1       1.503   6.536  19.577  0.00  0.00    +0.000 HD
ENDROOT
BRANCH  12  18
ATOM     18  C   UNL     1       3.156   5.165  18.115  0.00  0.00    +0.000 A 
ATOM     19  C   UNL     1       4.371   4.656  18.603  0.00  0.00    +0.000 A 
ATOM     20  C   UNL     1       4.609   3.279  18.642  0.00  0.00    +0.000 A 
ATOM     21  C   UNL     1       3.633   2.391  18.188  0.00  0.00    +0.000 A 
ATOM     22  C   UNL     1       2.423   2.882  17.702  0.00  0.00    +0.000 A 
ATOM     23  C   UNL     1       2.193   4.260  17.669  0.00  0.00    +0.000 A 
ATOM     24  F   UNL     1       1.010   4.683  17.196  0.00  0.00    +0.000 F 
ENDBRANCH  12  18
BRANCH   1  26
ATOM     25  C   UNL     1       0.156   9.639  23.537  0.00  0.00    +0.000 C 
ATOM     26  O   UNL     1      -0.807   9.922  22.530  0.00  0.00    +0.000 OA
ENDBRANCH   1  26
TORSDOF 2
ENDMDL
