MODEL 1
REMARK VINA RESULT:      -7.0      0.000      0.000
REMARK  Name = 
REMARK  9 active torsions:
REMARK  status: ('A' for Active; 'I' for Inactive)
REMARK    1  A    between atoms: C_1  and  N_2
REMARK    2  A    between atoms: N_2  and  C_3
REMARK    3  A    between atoms: N_2  and  C_4
REMARK    4  A    between atoms: C_4  and  C_5
REMARK    5  A    between atoms: C_5  and  N_6
REMARK    6  A    between atoms: N_6  and  C_7
REMARK    7  A    between atoms: C_7  and  C_8
REMARK    8  A    between atoms: C_15  and  C_17
REMARK    9  A    between atoms: N_20  and  C_21
REMARK                            x       y       z     vdW  Elec       q    Type
REMARK                         _______ _______ _______ _____ _____    ______ ____
ROOT
ATOM      1  N   UNL     1       4.140   4.913  17.244  0.00  0.00    +0.000 N 
ATOM      2  C   UNL     1       4.388   6.108  17.942  0.00  0.00    +0.000 C 
ATOM      3  O   UNL     1       5.538   6.421  18.279  0.00  0.00    +0.000 OA
ENDROOT
BRANCH   2   4
ATOM      4  C   UNL     1       3.276   7.046  18.337  0.00  0.00    +0.000 A 
ATOM      5  C   UNL     1       2.840   8.165  17.538  0.00  0.00    +0.000 A 
ATOM      6  C   UNL     1       1.879   8.993  17.952  0.00  0.00    +0.000 A 
ATOM      7  N   UNL     1       1.320   8.846  19.196  0.00  0.00    +0.000 N 
ATOM      8  C   UNL     1       0.342   9.825  19.654  0.00  0.00    +0.000 C 
ATOM      9  C   UNL     1       1.742   7.866  20.093  0.00  0.00    +0.000 A 
ATOM     10  O   UNL     1       1.319   7.743  21.238  0.00  0.00    +0.000 OA
ATOM     11  C   UNL     1       2.782   6.927  19.584  0.00  0.00    +0.000 A 
ENDBRANCH   2   4
BRANCH   1  12
ATOM     12  C   UNL     1       5.323   4.062  16.984  0.00  0.00    +0.000 C 
BRANCH  12  13
ATOM     13  C   UNL     1       5.447   3.385  15.591  0.00  0.00    +0.000 C 
BRANCH  13  15
ATOM     14  C   UNL     1       6.189   3.811  13.281  0.00  0.00    +0.000 C 
ATOM     15  N   UNL     1       6.541   3.828  14.702  0.00  0.00    +0.000 NA
ATOM     16  C   UNL     1       6.979   5.177  15.081  0.00  0.00    +0.000 C 
ENDBRANCH  13  15
ENDBRANCH  12  13
ENDBRANCH   1  12
BRANCH   1  17
ATOM     17  C   UNL     1       2.833   4.228  17.225  0.00  0.00    +0.000 C 
BRANCH  17  18
ATOM     18  C   UNL     1       2.373   3.597  18.529  0.00  0.00    +0.000 A 
ATOM     19  C   UNL     1       1.026   3.562  18.922  0.00  0.00    +0.000 A 
ATOM     20  C   UNL     1       0.658   3.160  20.207  0.00  0.00    +0.000 A 
ATOM     21  C   UNL     1       1.638   2.766  21.103  0.00  0.00    +0.000 A 
ATOM     22  F   UNL     1       1.294   2.452  22.360  0.00  0.00    +0.000 F 
ATOM     23  C   UNL     1       2.973   2.721  20.723  0.00  0.00    +0.000 A 
ATOM     24  C   UNL     1       3.340   3.121  19.435  0.00  0.00    +0.000 A 
ENDBRANCH  17  18
ENDBRANCH   1  17
TORSDOF 6
ENDMDL
MODEL 2
REMARK VINA RESULT:      -6.9      3.165      5.749
REMARK  Name = 
REMARK  9 active torsions:
REMARK  status: ('A' for Active; 'I' for Inactive)
REMARK    1  A    between atoms: C_1  and  N_2
REMARK    2  A    between atoms: N_2  and  C_3
REMARK    3  A    between atoms: N_2  and  C_4
REMARK    4  A    between atoms: C_4  and  C_5
REMARK    5  A    between atoms: C_5  and  N_6
REMARK    6  A    between atoms: N_6  and  C_7
REMARK    7  A    between atoms: C_7  and  C_8
REMARK    8  A    between atoms: C_15  and  C_17
REMARK    9  A    between atoms: N_20  and  C_21
REMARK                            x       y       z     vdW  Elec       q    Type
REMARK                         _______ _______ _______ _____ _____    ______ ____
ROOT
ATOM      1  N   UNL     1       2.706   4.957  18.199  0.00  0.00    +0.000 N 
ATOM      2  C   UNL     1       3.938   4.748  17.554  0.00  0.00    +0.000 C 
ATOM      3  O   UNL     1       4.090   3.807  16.763  0.00  0.00    +0.000 OA
ENDROOT
BRANCH   2   4
ATOM      4  C   UNL     1       5.133   5.630  17.812  0.00  0.00    +0.000 A 
ATOM      5  C   UNL     1       5.426   6.830  17.067  0.00  0.00    +0.000 A 
ATOM      6  C   UNL     1       6.522   7.555  17.305  0.00  0.00    +0.000 A 
ATOM      7  N   UNL     1       7.448   7.137  18.226  0.00  0.00    +0.000 N 
ATOM      8  C   UNL     1       8.678   7.902  18.392  0.00  0.00    +0.000 C 
ATOM      9  C   UNL     1       7.318   5.938  18.925  0.00  0.00    +0.000 A 
ATOM     10  O   UNL     1       8.153   5.494  19.705  0.00  0.00    +0.000 OA
ATOM     11  C   UNL     1       6.062   5.175  18.673  0.00  0.00    +0.000 A 
ENDBRANCH   2   4
BRANCH   1  12
ATOM     12  C   UNL     1       1.645   3.970  17.895  0.00  0.00    +0.000 C 
BRANCH  12  13
ATOM     13  C   UNL     1       0.852   3.357  19.082  0.00  0.00    +0.000 C 
BRANCH  13  15
ATOM     14  C   UNL     1       2.714   1.750  19.217  0.00  0.00    +0.000 C 
ATOM     15  N   UNL     1       1.456   2.217  19.802  0.00  0.00    +0.000 NA
ATOM     16  C   UNL     1       1.674   2.572  21.210  0.00  0.00    +0.000 C 
ENDBRANCH  13  15
ENDBRANCH  12  13
ENDBRANCH   1  12
BRANCH   1  17
ATOM     17  C   UNL     1       2.556   5.701  19.464  0.00  0.00    +0.000 C 
BRANCH  17  18
ATOM     18  C   UNL     1       2.151   7.161  19.355  0.00  0.00    +0.000 A 
ATOM     19  C   UNL     1       1.608   7.881  20.431  0.00  0.00    +0.000 A 
ATOM     20  C   UNL     1       1.061   9.152  20.248  0.00  0.00    +0.000 A 
ATOM     21  C   UNL     1       1.074   9.723  18.986  0.00  0.00    +0.000 A 
ATOM     22  F   UNL     1       0.482  10.910  18.793  0.00  0.00    +0.000 F 
ATOM     23  C   UNL     1       1.667   9.067  17.914  0.00  0.00    +0.000 A 
ATOM     24  C   UNL     1       2.217   7.796  18.100  0.00  0.00    +0.000 A 
ENDBRANCH  17  18
ENDBRANCH   1  17
TORSDOF 6
ENDMDL
MODEL 3
REMARK VINA RESULT:      -6.9      1.094      1.203
REMARK  Name = 
REMARK  9 active torsions:
REMARK  status: ('A' for Active; 'I' for Inactive)
REMARK    1  A    between atoms: C_1  and  N_2
REMARK    2  A    between atoms: N_2  and  C_3
REMARK    3  A    between atoms: N_2  and  C_4
REMARK    4  A    between atoms: C_4  and  C_5
REMARK    5  A    between atoms: C_5  and  N_6
REMARK    6  A    between atoms: N_6  and  C_7
REMARK    7  A    between atoms: C_7  and  C_8
REMARK    8  A    between atoms: C_15  and  C_17
REMARK    9  A    between atoms: N_20  and  C_21
REMARK                            x       y       z     vdW  Elec       q    Type
REMARK                         _______ _______ _______ _____ _____    ______ ____
ROOT
ATOM      1  N   UNL     1       3.210   5.544  17.483  0.00  0.00    +0.000 N 
ATOM      2  C   UNL     1       3.552   6.811  17.987  0.00  0.00    +0.000 C 
ATOM      3  O   UNL     1       4.737   7.153  18.098  0.00  0.00    +0.000 OA
ENDROOT
BRANCH   2   4
ATOM      4  C   UNL     1       2.506   7.797  18.441  0.00  0.00    +0.000 A 
ATOM      5  C   UNL     1       1.987   8.861  17.617  0.00  0.00    +0.000 A 
ATOM      6  C   UNL     1       1.093   9.737  18.080  0.00  0.00    +0.000 A 
ATOM      7  N   UNL     1       0.689   9.694  19.391  0.00  0.00    +0.000 N 
ATOM      8  C   UNL     1      -0.216  10.724  19.888  0.00  0.00    +0.000 C 
ATOM      9  C   UNL     1       1.207   8.776  20.303  0.00  0.00    +0.000 A 
ATOM     10  O   UNL     1       0.926   8.747  21.496  0.00  0.00    +0.000 OA
ATOM     11  C   UNL     1       2.168   7.782  19.744  0.00  0.00    +0.000 A 
ENDBRANCH   2   4
BRANCH   1  12
ATOM     12  C   UNL     1       4.346   4.659  17.139  0.00  0.00    +0.000 C 
BRANCH  12  13
ATOM     13  C   UNL     1       5.034   4.851  15.760  0.00  0.00    +0.000 C 
BRANCH  13  15
ATOM     14  C   UNL     1       7.086   4.814  14.397  0.00  0.00    +0.000 C 
ATOM     15  N   UNL     1       6.397   4.308  15.585  0.00  0.00    +0.000 NA
ATOM     16  C   UNL     1       7.206   4.592  16.777  0.00  0.00    +0.000 C 
ENDBRANCH  13  15
ENDBRANCH  12  13
ENDBRANCH   1  12
BRANCH   1  17
ATOM     17  C   UNL     1       1.924   4.872  17.753  0.00  0.00    +0.000 C 
BRANCH  17  18
ATOM     18  C   UNL     1       1.849   4.019  19.008  0.00  0.00    +0.000 A 
ATOM     19  C   UNL     1       1.196   2.776  19.044  0.00  0.00    +0.000 A 
ATOM     20  C   UNL     1       0.970   2.113  20.251  0.00  0.00    +0.000 A 
ATOM     21  C   UNL     1       1.418   2.679  21.433  0.00  0.00    +0.000 A 
ATOM     22  F   UNL     1       1.136   2.082  22.599  0.00  0.00    +0.000 F 
ATOM     23  C   UNL     1       2.130   3.872  21.425  0.00  0.00    +0.000 A 
ATOM     24  C   UNL     1       2.358   4.534  20.215  0.00  0.00    +0.000 A 
ENDBRANCH  17  18
ENDBRANCH   1  17
TORSDOF 6
ENDMDL
MODEL 4
REMARK VINA RESULT:      -6.9      0.674      1.187
REMARK  Name = 
REMARK  9 active torsions:
REMARK  status: ('A' for Active; 'I' for Inactive)
REMARK    1  A    between atoms: C_1  and  N_2
REMARK    2  A    between atoms: N_2  and  C_3
REMARK    3  A    between atoms: N_2  and  C_4
REMARK    4  A    between atoms: C_4  and  C_5
REMARK    5  A    between atoms: C_5  and  N_6
REMARK    6  A    between atoms: N_6  and  C_7
REMARK    7  A    between atoms: C_7  and  C_8
REMARK    8  A    between atoms: C_15  and  C_17
REMARK    9  A    between atoms: N_20  and  C_21
REMARK                            x       y       z     vdW  Elec       q    Type
REMARK                         _______ _______ _______ _____ _____    ______ ____
ROOT
ATOM      1  N   UNL     1       3.489   5.305  17.219  0.00  0.00    +0.000 N 
ATOM      2  C   UNL     1       3.805   6.569  17.751  0.00  0.00    +0.000 C 
ATOM      3  O   UNL     1       4.973   6.976  17.772  0.00  0.00    +0.000 OA
ENDROOT
BRANCH   2   4
ATOM      4  C   UNL     1       2.750   7.470  18.342  0.00  0.00    +0.000 A 
ATOM      5  C   UNL     1       2.153   8.582  17.644  0.00  0.00    +0.000 A 
ATOM      6  C   UNL     1       1.255   9.378  18.227  0.00  0.00    +0.000 A 
ATOM      7  N   UNL     1       0.921   9.203  19.547  0.00  0.00    +0.000 N 
ATOM      8  C   UNL     1       0.009  10.149  20.178  0.00  0.00    +0.000 C 
ATOM      9  C   UNL     1       1.517   8.229  20.345  0.00  0.00    +0.000 A 
ATOM     10  O   UNL     1       1.299   8.083  21.543  0.00  0.00    +0.000 OA
ATOM     11  C   UNL     1       2.480   7.325  19.653  0.00  0.00    +0.000 A 
ENDBRANCH   2   4
BRANCH   1  12
ATOM     12  C   UNL     1       4.637   4.506  16.734  0.00  0.00    +0.000 C 
BRANCH  12  13
ATOM     13  C   UNL     1       4.963   4.537  15.215  0.00  0.00    +0.000 C 
BRANCH  13  15
ATOM     14  C   UNL     1       6.379   3.823  13.330  0.00  0.00    +0.000 C 
ATOM     15  N   UNL     1       6.272   4.009  14.778  0.00  0.00    +0.000 NA
ATOM     16  C   UNL     1       7.348   4.895  15.238  0.00  0.00    +0.000 C 
ENDBRANCH  13  15
ENDBRANCH  12  13
ENDBRANCH   1  12
BRANCH   1  17
ATOM     17  C   UNL     1       2.273   4.546  17.569  0.00  0.00    +0.000 C 
BRANCH  17  18
ATOM     18  C   UNL     1       2.213   3.960  18.970  0.00  0.00    +0.000 A 
ATOM     19  C   UNL     1       3.325   3.374  19.596  0.00  0.00    +0.000 A 
ATOM     20  C   UNL     1       3.192   2.669  20.793  0.00  0.00    +0.000 A 
ATOM     21  C   UNL     1       1.945   2.564  21.386  0.00  0.00    +0.000 A 
ATOM     22  F   UNL     1       1.801   1.824  22.494  0.00  0.00    +0.000 F 
ATOM     23  C   UNL     1       0.838   3.192  20.830  0.00  0.00    +0.000 A 
ATOM     24  C   UNL     1       0.973   3.901  19.632  0.00  0.00    +0.000 A 
ENDBRANCH  17  18
ENDBRANCH   1  17
TORSDOF 6
ENDMDL
MODEL 5
REMARK VINA RESULT:      -6.8      0.931      1.352
REMARK  Name = 
REMARK  9 active torsions:
REMARK  status: ('A' for Active; 'I' for Inactive)
REMARK    1  A    between atoms: C_1  and  N_2
REMARK    2  A    between atoms: N_2  and  C_3
REMARK    3  A    between atoms: N_2  and  C_4
REMARK    4  A    between atoms: C_4  and  C_5
REMARK    5  A    between atoms: C_5  and  N_6
REMARK    6  A    between atoms: N_6  and  C_7
REMARK    7  A    between atoms: C_7  and  C_8
REMARK    8  A    between atoms: C_15  and  C_17
REMARK    9  A    between atoms: N_20  and  C_21
REMARK                            x       y       z     vdW  Elec       q    Type
REMARK                         _______ _______ _______ _____ _____    ______ ____
ROOT
ATOM      1  N   UNL     1       4.295   4.792  17.249  0.00  0.00    +0.000 N 
ATOM      2  C   UNL     1       4.634   5.902  18.044  0.00  0.00    +0.000 C 
ATOM      3  O   UNL     1       5.809   6.117  18.368  0.00  0.00    +0.000 OA
ENDROOT
BRANCH   2   4
ATOM      4  C   UNL     1       3.591   6.860  18.561  0.00  0.00    +0.000 A 
ATOM      5  C   UNL     1       2.841   6.659  19.777  0.00  0.00    +0.000 A 
ATOM      6  C   UNL     1       1.896   7.515  20.169  0.00  0.00    +0.000 A 
ATOM      7  N   UNL     1       1.555   8.586  19.383  0.00  0.00    +0.000 N 
ATOM      8  C   UNL     1       0.453   9.447  19.796  0.00  0.00    +0.000 C 
ATOM      9  C   UNL     1       2.139   8.815  18.138  0.00  0.00    +0.000 A 
ATOM     10  O   UNL     1       1.817   9.719  17.375  0.00  0.00    +0.000 OA
ATOM     11  C   UNL     1       3.225   7.870  17.750  0.00  0.00    +0.000 A 
ENDBRANCH   2   4
BRANCH   1  12
ATOM     12  C   UNL     1       5.418   3.905  16.871  0.00  0.00    +0.000 C 
BRANCH  12  13
ATOM     13  C   UNL     1       5.468   3.363  15.416  0.00  0.00    +0.000 C 
BRANCH  13  15
ATOM     14  C   UNL     1       6.237   3.819  13.120  0.00  0.00    +0.000 C 
ATOM     15  N   UNL     1       6.571   3.820  14.545  0.00  0.00    +0.000 NA
ATOM     16  C   UNL     1       7.001   5.165  14.946  0.00  0.00    +0.000 C 
ENDBRANCH  13  15
ENDBRANCH  12  13
ENDBRANCH   1  12
BRANCH   1  17
ATOM     17  C   UNL     1       2.950   4.187  17.212  0.00  0.00    +0.000 C 
BRANCH  17  18
ATOM     18  C   UNL     1       2.443   3.572  18.506  0.00  0.00    +0.000 A 
ATOM     19  C   UNL     1       1.096   3.630  18.897  0.00  0.00    +0.000 A 
ATOM     20  C   UNL     1       0.696   3.237  20.175  0.00  0.00    +0.000 A 
ATOM     21  C   UNL     1       1.642   2.760  21.067  0.00  0.00    +0.000 A 
ATOM     22  F   UNL     1       1.273   2.455  22.319  0.00  0.00    +0.000 F 
ATOM     23  C   UNL     1       2.971   2.624  20.689  0.00  0.00    +0.000 A 
ATOM     24  C   UNL     1       3.370   3.015  19.407  0.00  0.00    +0.000 A 
ENDBRANCH  17  18
ENDBRANCH   1  17
TORSDOF 6
ENDMDL
MODEL 6
REMARK VINA RESULT:      -6.8      1.620      1.891
REMARK  Name = 
REMARK  9 active torsions:
REMARK  status: ('A' for Active; 'I' for Inactive)
REMARK    1  A    between atoms: C_1  and  N_2
REMARK    2  A    between atoms: N_2  and  C_3
REMARK    3  A    between atoms: N_2  and  C_4
REMARK    4  A    between atoms: C_4  and  C_5
REMARK    5  A    between atoms: C_5  and  N_6
REMARK    6  A    between atoms: N_6  and  C_7
REMARK    7  A    between atoms: C_7  and  C_8
REMARK    8  A    between atoms: C_15  and  C_17
REMARK    9  A    between atoms: N_20  and  C_21
REMARK                            x       y       z     vdW  Elec       q    Type
REMARK                         _______ _______ _______ _____ _____    ______ ____
ROOT
ATOM      1  N   UNL     1       3.161   5.792  17.479  0.00  0.00    +0.000 N 
ATOM      2  C   UNL     1       3.428   7.075  17.990  0.00  0.00    +0.000 C 
ATOM      3  O   UNL     1       4.590   7.494  18.078  0.00  0.00    +0.000 OA
ENDROOT
BRANCH   2   4
ATOM      4  C   UNL     1       2.329   7.984  18.478  0.00  0.00    +0.000 A 
ATOM      5  C   UNL     1       1.673   8.971  17.657  0.00  0.00    +0.000 A 
ATOM      6  C   UNL     1       0.734   9.783  18.148  0.00  0.00    +0.000 A 
ATOM      7  N   UNL     1       0.412   9.750  19.482  0.00  0.00    +0.000 N 
ATOM      8  C   UNL     1      -0.548  10.715  20.003  0.00  0.00    +0.000 C 
ATOM      9  C   UNL     1       1.060   8.911  20.386  0.00  0.00    +0.000 A 
ATOM     10  O   UNL     1       0.851   8.897  21.594  0.00  0.00    +0.000 OA
ATOM     11  C   UNL     1       2.069   7.983  19.799  0.00  0.00    +0.000 A 
ENDBRANCH   2   4
BRANCH   1  12
ATOM     12  C   UNL     1       4.346   4.990  17.101  0.00  0.00    +0.000 C 
BRANCH  12  13
ATOM     13  C   UNL     1       5.179   4.332  18.234  0.00  0.00    +0.000 C 
BRANCH  13  15
ATOM     14  C   UNL     1       7.157   4.692  16.809  0.00  0.00    +0.000 C 
ATOM     15  N   UNL     1       6.651   4.433  18.159  0.00  0.00    +0.000 NA
ATOM     16  C   UNL     1       7.128   5.482  19.069  0.00  0.00    +0.000 C 
ENDBRANCH  13  15
ENDBRANCH  12  13
ENDBRANCH   1  12
BRANCH   1  17
ATOM     17  C   UNL     1       1.930   5.032  17.770  0.00  0.00    +0.000 C 
BRANCH  17  18
ATOM     18  C   UNL     1       1.959   4.124  18.989  0.00  0.00    +0.000 A 
ATOM     19  C   UNL     1       1.686   2.749  18.918  0.00  0.00    +0.000 A 
ATOM     20  C   UNL     1       1.523   1.984  20.073  0.00  0.00    +0.000 A 
ATOM     21  C   UNL     1       1.654   2.587  21.313  0.00  0.00    +0.000 A 
ATOM     22  F   UNL     1       1.423   1.872  22.423  0.00  0.00    +0.000 F 
ATOM     23  C   UNL     1       1.994   3.930  21.418  0.00  0.00    +0.000 A 
ATOM     24  C   UNL     1       2.160   4.695  20.260  0.00  0.00    +0.000 A 
ENDBRANCH  17  18
ENDBRANCH   1  17
TORSDOF 6
ENDMDL
MODEL 7
REMARK VINA RESULT:      -6.7      0.973      1.830
REMARK  Name = 
REMARK  9 active torsions:
REMARK  status: ('A' for Active; 'I' for Inactive)
REMARK    1  A    between atoms: C_1  and  N_2
REMARK    2  A    between atoms: N_2  and  C_3
REMARK    3  A    between atoms: N_2  and  C_4
REMARK    4  A    between atoms: C_4  and  C_5
REMARK    5  A    between atoms: C_5  and  N_6
REMARK    6  A    between atoms: N_6  and  C_7
REMARK    7  A    between atoms: C_7  and  C_8
REMARK    8  A    between atoms: C_15  and  C_17
REMARK    9  A    between atoms: N_20  and  C_21
REMARK                            x       y       z     vdW  Elec       q    Type
REMARK                         _______ _______ _______ _____ _____    ______ ____
ROOT
ATOM      1  N   UNL     1       4.090   4.818  17.171  0.00  0.00    +0.000 N 
ATOM      2  C   UNL     1       4.494   6.003  17.811  0.00  0.00    +0.000 C 
ATOM      3  O   UNL     1       5.693   6.284  17.932  0.00  0.00    +0.000 OA
ENDROOT
BRANCH   2   4
ATOM      4  C   UNL     1       3.498   6.968  18.403  0.00  0.00    +0.000 A 
ATOM      5  C   UNL     1       2.825   6.763  19.663  0.00  0.00    +0.000 A 
ATOM      6  C   UNL     1       1.917   7.626  20.124  0.00  0.00    +0.000 A 
ATOM      7  N   UNL     1       1.540   8.709  19.371  0.00  0.00    +0.000 N 
ATOM      8  C   UNL     1       0.477   9.578  19.862  0.00  0.00    +0.000 C 
ATOM      9  C   UNL     1       2.045   8.944  18.093  0.00  0.00    +0.000 A 
ATOM     10  O   UNL     1       1.686   9.859  17.361  0.00  0.00    +0.000 OA
ATOM     11  C   UNL     1       3.092   7.990  17.627  0.00  0.00    +0.000 A 
ENDBRANCH   2   4
BRANCH   1  12
ATOM     12  C   UNL     1       5.183   3.938  16.698  0.00  0.00    +0.000 C 
BRANCH  12  13
ATOM     13  C   UNL     1       5.216   3.554  15.193  0.00  0.00    +0.000 C 
BRANCH  13  15
ATOM     14  C   UNL     1       7.196   4.978  14.838  0.00  0.00    +0.000 C 
ATOM     15  N   UNL     1       5.960   4.437  14.270  0.00  0.00    +0.000 NA
ATOM     16  C   UNL     1       6.267   3.717  13.028  0.00  0.00    +0.000 C 
ENDBRANCH  13  15
ENDBRANCH  12  13
ENDBRANCH   1  12
BRANCH   1  17
ATOM     17  C   UNL     1       2.784   4.168  17.391  0.00  0.00    +0.000 C 
BRANCH  17  18
ATOM     18  C   UNL     1       2.469   3.733  18.813  0.00  0.00    +0.000 A 
ATOM     19  C   UNL     1       3.432   3.170  19.666  0.00  0.00    +0.000 A 
ATOM     20  C   UNL     1       3.071   2.598  20.886  0.00  0.00    +0.000 A 
ATOM     21  C   UNL     1       1.741   2.606  21.274  0.00  0.00    +0.000 A 
ATOM     22  F   UNL     1       1.381   1.990  22.409  0.00  0.00    +0.000 F 
ATOM     23  C   UNL     1       0.774   3.217  20.487  0.00  0.00    +0.000 A 
ATOM     24  C   UNL     1       1.138   3.792  19.265  0.00  0.00    +0.000 A 
ENDBRANCH  17  18
ENDBRANCH   1  17
TORSDOF 6
ENDMDL
MODEL 8
REMARK VINA RESULT:      -6.7      3.165      5.712
REMARK  Name = 
REMARK  9 active torsions:
REMARK  status: ('A' for Active; 'I' for Inactive)
REMARK    1  A    between atoms: C_1  and  N_2
REMARK    2  A    between atoms: N_2  and  C_3
REMARK    3  A    between atoms: N_2  and  C_4
REMARK    4  A    between atoms: C_4  and  C_5
REMARK    5  A    between atoms: C_5  and  N_6
REMARK    6  A    between atoms: N_6  and  C_7
REMARK    7  A    between atoms: C_7  and  C_8
REMARK    8  A    between atoms: C_15  and  C_17
REMARK    9  A    between atoms: N_20  and  C_21
REMARK                            x       y       z     vdW  Elec       q    Type
REMARK                         _______ _______ _______ _____ _____    ______ ____
ROOT
ATOM      1  N   UNL     1       2.739   4.869  18.139  0.00  0.00    +0.000 N 
ATOM      2  C   UNL     1       3.981   4.687  17.504  0.00  0.00    +0.000 C 
ATOM      3  O   UNL     1       4.159   3.752  16.713  0.00  0.00    +0.000 OA
ENDROOT
BRANCH   2   4
ATOM      4  C   UNL     1       5.154   5.595  17.773  0.00  0.00    +0.000 A 
ATOM      5  C   UNL     1       5.420   6.810  17.043  0.00  0.00    +0.000 A 
ATOM      6  C   UNL     1       6.497   7.558  17.290  0.00  0.00    +0.000 A 
ATOM      7  N   UNL     1       7.432   7.151  18.208  0.00  0.00    +0.000 N 
ATOM      8  C   UNL     1       8.644   7.943  18.384  0.00  0.00    +0.000 C 
ATOM      9  C   UNL     1       7.331   5.941  18.892  0.00  0.00    +0.000 A 
ATOM     10  O   UNL     1       8.175   5.508  19.668  0.00  0.00    +0.000 OA
ATOM     11  C   UNL     1       6.093   5.152  18.630  0.00  0.00    +0.000 A 
ENDBRANCH   2   4
BRANCH   1  12
ATOM     12  C   UNL     1       1.702   3.860  17.825  0.00  0.00    +0.000 C 
BRANCH  12  13
ATOM     13  C   UNL     1       0.889   3.253  19.001  0.00  0.00    +0.000 C 
BRANCH  13  15
ATOM     14  C   UNL     1       2.797   1.714  19.244  0.00  0.00    +0.000 C 
ATOM     15  N   UNL     1       1.502   2.150  19.769  0.00  0.00    +0.000 NA
ATOM     16  C   UNL     1       1.653   2.542  21.176  0.00  0.00    +0.000 C 
ENDBRANCH  13  15
ENDBRANCH  12  13
ENDBRANCH   1  12
BRANCH   1  17
ATOM     17  C   UNL     1       2.563   5.607  19.405  0.00  0.00    +0.000 C 
BRANCH  17  18
ATOM     18  C   UNL     1       2.007   7.018  19.302  0.00  0.00    +0.000 A 
ATOM     19  C   UNL     1       2.084   7.780  18.125  0.00  0.00    +0.000 A 
ATOM     20  C   UNL     1       1.750   9.134  18.118  0.00  0.00    +0.000 A 
ATOM     21  C   UNL     1       1.312   9.733  19.288  0.00  0.00    +0.000 A 
ATOM     22  F   UNL     1       1.063  11.050  19.302  0.00  0.00    +0.000 F 
ATOM     23  C   UNL     1       1.157   8.991  20.452  0.00  0.00    +0.000 A 
ATOM     24  C   UNL     1       1.490   7.633  20.457  0.00  0.00    +0.000 A 
ENDBRANCH  17  18
ENDBRANCH   1  17
TORSDOF 6
ENDMDL
MODEL 9
REMARK VINA RESULT:      -6.6      2.900      5.175
REMARK  Name = 
REMARK  9 active torsions:
REMARK  status: ('A' for Active; 'I' for Inactive)
REMARK    1  A    between atoms: C_1  and  N_2
REMARK    2  A    between atoms: N_2  and  C_3
REMARK    3  A    between atoms: N_2  and  C_4
REMARK    4  A    between atoms: C_4  and  C_5
REMARK    5  A    between atoms: C_5  and  N_6
REMARK    6  A    between atoms: N_6  and  C_7
REMARK    7  A    between atoms: C_7  and  C_8
REMARK    8  A    between atoms: C_15  and  C_17
REMARK    9  A    between atoms: N_20  and  C_21
REMARK                            x       y       z     vdW  Elec       q    Type
REMARK                         _______ _______ _______ _____ _____    ______ ____
ROOT
ATOM      1  N   UNL     1       3.406   4.946  19.244  0.00  0.00    +0.000 N 
ATOM      2  C   UNL     1       2.690   5.668  20.216  0.00  0.00    +0.000 C 
ATOM      3  O   UNL     1       2.432   5.166  21.318  0.00  0.00    +0.000 OA
ENDROOT
BRANCH   2   4
ATOM      4  C   UNL     1       2.181   7.063  19.958  0.00  0.00    +0.000 A 
ATOM      5  C   UNL     1       1.333   7.795  20.867  0.00  0.00    +0.000 A 
ATOM      6  C   UNL     1       0.872   9.012  20.572  0.00  0.00    +0.000 A 
ATOM      7  N   UNL     1       1.135   9.581  19.352  0.00  0.00    +0.000 N 
ATOM      8  C   UNL     1       0.536  10.870  19.027  0.00  0.00    +0.000 C 
ATOM      9  C   UNL     1       1.852   8.918  18.358  0.00  0.00    +0.000 A 
ATOM     10  O   UNL     1       2.052   9.361  17.232  0.00  0.00    +0.000 OA
ATOM     11  C   UNL     1       2.394   7.581  18.734  0.00  0.00    +0.000 A 
ENDBRANCH   2   4
BRANCH   1  12
ATOM     12  C   UNL     1       3.784   3.564  19.617  0.00  0.00    +0.000 C 
BRANCH  12  13
ATOM     13  C   UNL     1       3.028   2.389  18.940  0.00  0.00    +0.000 C 
BRANCH  13  15
ATOM     14  C   UNL     1       1.586   2.264  20.933  0.00  0.00    +0.000 C 
ATOM     15  N   UNL     1       1.721   1.992  19.501  0.00  0.00    +0.000 NA
ATOM     16  C   UNL     1       0.638   2.663  18.772  0.00  0.00    +0.000 C 
ENDBRANCH  13  15
ENDBRANCH  12  13
ENDBRANCH   1  12
BRANCH   1  17
ATOM     17  C   UNL     1       3.348   5.234  17.798  0.00  0.00    +0.000 C 
BRANCH  17  18
ATOM     18  C   UNL     1       4.646   5.089  17.021  0.00  0.00    +0.000 A 
ATOM     19  C   UNL     1       5.743   5.945  17.208  0.00  0.00    +0.000 A 
ATOM     20  C   UNL     1       6.839   5.916  16.345  0.00  0.00    +0.000 A 
ATOM     21  C   UNL     1       6.855   5.010  15.296  0.00  0.00    +0.000 A 
ATOM     22  F   UNL     1       7.870   5.031  14.422  0.00  0.00    +0.000 F 
ATOM     23  C   UNL     1       5.818   4.101  15.125  0.00  0.00    +0.000 A 
ATOM     24  C   UNL     1       4.722   4.130  15.993  0.00  0.00    +0.000 A 
ENDBRANCH  17  18
ENDBRANCH   1  17
TORSDOF 6
ENDMDL
