MODEL 1
REMARK VINA RESULT:      -9.6      0.000      0.000
REMARK  Name = 
REMARK  8 active torsions:
REMARK  status: ('A' for Active; 'I' for Inactive)
REMARK    1  A    between atoms: C_1  and  C_2
REMARK    2  A    between atoms: C_5  and  C_6
REMARK    3  A    between atoms: C_8  and  C_9
REMARK    4  A    between atoms: C_9  and  C_10
REMARK    5  A    between atoms: C_9  and  C_11
REMARK    6  A    between atoms: N_12  and  C_13
REMARK    7  A    between atoms: C_16  and  C_17
REMARK    8  A    between atoms: C_23  and  C_24
REMARK                            x       y       z     vdW  Elec       q    Type
REMARK                         _______ _______ _______ _____ _____    ______ ____
ROOT
ATOM      1  C   UNL     1       2.712   6.819  18.606  0.00  0.00    +0.000 A 
ATOM      2  C   UNL     1       2.365   7.999  17.943  0.00  0.00    +0.000 A 
ATOM      3  C   UNL     1       1.662   9.001  18.627  0.00  0.00    +0.000 A 
ATOM      4  C   UNL     1       1.378   8.870  19.992  0.00  0.00    +0.000 A 
ATOM      5  C   UNL     1       1.647   7.652  20.621  0.00  0.00    +0.000 A 
ATOM      6  C   UNL     1       2.268   6.624  19.918  0.00  0.00    +0.000 A 
ENDROOT
BRANCH   4   7
ATOM      7  C   UNL     1       0.730   9.921  20.822  0.00  0.00    +0.000 C 
ATOM      8  O   UNL     1       1.326  10.250  21.851  0.00  0.00    +0.000 OA
ATOM      9  N   UNL     1      -0.462  10.532  20.430  0.00  0.00    +0.000 N 
ATOM     10  C   UNL     1      -1.205  10.312  19.190  0.00  0.00    +0.000 C 
ATOM     11  C   UNL     1      -1.576  11.609  18.481  0.00  0.00    +0.000 C 
ATOM     12  C   UNL     1      -2.171  12.648  19.423  0.00  0.00    +0.000 C 
ATOM     13  C   UNL     1      -1.335  12.835  20.697  0.00  0.00    +0.000 C 
ATOM     14  C   UNL     1      -0.021  13.570  20.420  0.00  0.00    +0.000 C 
ATOM     15  C   UNL     1      -1.078  11.478  21.360  0.00  0.00    +0.000 C 
ENDBRANCH   4   7
BRANCH   1  19
ATOM     16  C   UNL     1       4.859   5.059  16.495  0.00  0.00    +0.000 A 
ATOM     17  C   UNL     1       4.174   3.947  17.023  0.00  0.00    +0.000 A 
ATOM     18  C   UNL     1       3.371   4.439  18.025  0.00  0.00    +0.000 A 
ATOM     19  N   UNL     1       3.490   5.824  17.948  0.00  0.00    +0.000 N 
ATOM     20  N   UNL     1       4.515   6.186  17.125  0.00  0.00    +0.000 NA
BRANCH  16  25
ATOM     21  C   UNL     1       7.041   4.052  12.193  0.00  0.00    +0.000 C 
ATOM     22  C   UNL     1       6.893   4.548  13.571  0.00  0.00    +0.000 A 
ATOM     23  N   UNL     1       7.693   5.330  14.258  0.00  0.00    +0.000 NA
ATOM     24  N   UNL     1       7.042   5.593  15.443  0.00  0.00    +0.000 NA
ATOM     25  C   UNL     1       5.883   4.956  15.403  0.00  0.00    +0.000 A 
ATOM     26  O   UNL     1       5.738   4.237  14.237  0.00  0.00    +0.000 OA
ENDBRANCH  16  25
BRANCH  18  27
ATOM     27  C   UNL     1       2.543   3.677  19.034  0.00  0.00    +0.000 C 
ATOM     28  C   UNL     1       1.252   3.171  18.396  0.00  0.00    +0.000 C 
ATOM     29  C   UNL     1       3.329   2.524  19.668  0.00  0.00    +0.000 C 
ENDBRANCH  18  27
ENDBRANCH   1  19
TORSDOF 4
ENDMDL
MODEL 2
REMARK VINA RESULT:      -9.4      0.657      1.151
REMARK  Name = 
REMARK  8 active torsions:
REMARK  status: ('A' for Active; 'I' for Inactive)
REMARK    1  A    between atoms: C_1  and  C_2
REMARK    2  A    between atoms: C_5  and  C_6
REMARK    3  A    between atoms: C_8  and  C_9
REMARK    4  A    between atoms: C_9  and  C_10
REMARK    5  A    between atoms: C_9  and  C_11
REMARK    6  A    between atoms: N_12  and  C_13
REMARK    7  A    between atoms: C_16  and  C_17
REMARK    8  A    between atoms: C_23  and  C_24
REMARK                            x       y       z     vdW  Elec       q    Type
REMARK                         _______ _______ _______ _____ _____    ______ ____
ROOT
ATOM      1  C   UNL     1       2.870   7.017  18.512  0.00  0.00    +0.000 A 
ATOM      2  C   UNL     1       2.422   6.862  19.828  0.00  0.00    +0.000 A 
ATOM      3  C   UNL     1       1.696   7.892  20.441  0.00  0.00    +0.000 A 
ATOM      4  C   UNL     1       1.339   9.040  19.724  0.00  0.00    +0.000 A 
ATOM      5  C   UNL     1       1.867   9.225  18.445  0.00  0.00    +0.000 A 
ATOM      6  C   UNL     1       2.661   8.240  17.867  0.00  0.00    +0.000 A 
ENDROOT
BRANCH   4   7
ATOM      7  C   UNL     1       0.484  10.135  20.258  0.00  0.00    +0.000 C 
ATOM      8  O   UNL     1       0.965  10.808  21.173  0.00  0.00    +0.000 OA
ATOM      9  N   UNL     1      -0.773  10.412  19.718  0.00  0.00    +0.000 N 
ATOM     10  C   UNL     1      -1.407   9.765  18.570  0.00  0.00    +0.000 C 
ATOM     11  C   UNL     1      -1.955  10.761  17.555  0.00  0.00    +0.000 C 
ATOM     12  C   UNL     1      -2.760  11.881  18.200  0.00  0.00    +0.000 C 
ATOM     13  C   UNL     1      -2.032  12.520  19.389  0.00  0.00    +0.000 C 
ATOM     14  C   UNL     1      -0.847  13.382  18.942  0.00  0.00    +0.000 C 
ATOM     15  C   UNL     1      -1.583  11.438  20.376  0.00  0.00    +0.000 C 
ENDBRANCH   4   7
BRANCH   1  19
ATOM     16  C   UNL     1       4.802   5.055  16.371  0.00  0.00    +0.000 A 
ATOM     17  C   UNL     1       4.048   4.011  16.941  0.00  0.00    +0.000 A 
ATOM     18  C   UNL     1       3.319   4.582  17.958  0.00  0.00    +0.000 A 
ATOM     19  N   UNL     1       3.545   5.952  17.850  0.00  0.00    +0.000 N 
ATOM     20  N   UNL     1       4.569   6.217  16.989  0.00  0.00    +0.000 NA
BRANCH  16  25
ATOM     21  C   UNL     1       6.810   3.631  12.103  0.00  0.00    +0.000 C 
ATOM     22  C   UNL     1       6.714   4.268  13.427  0.00  0.00    +0.000 A 
ATOM     23  N   UNL     1       7.528   5.129  13.991  0.00  0.00    +0.000 NA
ATOM     24  N   UNL     1       6.926   5.506  15.170  0.00  0.00    +0.000 NA
ATOM     25  C   UNL     1       5.779   4.853  15.250  0.00  0.00    +0.000 A 
ATOM     26  O   UNL     1       5.596   4.012  14.173  0.00  0.00    +0.000 OA
ENDBRANCH  16  25
BRANCH  18  27
ATOM     27  C   UNL     1       2.467   3.907  19.008  0.00  0.00    +0.000 C 
ATOM     28  C   UNL     1       1.406   3.027  18.351  0.00  0.00    +0.000 C 
ATOM     29  C   UNL     1       3.310   3.099  19.999  0.00  0.00    +0.000 C 
ENDBRANCH  18  27
ENDBRANCH   1  19
TORSDOF 4
ENDMDL
MODEL 3
REMARK VINA RESULT:      -9.3      3.150      9.439
REMARK  Name = 
REMARK  8 active torsions:
REMARK  status: ('A' for Active; 'I' for Inactive)
REMARK    1  A    between atoms: C_1  and  C_2
REMARK    2  A    between atoms: C_5  and  C_6
REMARK    3  A    between atoms: C_8  and  C_9
REMARK    4  A    between atoms: C_9  and  C_10
REMARK    5  A    between atoms: C_9  and  C_11
REMARK    6  A    between atoms: N_12  and  C_13
REMARK    7  A    between atoms: C_16  and  C_17
REMARK    8  A    between atoms: C_23  and  C_24
REMARK                            x       y       z     vdW  Elec       q    Type
REMARK                         _______ _______ _______ _____ _____    ______ ____
ROOT
ATOM      1  C   UNL     1       1.103   9.264  18.899  0.00  0.00    +0.000 A 
ATOM      2  C   UNL     1       1.893   8.960  17.786  0.00  0.00    +0.000 A 
ATOM      3  C   UNL     1       2.757   7.857  17.826  0.00  0.00    +0.000 A 
ATOM      4  C   UNL     1       2.775   7.004  18.936  0.00  0.00    +0.000 A 
ATOM      5  C   UNL     1       2.053   7.367  20.075  0.00  0.00    +0.000 A 
ATOM      6  C   UNL     1       1.261   8.511  20.066  0.00  0.00    +0.000 A 
ENDROOT
BRANCH   4   7
ATOM      7  C   UNL     1       3.580   5.755  19.026  0.00  0.00    +0.000 C 
ATOM      8  O   UNL     1       4.676   5.850  19.583  0.00  0.00    +0.000 OA
ATOM      9  N   UNL     1       3.096   4.537  18.546  0.00  0.00    +0.000 N 
ATOM     10  C   UNL     1       1.779   4.271  17.969  0.00  0.00    +0.000 C 
ATOM     11  C   UNL     1       1.093   3.059  18.587  0.00  0.00    +0.000 C 
ATOM     12  C   UNL     1       2.013   1.851  18.698  0.00  0.00    +0.000 C 
ATOM     13  C   UNL     1       3.371   2.200  19.321  0.00  0.00    +0.000 C 
ATOM     14  C   UNL     1       3.259   2.482  20.822  0.00  0.00    +0.000 C 
ATOM     15  C   UNL     1       3.999   3.386  18.583  0.00  0.00    +0.000 C 
ENDBRANCH   4   7
BRANCH   1  19
ATOM     16  C   UNL     1      -1.710  11.274  18.438  0.00  0.00    +0.000 A 
ATOM     17  C   UNL     1      -0.770  12.311  18.589  0.00  0.00    +0.000 A 
ATOM     18  C   UNL     1       0.409  11.704  18.952  0.00  0.00    +0.000 A 
ATOM     19  N   UNL     1       0.168  10.337  18.848  0.00  0.00    +0.000 N 
ATOM     20  N   UNL     1      -1.162  10.081  18.691  0.00  0.00    +0.000 NA
BRANCH  16  25
ATOM     21  C   UNL     1      -6.451  12.582  18.733  0.00  0.00    +0.000 C 
ATOM     22  C   UNL     1      -5.212  12.044  18.147  0.00  0.00    +0.000 A 
ATOM     23  N   UNL     1      -4.950  11.750  16.895  0.00  0.00    +0.000 NA
ATOM     24  N   UNL     1      -3.619  11.402  16.857  0.00  0.00    +0.000 NA
ATOM     25  C   UNL     1      -3.151  11.508  18.090  0.00  0.00    +0.000 A 
ATOM     26  O   UNL     1      -4.135  11.887  18.976  0.00  0.00    +0.000 OA
ENDBRANCH  16  25
BRANCH  18  27
ATOM     27  C   UNL     1       1.704  12.341  19.402  0.00  0.00    +0.000 C 
ATOM     28  C   UNL     1       2.506  12.832  18.200  0.00  0.00    +0.000 C 
ATOM     29  C   UNL     1       1.466  13.478  20.402  0.00  0.00    +0.000 C 
ENDBRANCH  18  27
ENDBRANCH   1  19
TORSDOF 4
ENDMDL
MODEL 4
REMARK VINA RESULT:      -9.2      1.348      2.155
REMARK  Name = 
REMARK  8 active torsions:
REMARK  status: ('A' for Active; 'I' for Inactive)
REMARK    1  A    between atoms: C_1  and  C_2
REMARK    2  A    between atoms: C_5  and  C_6
REMARK    3  A    between atoms: C_8  and  C_9
REMARK    4  A    between atoms: C_9  and  C_10
REMARK    5  A    between atoms: C_9  and  C_11
REMARK    6  A    between atoms: N_12  and  C_13
REMARK    7  A    between atoms: C_16  and  C_17
REMARK    8  A    between atoms: C_23  and  C_24
REMARK                            x       y       z     vdW  Elec       q    Type
REMARK                         _______ _______ _______ _____ _____    ______ ____
ROOT
ATOM      1  C   UNL     1       2.315   7.766  18.564  0.00  0.00    +0.000 A 
ATOM      2  C   UNL     1       1.965   7.890  19.912  0.00  0.00    +0.000 A 
ATOM      3  C   UNL     1       1.180   8.975  20.330  0.00  0.00    +0.000 A 
ATOM      4  C   UNL     1       0.671   9.889  19.399  0.00  0.00    +0.000 A 
ATOM      5  C   UNL     1       1.101   9.807  18.072  0.00  0.00    +0.000 A 
ATOM      6  C   UNL     1       1.950   8.780  17.674  0.00  0.00    +0.000 A 
ENDROOT
BRANCH   4   7
ATOM      7  C   UNL     1      -0.252  11.007  19.734  0.00  0.00    +0.000 C 
ATOM      8  O   UNL     1      -1.443  10.713  19.862  0.00  0.00    +0.000 OA
ATOM      9  N   UNL     1       0.216  12.306  19.939  0.00  0.00    +0.000 N 
ATOM     10  C   UNL     1       1.606  12.760  19.926  0.00  0.00    +0.000 C 
ATOM     11  C   UNL     1       1.968  13.601  21.144  0.00  0.00    +0.000 C 
ATOM     12  C   UNL     1       0.934  14.676  21.449  0.00  0.00    +0.000 C 
ATOM     13  C   UNL     1      -0.500  14.128  21.456  0.00  0.00    +0.000 C 
ATOM     14  C   UNL     1      -0.775  13.256  22.685  0.00  0.00    +0.000 C 
ATOM     15  C   UNL     1      -0.776  13.358  20.162  0.00  0.00    +0.000 C 
ENDBRANCH   4   7
BRANCH   1  19
ATOM     16  C   UNL     1       4.437   5.566  16.885  0.00  0.00    +0.000 A 
ATOM     17  C   UNL     1       3.634   4.596  17.515  0.00  0.00    +0.000 A 
ATOM     18  C   UNL     1       2.815   5.285  18.378  0.00  0.00    +0.000 A 
ATOM     19  N   UNL     1       3.049   6.632  18.112  0.00  0.00    +0.000 N 
ATOM     20  N   UNL     1       4.147   6.795  17.321  0.00  0.00    +0.000 NA
BRANCH  16  25
ATOM     21  C   UNL     1       6.767   3.866  12.889  0.00  0.00    +0.000 C 
ATOM     22  C   UNL     1       6.588   4.518  14.197  0.00  0.00    +0.000 A 
ATOM     23  N   UNL     1       7.429   5.269  14.869  0.00  0.00    +0.000 NA
ATOM     24  N   UNL     1       6.737   5.728  15.966  0.00  0.00    +0.000 NA
ATOM     25  C   UNL     1       5.513   5.231  15.893  0.00  0.00    +0.000 A 
ATOM     26  O   UNL     1       5.361   4.415  14.794  0.00  0.00    +0.000 OA
ENDBRANCH  16  25
BRANCH  18  27
ATOM     27  C   UNL     1       1.869   4.742  19.424  0.00  0.00    +0.000 C 
ATOM     28  C   UNL     1       1.166   3.488  18.912  0.00  0.00    +0.000 C 
ATOM     29  C   UNL     1       2.581   4.466  20.753  0.00  0.00    +0.000 C 
ENDBRANCH  18  27
ENDBRANCH   1  19
TORSDOF 4
ENDMDL
MODEL 5
REMARK VINA RESULT:      -9.0      2.608      9.776
REMARK  Name = 
REMARK  8 active torsions:
REMARK  status: ('A' for Active; 'I' for Inactive)
REMARK    1  A    between atoms: C_1  and  C_2
REMARK    2  A    between atoms: C_5  and  C_6
REMARK    3  A    between atoms: C_8  and  C_9
REMARK    4  A    between atoms: C_9  and  C_10
REMARK    5  A    between atoms: C_9  and  C_11
REMARK    6  A    between atoms: N_12  and  C_13
REMARK    7  A    between atoms: C_16  and  C_17
REMARK    8  A    between atoms: C_23  and  C_24
REMARK                            x       y       z     vdW  Elec       q    Type
REMARK                         _______ _______ _______ _____ _____    ______ ____
ROOT
ATOM      1  C   UNL     1       0.953   9.492  19.280  0.00  0.00    +0.000 A 
ATOM      2  C   UNL     1       1.475   9.500  17.983  0.00  0.00    +0.000 A 
ATOM      3  C   UNL     1       2.352   8.484  17.580  0.00  0.00    +0.000 A 
ATOM      4  C   UNL     1       2.645   7.413  18.432  0.00  0.00    +0.000 A 
ATOM      5  C   UNL     1       2.193   7.461  19.752  0.00  0.00    +0.000 A 
ATOM      6  C   UNL     1       1.392   8.515  20.180  0.00  0.00    +0.000 A 
ENDROOT
BRANCH   4   7
ATOM      7  C   UNL     1       3.480   6.240  18.054  0.00  0.00    +0.000 C 
ATOM      8  O   UNL     1       4.702   6.406  18.087  0.00  0.00    +0.000 OA
ATOM      9  N   UNL     1       2.909   5.009  17.728  0.00  0.00    +0.000 N 
ATOM     10  C   UNL     1       1.490   4.654  17.758  0.00  0.00    +0.000 C 
ATOM     11  C   UNL     1       1.219   3.354  18.505  0.00  0.00    +0.000 C 
ATOM     12  C   UNL     1       2.164   2.231  18.100  0.00  0.00    +0.000 C 
ATOM     13  C   UNL     1       3.635   2.670  18.100  0.00  0.00    +0.000 C 
ATOM     14  C   UNL     1       4.177   2.863  19.520  0.00  0.00    +0.000 C 
ATOM     15  C   UNL     1       3.803   3.946  17.269  0.00  0.00    +0.000 C 
ENDBRANCH   4   7
BRANCH   1  19
ATOM     16  C   UNL     1      -0.895  11.900  20.998  0.00  0.00    +0.000 A 
ATOM     17  C   UNL     1      -1.857  11.602  20.014  0.00  0.00    +0.000 A 
ATOM     18  C   UNL     1      -1.236  10.765  19.118  0.00  0.00    +0.000 A 
ATOM     19  N   UNL     1       0.004  10.474  19.682  0.00  0.00    +0.000 N 
ATOM     20  N   UNL     1       0.267  11.291  20.742  0.00  0.00    +0.000 NA
BRANCH  16  25
ATOM     21  C   UNL     1      -3.120  14.316  24.672  0.00  0.00    +0.000 C 
ATOM     22  C   UNL     1      -2.047  13.917  23.746  0.00  0.00    +0.000 A 
ATOM     23  N   UNL     1      -0.761  14.174  23.812  0.00  0.00    +0.000 NA
ATOM     24  N   UNL     1      -0.180  13.475  22.778  0.00  0.00    +0.000 NA
ATOM     25  C   UNL     1      -1.149  12.830  22.148  0.00  0.00    +0.000 A 
ATOM     26  O   UNL     1      -2.382  13.098  22.702  0.00  0.00    +0.000 OA
ENDBRANCH  16  25
BRANCH  18  27
ATOM     27  C   UNL     1      -1.739  10.264  17.784  0.00  0.00    +0.000 C 
ATOM     28  C   UNL     1      -3.046   9.495  17.958  0.00  0.00    +0.000 C 
ATOM     29  C   UNL     1      -1.903  11.401  16.769  0.00  0.00    +0.000 C 
ENDBRANCH  18  27
ENDBRANCH   1  19
TORSDOF 4
ENDMDL
MODEL 6
REMARK VINA RESULT:      -8.9      1.403      1.923
REMARK  Name = 
REMARK  8 active torsions:
REMARK  status: ('A' for Active; 'I' for Inactive)
REMARK    1  A    between atoms: C_1  and  C_2
REMARK    2  A    between atoms: C_5  and  C_6
REMARK    3  A    between atoms: C_8  and  C_9
REMARK    4  A    between atoms: C_9  and  C_10
REMARK    5  A    between atoms: C_9  and  C_11
REMARK    6  A    between atoms: N_12  and  C_13
REMARK    7  A    between atoms: C_16  and  C_17
REMARK    8  A    between atoms: C_23  and  C_24
REMARK                            x       y       z     vdW  Elec       q    Type
REMARK                         _______ _______ _______ _____ _____    ______ ____
ROOT
ATOM      1  C   UNL     1       2.134   7.719  18.720  0.00  0.00    +0.000 A 
ATOM      2  C   UNL     1       1.613   8.633  17.799  0.00  0.00    +0.000 A 
ATOM      3  C   UNL     1       0.913   9.759  18.255  0.00  0.00    +0.000 A 
ATOM      4  C   UNL     1       0.804  10.026  19.626  0.00  0.00    +0.000 A 
ATOM      5  C   UNL     1       1.247   9.063  20.535  0.00  0.00    +0.000 A 
ATOM      6  C   UNL     1       1.865   7.903  20.080  0.00  0.00    +0.000 A 
ENDROOT
BRANCH   4   7
ATOM      7  C   UNL     1       0.172  11.245  20.198  0.00  0.00    +0.000 C 
ATOM      8  O   UNL     1      -0.452  11.095  21.251  0.00  0.00    +0.000 OA
ATOM      9  N   UNL     1       0.321  12.497  19.599  0.00  0.00    +0.000 N 
ATOM     10  C   UNL     1       1.121  12.826  18.420  0.00  0.00    +0.000 C 
ATOM     11  C   UNL     1       2.032  14.029  18.636  0.00  0.00    +0.000 C 
ATOM     12  C   UNL     1       1.314  15.204  19.286  0.00  0.00    +0.000 C 
ATOM     13  C   UNL     1       0.504  14.789  20.522  0.00  0.00    +0.000 C 
ATOM     14  C   UNL     1       1.405  14.444  21.711  0.00  0.00    +0.000 C 
ATOM     15  C   UNL     1      -0.421  13.618  20.175  0.00  0.00    +0.000 C 
ENDBRANCH   4   7
BRANCH   1  19
ATOM     16  C   UNL     1       4.338   5.589  17.057  0.00  0.00    +0.000 A 
ATOM     17  C   UNL     1       3.571   4.594  17.694  0.00  0.00    +0.000 A 
ATOM     18  C   UNL     1       2.726   5.258  18.551  0.00  0.00    +0.000 A 
ATOM     19  N   UNL     1       2.910   6.611  18.276  0.00  0.00    +0.000 N 
ATOM     20  N   UNL     1       4.002   6.810  17.485  0.00  0.00    +0.000 NA
BRANCH  16  25
ATOM     21  C   UNL     1       6.734   3.950  13.075  0.00  0.00    +0.000 C 
ATOM     22  C   UNL     1       6.529   4.603  14.378  0.00  0.00    +0.000 A 
ATOM     23  N   UNL     1       7.341   5.390  15.046  0.00  0.00    +0.000 NA
ATOM     24  N   UNL     1       6.631   5.831  16.139  0.00  0.00    +0.000 NA
ATOM     25  C   UNL     1       5.427   5.287  16.069  0.00  0.00    +0.000 A 
ATOM     26  O   UNL     1       5.306   4.459  14.975  0.00  0.00    +0.000 OA
ENDBRANCH  16  25
BRANCH  18  27
ATOM     27  C   UNL     1       1.801   4.687  19.601  0.00  0.00    +0.000 C 
ATOM     28  C   UNL     1       1.115   3.426  19.081  0.00  0.00    +0.000 C 
ATOM     29  C   UNL     1       2.530   4.410  20.919  0.00  0.00    +0.000 C 
ENDBRANCH  18  27
ENDBRANCH   1  19
TORSDOF 4
ENDMDL
MODEL 7
REMARK VINA RESULT:      -8.8      2.719      9.820
REMARK  Name = 
REMARK  8 active torsions:
REMARK  status: ('A' for Active; 'I' for Inactive)
REMARK    1  A    between atoms: C_1  and  C_2
REMARK    2  A    between atoms: C_5  and  C_6
REMARK    3  A    between atoms: C_8  and  C_9
REMARK    4  A    between atoms: C_9  and  C_10
REMARK    5  A    between atoms: C_9  and  C_11
REMARK    6  A    between atoms: N_12  and  C_13
REMARK    7  A    between atoms: C_16  and  C_17
REMARK    8  A    between atoms: C_23  and  C_24
REMARK                            x       y       z     vdW  Elec       q    Type
REMARK                         _______ _______ _______ _____ _____    ______ ____
ROOT
ATOM      1  C   UNL     1       0.956   9.588  19.163  0.00  0.00    +0.000 A 
ATOM      2  C   UNL     1       1.272   8.670  20.169  0.00  0.00    +0.000 A 
ATOM      3  C   UNL     1       2.042   7.539  19.863  0.00  0.00    +0.000 A 
ATOM      4  C   UNL     1       2.572   7.362  18.579  0.00  0.00    +0.000 A 
ATOM      5  C   UNL     1       2.176   8.234  17.562  0.00  0.00    +0.000 A 
ATOM      6  C   UNL     1       1.340   9.308  17.848  0.00  0.00    +0.000 A 
ENDROOT
BRANCH   4   7
ATOM      7  C   UNL     1       3.482   6.251  18.189  0.00  0.00    +0.000 C 
ATOM      8  O   UNL     1       4.691   6.474  18.288  0.00  0.00    +0.000 OA
ATOM      9  N   UNL     1       2.990   5.010  17.780  0.00  0.00    +0.000 N 
ATOM     10  C   UNL     1       1.591   4.586  17.725  0.00  0.00    +0.000 C 
ATOM     11  C   UNL     1       1.353   3.240  18.399  0.00  0.00    +0.000 C 
ATOM     12  C   UNL     1       2.372   2.184  17.989  0.00  0.00    +0.000 C 
ATOM     13  C   UNL     1       3.816   2.695  18.080  0.00  0.00    +0.000 C 
ATOM     14  C   UNL     1       4.282   2.845  19.532  0.00  0.00    +0.000 C 
ATOM     15  C   UNL     1       3.957   4.015  17.318  0.00  0.00    +0.000 C 
ENDBRANCH   4   7
BRANCH   1  19
ATOM     16  C   UNL     1      -1.497  11.991  19.772  0.00  0.00    +0.000 A 
ATOM     17  C   UNL     1      -0.413  12.876  19.613  0.00  0.00    +0.000 A 
ATOM     18  C   UNL     1       0.710  12.087  19.523  0.00  0.00    +0.000 A 
ATOM     19  N   UNL     1       0.238  10.778  19.472  0.00  0.00    +0.000 N 
ATOM     20  N   UNL     1      -1.088  10.719  19.785  0.00  0.00    +0.000 NA
BRANCH  16  25
ATOM     21  C   UNL     1      -6.393  12.364  19.362  0.00  0.00    +0.000 C 
ATOM     22  C   UNL     1      -5.030  12.669  19.827  0.00  0.00    +0.000 A 
ATOM     23  N   UNL     1      -4.649  13.418  20.837  0.00  0.00    +0.000 NA
ATOM     24  N   UNL     1      -3.283  13.276  20.920  0.00  0.00    +0.000 NA
ATOM     25  C   UNL     1      -2.915  12.446  19.958  0.00  0.00    +0.000 A 
ATOM     26  O   UNL     1      -3.990  12.043  19.196  0.00  0.00    +0.000 OA
ENDBRANCH  16  25
BRANCH  18  27
ATOM     27  C   UNL     1       2.162  12.505  19.508  0.00  0.00    +0.000 C 
ATOM     28  C   UNL     1       2.578  12.948  18.108  0.00  0.00    +0.000 C 
ATOM     29  C   UNL     1       2.455  13.600  20.539  0.00  0.00    +0.000 C 
ENDBRANCH  18  27
ENDBRANCH   1  19
TORSDOF 4
ENDMDL
MODEL 8
REMARK VINA RESULT:      -8.8      2.648     10.077
REMARK  Name = 
REMARK  8 active torsions:
REMARK  status: ('A' for Active; 'I' for Inactive)
REMARK    1  A    between atoms: C_1  and  C_2
REMARK    2  A    between atoms: C_5  and  C_6
REMARK    3  A    between atoms: C_8  and  C_9
REMARK    4  A    between atoms: C_9  and  C_10
REMARK    5  A    between atoms: C_9  and  C_11
REMARK    6  A    between atoms: N_12  and  C_13
REMARK    7  A    between atoms: C_16  and  C_17
REMARK    8  A    between atoms: C_23  and  C_24
REMARK                            x       y       z     vdW  Elec       q    Type
REMARK                         _______ _______ _______ _____ _____    ______ ____
ROOT
ATOM      1  C   UNL     1       1.075   9.533  19.745  0.00  0.00    +0.000 A 
ATOM      2  C   UNL     1       1.420   8.466  20.580  0.00  0.00    +0.000 A 
ATOM      3  C   UNL     1       2.117   7.369  20.054  0.00  0.00    +0.000 A 
ATOM      4  C   UNL     1       2.548   7.367  18.722  0.00  0.00    +0.000 A 
ATOM      5  C   UNL     1       2.120   8.393  17.876  0.00  0.00    +0.000 A 
ATOM      6  C   UNL     1       1.354   9.440  18.378  0.00  0.00    +0.000 A 
ENDROOT
BRANCH   4   7
ATOM      7  C   UNL     1       3.380   6.298  18.107  0.00  0.00    +0.000 C 
ATOM      8  O   UNL     1       4.584   6.537  17.996  0.00  0.00    +0.000 OA
ATOM      9  N   UNL     1       2.830   5.073  17.722  0.00  0.00    +0.000 N 
ATOM     10  C   UNL     1       1.449   4.627  17.899  0.00  0.00    +0.000 C 
ATOM     11  C   UNL     1       1.349   3.240  18.524  0.00  0.00    +0.000 C 
ATOM     12  C   UNL     1       2.283   2.229  17.873  0.00  0.00    +0.000 C 
ATOM     13  C   UNL     1       3.716   2.760  17.728  0.00  0.00    +0.000 C 
ATOM     14  C   UNL     1       4.439   2.836  19.076  0.00  0.00    +0.000 C 
ATOM     15  C   UNL     1       3.704   4.124  17.032  0.00  0.00    +0.000 C 
ENDBRANCH   4   7
BRANCH   1  19
ATOM     16  C   UNL     1      -1.146  11.792  21.204  0.00  0.00    +0.000 A 
ATOM     17  C   UNL     1      -0.296  12.739  20.601  0.00  0.00    +0.000 A 
ATOM     18  C   UNL     1       0.767  12.027  20.097  0.00  0.00    +0.000 A 
ATOM     19  N   UNL     1       0.432  10.687  20.278  0.00  0.00    +0.000 N 
ATOM     20  N   UNL     1      -0.653  10.555  21.092  0.00  0.00    +0.000 NA
BRANCH  16  25
ATOM     21  C   UNL     1      -4.463  12.540  24.771  0.00  0.00    +0.000 C 
ATOM     22  C   UNL     1      -3.898  12.499  23.413  0.00  0.00    +0.000 A 
ATOM     23  N   UNL     1      -4.362  13.036  22.308  0.00  0.00    +0.000 NA
ATOM     24  N   UNL     1      -3.404  12.813  21.345  0.00  0.00    +0.000 NA
ATOM     25  C   UNL     1      -2.412  12.156  21.924  0.00  0.00    +0.000 A 
ATOM     26  O   UNL     1      -2.682  11.893  23.249  0.00  0.00    +0.000 OA
ENDBRANCH  16  25
BRANCH  18  27
ATOM     27  C   UNL     1       2.053  12.544  19.495  0.00  0.00    +0.000 C 
ATOM     28  C   UNL     1       1.806  13.087  18.090  0.00  0.00    +0.000 C 
ATOM     29  C   UNL     1       2.717  13.602  20.382  0.00  0.00    +0.000 C 
ENDBRANCH  18  27
ENDBRANCH   1  19
TORSDOF 4
ENDMDL
MODEL 9
REMARK VINA RESULT:      -8.8      3.281      9.032
REMARK  Name = 
REMARK  8 active torsions:
REMARK  status: ('A' for Active; 'I' for Inactive)
REMARK    1  A    between atoms: C_1  and  C_2
REMARK    2  A    between atoms: C_5  and  C_6
REMARK    3  A    between atoms: C_8  and  C_9
REMARK    4  A    between atoms: C_9  and  C_10
REMARK    5  A    between atoms: C_9  and  C_11
REMARK    6  A    between atoms: N_12  and  C_13
REMARK    7  A    between atoms: C_16  and  C_17
REMARK    8  A    between atoms: C_23  and  C_24
REMARK                            x       y       z     vdW  Elec       q    Type
REMARK                         _______ _______ _______ _____ _____    ______ ____
ROOT
ATOM      1  C   UNL     1       1.430   9.602  18.769  0.00  0.00    +0.000 A 
ATOM      2  C   UNL     1       1.305   8.901  19.971  0.00  0.00    +0.000 A 
ATOM      3  C   UNL     1       1.877   7.627  20.097  0.00  0.00    +0.000 A 
ATOM      4  C   UNL     1       2.647   7.084  19.060  0.00  0.00    +0.000 A 
ATOM      5  C   UNL     1       2.689   7.751  17.834  0.00  0.00    +0.000 A 
ATOM      6  C   UNL     1       2.048   8.976  17.682  0.00  0.00    +0.000 A 
ENDROOT
BRANCH   4   7
ATOM      7  C   UNL     1       3.376   5.790  19.142  0.00  0.00    +0.000 C 
ATOM      8  O   UNL     1       4.497   5.825  19.654  0.00  0.00    +0.000 OA
ATOM      9  N   UNL     1       2.800   4.596  18.705  0.00  0.00    +0.000 N 
ATOM     10  C   UNL     1       1.447   4.403  18.184  0.00  0.00    +0.000 C 
ATOM     11  C   UNL     1       0.712   3.247  18.851  0.00  0.00    +0.000 C 
ATOM     12  C   UNL     1       1.559   1.986  18.949  0.00  0.00    +0.000 C 
ATOM     13  C   UNL     1       2.960   2.260  19.512  0.00  0.00    +0.000 C 
ATOM     14  C   UNL     1       2.926   2.573  21.011  0.00  0.00    +0.000 C 
ATOM     15  C   UNL     1       3.630   3.392  18.729  0.00  0.00    +0.000 C 
ENDBRANCH   4   7
BRANCH   1  19
ATOM     16  C   UNL     1       0.995  13.062  18.703  0.00  0.00    +0.000 A 
ATOM     17  C   UNL     1      -0.368  12.710  18.742  0.00  0.00    +0.000 A 
ATOM     18  C   UNL     1      -0.409  11.342  18.605  0.00  0.00    +0.000 A 
ATOM     19  N   UNL     1       0.919  10.926  18.650  0.00  0.00    +0.000 N 
ATOM     20  N   UNL     1       1.771  11.985  18.548  0.00  0.00    +0.000 NA
BRANCH  16  25
ATOM     21  C   UNL     1       1.153  17.941  19.379  0.00  0.00    +0.000 C 
ATOM     22  C   UNL     1       1.625  16.589  19.037  0.00  0.00    +0.000 A 
ATOM     23  N   UNL     1       2.854  16.165  18.850  0.00  0.00    +0.000 NA
ATOM     24  N   UNL     1       2.764  14.803  18.676  0.00  0.00    +0.000 NA
ATOM     25  C   UNL     1       1.485  14.479  18.771  0.00  0.00    +0.000 A 
ATOM     26  O   UNL     1       0.693  15.589  18.971  0.00  0.00    +0.000 OA
ENDBRANCH  16  25
BRANCH  18  27
ATOM     27  C   UNL     1      -1.611  10.445  18.415  0.00  0.00    +0.000 C 
ATOM     28  C   UNL     1      -2.901  11.212  18.692  0.00  0.00    +0.000 C 
ATOM     29  C   UNL     1      -1.639   9.811  17.021  0.00  0.00    +0.000 C 
ENDBRANCH  18  27
ENDBRANCH   1  19
TORSDOF 4
ENDMDL
