MODEL 1
REMARK VINA RESULT:      -9.3      0.000      0.000
REMARK  Name = 
REMARK  2 active torsions:
REMARK  status: ('A' for Active; 'I' for Inactive)
REMARK    1  A    between atoms: C_6  and  C_7
REMARK    2  A    between atoms: C_10  and  C_11
REMARK                            x       y       z     vdW  Elec       q    Type
REMARK                         _______ _______ _______ _____ _____    ______ ____
ROOT
ATOM      1  C   UNL     1       7.258   6.291  17.676  0.00  0.00    +0.000 A 
ATOM      2  C   UNL     1       7.080   7.425  16.972  0.00  0.00    +0.000 A 
ATOM      3  C   UNL     1       7.688   8.669  17.384  0.00  0.00    +0.000 A 
ATOM      4  C   UNL     1       8.442   8.712  18.492  0.00  0.00    +0.000 A 
ATOM      5  N   UNL     1       8.613   7.578  19.244  0.00  0.00    +0.000 N 
ATOM      6  C   UNL     1       8.078   6.353  18.927  0.00  0.00    +0.000 A 
ATOM      7  O   UNL     1       8.276   5.362  19.619  0.00  0.00    +0.000 OA
ATOM      8  H   UNL     1       9.174   7.612  20.087  0.00  0.00    +0.000 HD
ENDROOT
BRANCH   4   9
ATOM      9  C   UNL     1       9.133   9.940  18.896  0.00  0.00    +0.000 A 
ATOM     10  C   UNL     1       9.230  10.297  20.243  0.00  0.00    +0.000 A 
ATOM     11  C   UNL     1       9.847  11.496  20.610  0.00  0.00    +0.000 A 
ATOM     12  C   UNL     1      10.390  12.351  19.639  0.00  0.00    +0.000 A 
ATOM     13  C   UNL     1      11.019  13.554  19.996  0.00  0.00    +0.000 A 
ATOM     14  C   UNL     1      11.556  14.395  19.019  0.00  0.00    +0.000 A 
ATOM     15  C   UNL     1      11.465  14.046  17.675  0.00  0.00    +0.000 A 
ATOM     16  C   UNL     1      10.840  12.854  17.303  0.00  0.00    +0.000 A 
ATOM     17  C   UNL     1      10.301  11.995  18.274  0.00  0.00    +0.000 A 
ATOM     18  C   UNL     1       9.670  10.790  17.919  0.00  0.00    +0.000 A 
ENDBRANCH   4   9
BRANCH   1  24
ATOM     19  O   UNL     1       6.570   3.900  13.967  0.00  0.00    +0.000 OA
ATOM     20  C   UNL     1       6.371   4.300  15.099  0.00  0.00    +0.000 C 
ATOM     21  N   UNL     1       5.162   4.553  15.630  0.00  0.00    +0.000 N 
ATOM     22  C   UNL     1       5.278   4.996  16.898  0.00  0.00    +0.000 C 
ATOM     23  O   UNL     1       4.361   5.339  17.628  0.00  0.00    +0.000 OA
ATOM     24  C   UNL     1       6.748   4.957  17.234  0.00  0.00    +0.000 C 
ATOM     25  O   UNL     1       7.358   4.513  16.019  0.00  0.00    +0.000 OA
ATOM     26  H   UNL     1       4.304   4.510  15.109  0.00  0.00    +0.000 HD
ENDBRANCH   1  24
TORSDOF 2
ENDMDL
MODEL 2
REMARK VINA RESULT:      -9.1      5.786      7.676
REMARK  Name = 
REMARK  2 active torsions:
REMARK  status: ('A' for Active; 'I' for Inactive)
REMARK    1  A    between atoms: C_6  and  C_7
REMARK    2  A    between atoms: C_10  and  C_11
REMARK                            x       y       z     vdW  Elec       q    Type
REMARK                         _______ _______ _______ _____ _____    ______ ____
ROOT
ATOM      1  C   UNL     1       4.277   5.431  17.477  0.00  0.00    +0.000 A 
ATOM      2  C   UNL     1       4.449   6.738  17.204  0.00  0.00    +0.000 A 
ATOM      3  C   UNL     1       3.566   7.743  17.747  0.00  0.00    +0.000 A 
ATOM      4  C   UNL     1       2.544   7.381  18.537  0.00  0.00    +0.000 A 
ATOM      5  N   UNL     1       2.327   6.054  18.804  0.00  0.00    +0.000 N 
ATOM      6  C   UNL     1       3.117   5.033  18.336  0.00  0.00    +0.000 A 
ATOM      7  O   UNL     1       2.896   3.862  18.620  0.00  0.00    +0.000 OA
ATOM      8  H   UNL     1       1.549   5.780  19.393  0.00  0.00    +0.000 HD
ENDROOT
BRANCH   4   9
ATOM      9  C   UNL     1       1.675   8.381  19.163  0.00  0.00    +0.000 A 
ATOM     10  C   UNL     1       1.190   9.468  18.432  0.00  0.00    +0.000 A 
ATOM     11  C   UNL     1       0.404  10.441  19.055  0.00  0.00    +0.000 A 
ATOM     12  C   UNL     1       0.077  10.338  20.416  0.00  0.00    +0.000 A 
ATOM     13  C   UNL     1      -0.718  11.304  21.051  0.00  0.00    +0.000 A 
ATOM     14  C   UNL     1      -1.036  11.187  22.405  0.00  0.00    +0.000 A 
ATOM     15  C   UNL     1      -0.558  10.107  23.141  0.00  0.00    +0.000 A 
ATOM     16  C   UNL     1       0.236   9.139  22.525  0.00  0.00    +0.000 A 
ATOM     17  C   UNL     1       0.559   9.238  21.162  0.00  0.00    +0.000 A 
ATOM     18  C   UNL     1       1.356   8.272  20.525  0.00  0.00    +0.000 A 
ENDBRANCH   4   9
BRANCH   1  24
ATOM     19  O   UNL     1       8.546   4.194  17.912  0.00  0.00    +0.000 OA
ATOM     20  C   UNL     1       7.465   4.332  17.368  0.00  0.00    +0.000 C 
ATOM     21  N   UNL     1       7.285   4.663  16.077  0.00  0.00    +0.000 N 
ATOM     22  C   UNL     1       5.972   4.751  15.784  0.00  0.00    +0.000 C 
ATOM     23  O   UNL     1       5.494   5.065  14.705  0.00  0.00    +0.000 OA
ATOM     24  C   UNL     1       5.225   4.363  17.036  0.00  0.00    +0.000 C 
ATOM     25  O   UNL     1       6.266   4.128  17.988  0.00  0.00    +0.000 OA
ATOM     26  H   UNL     1       8.034   4.906  15.454  0.00  0.00    +0.000 HD
ENDBRANCH   1  24
TORSDOF 2
ENDMDL
MODEL 3
REMARK VINA RESULT:      -9.1      6.127      7.838
REMARK  Name = 
REMARK  2 active torsions:
REMARK  status: ('A' for Active; 'I' for Inactive)
REMARK    1  A    between atoms: C_6  and  C_7
REMARK    2  A    between atoms: C_10  and  C_11
REMARK                            x       y       z     vdW  Elec       q    Type
REMARK                         _______ _______ _______ _____ _____    ______ ____
ROOT
ATOM      1  C   UNL     1       4.027   5.620  18.519  0.00  0.00    +0.000 A 
ATOM      2  C   UNL     1       3.863   6.696  17.725  0.00  0.00    +0.000 A 
ATOM      3  C   UNL     1       2.932   7.746  18.065  0.00  0.00    +0.000 A 
ATOM      4  C   UNL     1       2.204   7.659  19.188  0.00  0.00    +0.000 A 
ATOM      5  N   UNL     1       2.328   6.559  19.996  0.00  0.00    +0.000 N 
ATOM      6  C   UNL     1       3.189   5.516  19.755  0.00  0.00    +0.000 A 
ATOM      7  O   UNL     1       3.281   4.563  20.519  0.00  0.00    +0.000 OA
ATOM      8  H   UNL     1       1.770   6.488  20.839  0.00  0.00    +0.000 HD
ENDROOT
BRANCH   4   9
ATOM      9  C   UNL     1       1.306   8.742  19.599  0.00  0.00    +0.000 A 
ATOM     10  C   UNL     1       0.918   9.733  18.694  0.00  0.00    +0.000 A 
ATOM     11  C   UNL     1       0.103  10.789  19.113  0.00  0.00    +0.000 A 
ATOM     12  C   UNL     1      -0.351  10.863  20.439  0.00  0.00    +0.000 A 
ATOM     13  C   UNL     1      -1.178  11.912  20.870  0.00  0.00    +0.000 A 
ATOM     14  C   UNL     1      -1.622  11.973  22.191  0.00  0.00    +0.000 A 
ATOM     15  C   UNL     1      -1.243  10.988  23.099  0.00  0.00    +0.000 A 
ATOM     16  C   UNL     1      -0.419   9.939  22.687  0.00  0.00    +0.000 A 
ATOM     17  C   UNL     1       0.031   9.860  21.359  0.00  0.00    +0.000 A 
ATOM     18  C   UNL     1       0.859   8.811  20.927  0.00  0.00    +0.000 A 
ENDBRANCH   4   9
BRANCH   1  24
ATOM     19  O   UNL     1       7.509   4.721  15.871  0.00  0.00    +0.000 OA
ATOM     20  C   UNL     1       6.529   4.492  16.556  0.00  0.00    +0.000 C 
ATOM     21  N   UNL     1       5.575   3.590  16.265  0.00  0.00    +0.000 N 
ATOM     22  C   UNL     1       4.617   3.582  17.213  0.00  0.00    +0.000 C 
ATOM     23  O   UNL     1       3.607   2.897  17.212  0.00  0.00    +0.000 OA
ATOM     24  C   UNL     1       5.054   4.563  18.274  0.00  0.00    +0.000 C 
ATOM     25  O   UNL     1       6.275   5.096  17.754  0.00  0.00    +0.000 OA
ATOM     26  H   UNL     1       5.543   3.070  15.406  0.00  0.00    +0.000 HD
ENDBRANCH   1  24
TORSDOF 2
ENDMDL
MODEL 4
REMARK VINA RESULT:      -8.8      6.791      8.289
REMARK  Name = 
REMARK  2 active torsions:
REMARK  status: ('A' for Active; 'I' for Inactive)
REMARK    1  A    between atoms: C_6  and  C_7
REMARK    2  A    between atoms: C_10  and  C_11
REMARK                            x       y       z     vdW  Elec       q    Type
REMARK                         _______ _______ _______ _____ _____    ______ ____
ROOT
ATOM      1  C   UNL     1       3.210   5.827  18.744  0.00  0.00    +0.000 A 
ATOM      2  C   UNL     1       2.976   7.032  18.189  0.00  0.00    +0.000 A 
ATOM      3  C   UNL     1       2.193   8.034  18.873  0.00  0.00    +0.000 A 
ATOM      4  C   UNL     1       1.677   7.773  20.082  0.00  0.00    +0.000 A 
ATOM      5  N   UNL     1       1.874   6.542  20.655  0.00  0.00    +0.000 N 
ATOM      6  C   UNL     1       2.606   5.532  20.081  0.00  0.00    +0.000 A 
ATOM      7  O   UNL     1       2.773   4.456  20.641  0.00  0.00    +0.000 OA
ATOM      8  H   UNL     1       1.475   6.340  21.564  0.00  0.00    +0.000 HD
ENDROOT
BRANCH   4   9
ATOM      9  C   UNL     1       0.942   8.794  20.834  0.00  0.00    +0.000 A 
ATOM     10  C   UNL     1       0.910   8.771  22.230  0.00  0.00    +0.000 A 
ATOM     11  C   UNL     1       0.162   9.721  22.933  0.00  0.00    +0.000 A 
ATOM     12  C   UNL     1      -0.553  10.718  22.252  0.00  0.00    +0.000 A 
ATOM     13  C   UNL     1      -1.300  11.682  22.946  0.00  0.00    +0.000 A 
ATOM     14  C   UNL     1      -2.006  12.669  22.257  0.00  0.00    +0.000 A 
ATOM     15  C   UNL     1      -1.978  12.701  20.866  0.00  0.00    +0.000 A 
ATOM     16  C   UNL     1      -1.242  11.747  20.160  0.00  0.00    +0.000 A 
ATOM     17  C   UNL     1      -0.521  10.752  20.839  0.00  0.00    +0.000 A 
ATOM     18  C   UNL     1       0.226   9.785  20.146  0.00  0.00    +0.000 A 
ENDBRANCH   4   9
BRANCH   1  24
ATOM     19  O   UNL     1       3.649   1.398  18.380  0.00  0.00    +0.000 OA
ATOM     20  C   UNL     1       4.004   2.559  18.467  0.00  0.00    +0.000 C 
ATOM     21  N   UNL     1       5.051   2.996  19.189  0.00  0.00    +0.000 N 
ATOM     22  C   UNL     1       5.175   4.335  19.092  0.00  0.00    +0.000 C 
ATOM     23  O   UNL     1       6.007   5.025  19.659  0.00  0.00    +0.000 OA
ATOM     24  C   UNL     1       4.105   4.797  18.133  0.00  0.00    +0.000 C 
ATOM     25  O   UNL     1       3.407   3.593  17.803  0.00  0.00    +0.000 OA
ATOM     26  H   UNL     1       5.597   2.407  19.793  0.00  0.00    +0.000 HD
ENDBRANCH   1  24
TORSDOF 2
ENDMDL
MODEL 5
REMARK VINA RESULT:      -8.7      6.580      8.337
REMARK  Name = 
REMARK  2 active torsions:
REMARK  status: ('A' for Active; 'I' for Inactive)
REMARK    1  A    between atoms: C_6  and  C_7
REMARK    2  A    between atoms: C_10  and  C_11
REMARK                            x       y       z     vdW  Elec       q    Type
REMARK                         _______ _______ _______ _____ _____    ______ ____
ROOT
ATOM      1  C   UNL     1       3.514   5.835  18.674  0.00  0.00    +0.000 A 
ATOM      2  C   UNL     1       2.789   5.770  19.807  0.00  0.00    +0.000 A 
ATOM      3  C   UNL     1       1.946   6.866  20.224  0.00  0.00    +0.000 A 
ATOM      4  C   UNL     1       1.879   7.980  19.482  0.00  0.00    +0.000 A 
ATOM      5  N   UNL     1       2.633   8.084  18.341  0.00  0.00    +0.000 N 
ATOM      6  C   UNL     1       3.457   7.093  17.866  0.00  0.00    +0.000 A 
ATOM      7  O   UNL     1       4.094   7.224  16.828  0.00  0.00    +0.000 OA
ATOM      8  H   UNL     1       2.590   8.930  17.785  0.00  0.00    +0.000 HD
ENDROOT
BRANCH   4   9
ATOM      9  C   UNL     1       0.978   9.079  19.837  0.00  0.00    +0.000 A 
ATOM     10  C   UNL     1       0.595  10.028  18.887  0.00  0.00    +0.000 A 
ATOM     11  C   UNL     1      -0.224  11.100  19.252  0.00  0.00    +0.000 A 
ATOM     12  C   UNL     1      -0.687  11.234  20.570  0.00  0.00    +0.000 A 
ATOM     13  C   UNL     1      -1.517  12.300  20.948  0.00  0.00    +0.000 A 
ATOM     14  C   UNL     1      -1.971  12.420  22.262  0.00  0.00    +0.000 A 
ATOM     15  C   UNL     1      -1.596  11.478  23.216  0.00  0.00    +0.000 A 
ATOM     16  C   UNL     1      -0.768  10.412  22.857  0.00  0.00    +0.000 A 
ATOM     17  C   UNL     1      -0.310  10.274  21.537  0.00  0.00    +0.000 A 
ATOM     18  C   UNL     1       0.523   9.207  21.158  0.00  0.00    +0.000 A 
ENDBRANCH   4   9
BRANCH   1  24
ATOM     19  O   UNL     1       3.537   1.370  18.585  0.00  0.00    +0.000 OA
ATOM     20  C   UNL     1       3.999   2.496  18.606  0.00  0.00    +0.000 C 
ATOM     21  N   UNL     1       5.077   2.877  19.314  0.00  0.00    +0.000 N 
ATOM     22  C   UNL     1       5.327   4.190  19.137  0.00  0.00    +0.000 C 
ATOM     23  O   UNL     1       6.217   4.833  19.672  0.00  0.00    +0.000 OA
ATOM     24  C   UNL     1       4.312   4.690  18.138  0.00  0.00    +0.000 C 
ATOM     25  O   UNL     1       3.507   3.538  17.874  0.00  0.00    +0.000 OA
ATOM     26  H   UNL     1       5.561   2.278  19.959  0.00  0.00    +0.000 HD
ENDBRANCH   1  24
TORSDOF 2
ENDMDL
MODEL 6
REMARK VINA RESULT:      -8.6      6.482      8.054
REMARK  Name = 
REMARK  2 active torsions:
REMARK  status: ('A' for Active; 'I' for Inactive)
REMARK    1  A    between atoms: C_6  and  C_7
REMARK    2  A    between atoms: C_10  and  C_11
REMARK                            x       y       z     vdW  Elec       q    Type
REMARK                         _______ _______ _______ _____ _____    ______ ____
ROOT
ATOM      1  C   UNL     1       3.400   5.282  19.327  0.00  0.00    +0.000 A 
ATOM      2  C   UNL     1       3.357   6.439  18.638  0.00  0.00    +0.000 A 
ATOM      3  C   UNL     1       2.551   7.550  19.085  0.00  0.00    +0.000 A 
ATOM      4  C   UNL     1       1.819   7.441  20.203  0.00  0.00    +0.000 A 
ATOM      5  N   UNL     1       1.820   6.263  20.905  0.00  0.00    +0.000 N 
ATOM      6  C   UNL     1       2.558   5.158  20.557  0.00  0.00    +0.000 A 
ATOM      7  O   UNL     1       2.543   4.133  21.229  0.00  0.00    +0.000 OA
ATOM      8  H   UNL     1       1.259   6.176  21.744  0.00  0.00    +0.000 HD
ENDROOT
BRANCH   4   9
ATOM      9  C   UNL     1       1.049   8.574  20.724  0.00  0.00    +0.000 A 
ATOM     10  C   UNL     1       0.885   8.758  22.099  0.00  0.00    +0.000 A 
ATOM     11  C   UNL     1       0.105   9.813  22.580  0.00  0.00    +0.000 A 
ATOM     12  C   UNL     1      -0.510  10.712  21.696  0.00  0.00    +0.000 A 
ATOM     13  C   UNL     1      -1.288  11.781  22.166  0.00  0.00    +0.000 A 
ATOM     14  C   UNL     1      -1.894  12.668  21.275  0.00  0.00    +0.000 A 
ATOM     15  C   UNL     1      -1.734  12.494  19.904  0.00  0.00    +0.000 A 
ATOM     16  C   UNL     1      -0.966  11.434  19.419  0.00  0.00    +0.000 A 
ATOM     17  C   UNL     1      -0.344  10.538  20.303  0.00  0.00    +0.000 A 
ATOM     18  C   UNL     1       0.434   9.466  19.833  0.00  0.00    +0.000 A 
ENDBRANCH   4   9
BRANCH   1  24
ATOM     19  O   UNL     1       7.594   4.460  18.031  0.00  0.00    +0.000 OA
ATOM     20  C   UNL     1       6.390   4.301  18.107  0.00  0.00    +0.000 C 
ATOM     21  N   UNL     1       5.590   3.944  17.087  0.00  0.00    +0.000 N 
ATOM     22  C   UNL     1       4.306   3.864  17.490  0.00  0.00    +0.000 C 
ATOM     23  O   UNL     1       3.345   3.596  16.786  0.00  0.00    +0.000 OA
ATOM     24  C   UNL     1       4.302   4.144  18.973  0.00  0.00    +0.000 C 
ATOM     25  O   UNL     1       5.675   4.423  19.264  0.00  0.00    +0.000 OA
ATOM     26  H   UNL     1       5.905   3.851  16.138  0.00  0.00    +0.000 HD
ENDBRANCH   1  24
TORSDOF 2
ENDMDL
MODEL 7
REMARK VINA RESULT:      -8.5      6.909      8.495
REMARK  Name = 
REMARK  2 active torsions:
REMARK  status: ('A' for Active; 'I' for Inactive)
REMARK    1  A    between atoms: C_6  and  C_7
REMARK    2  A    between atoms: C_10  and  C_11
REMARK                            x       y       z     vdW  Elec       q    Type
REMARK                         _______ _______ _______ _____ _____    ______ ____
ROOT
ATOM      1  C   UNL     1       3.018   5.806  18.970  0.00  0.00    +0.000 A 
ATOM      2  C   UNL     1       2.399   5.540  20.136  0.00  0.00    +0.000 A 
ATOM      3  C   UNL     1       1.661   6.559  20.845  0.00  0.00    +0.000 A 
ATOM      4  C   UNL     1       1.586   7.802  20.347  0.00  0.00    +0.000 A 
ATOM      5  N   UNL     1       2.234   8.107  19.178  0.00  0.00    +0.000 N 
ATOM      6  C   UNL     1       2.954   7.203  18.436  0.00  0.00    +0.000 A 
ATOM      7  O   UNL     1       3.498   7.517  17.384  0.00  0.00    +0.000 OA
ATOM      8  H   UNL     1       2.186   9.048  18.807  0.00  0.00    +0.000 HD
ENDROOT
BRANCH   4   9
ATOM      9  C   UNL     1       0.784   8.838  21.003  0.00  0.00    +0.000 A 
ATOM     10  C   UNL     1       0.637   8.858  22.392  0.00  0.00    +0.000 A 
ATOM     11  C   UNL     1      -0.173   9.821  23.001  0.00  0.00    +0.000 A 
ATOM     12  C   UNL     1      -0.837  10.790  22.233  0.00  0.00    +0.000 A 
ATOM     13  C   UNL     1      -1.646  11.767  22.832  0.00  0.00    +0.000 A 
ATOM     14  C   UNL     1      -2.300  12.725  22.056  0.00  0.00    +0.000 A 
ATOM     15  C   UNL     1      -2.158  12.714  20.672  0.00  0.00    +0.000 A 
ATOM     16  C   UNL     1      -1.359  11.746  20.060  0.00  0.00    +0.000 A 
ATOM     17  C   UNL     1      -0.689  10.780  20.827  0.00  0.00    +0.000 A 
ATOM     18  C   UNL     1       0.120   9.800  20.228  0.00  0.00    +0.000 A 
ENDBRANCH   4   9
BRANCH   1  24
ATOM     19  O   UNL     1       3.433   1.372  18.632  0.00  0.00    +0.000 OA
ATOM     20  C   UNL     1       3.767   2.541  18.563  0.00  0.00    +0.000 C 
ATOM     21  N   UNL     1       4.977   3.021  18.898  0.00  0.00    +0.000 N 
ATOM     22  C   UNL     1       5.029   4.357  18.722  0.00  0.00    +0.000 C 
ATOM     23  O   UNL     1       5.980   5.081  18.972  0.00  0.00    +0.000 OA
ATOM     24  C   UNL     1       3.698   4.765  18.140  0.00  0.00    +0.000 C 
ATOM     25  O   UNL     1       2.963   3.539  18.090  0.00  0.00    +0.000 OA
ATOM     26  H   UNL     1       5.702   2.465  19.316  0.00  0.00    +0.000 HD
ENDBRANCH   1  24
TORSDOF 2
ENDMDL
MODEL 8
REMARK VINA RESULT:      -8.5      6.447      8.068
REMARK  Name = 
REMARK  2 active torsions:
REMARK  status: ('A' for Active; 'I' for Inactive)
REMARK    1  A    between atoms: C_6  and  C_7
REMARK    2  A    between atoms: C_10  and  C_11
REMARK                            x       y       z     vdW  Elec       q    Type
REMARK                         _______ _______ _______ _____ _____    ______ ____
ROOT
ATOM      1  C   UNL     1       3.557   5.888  18.355  0.00  0.00    +0.000 A 
ATOM      2  C   UNL     1       3.418   6.989  17.591  0.00  0.00    +0.000 A 
ATOM      3  C   UNL     1       2.616   8.108  18.025  0.00  0.00    +0.000 A 
ATOM      4  C   UNL     1       1.985   8.063  19.208  0.00  0.00    +0.000 A 
ATOM      5  N   UNL     1       2.085   6.941  19.990  0.00  0.00    +0.000 N 
ATOM      6  C   UNL     1       2.827   5.833  19.660  0.00  0.00    +0.000 A 
ATOM      7  O   UNL     1       2.903   4.861  20.402  0.00  0.00    +0.000 OA
ATOM      8  H   UNL     1       1.600   6.902  20.879  0.00  0.00    +0.000 HD
ENDROOT
BRANCH   4   9
ATOM      9  C   UNL     1       1.225   9.210  19.710  0.00  0.00    +0.000 A 
ATOM     10  C   UNL     1       1.144  10.394  18.973  0.00  0.00    +0.000 A 
ATOM     11  C   UNL     1       0.458  11.498  19.487  0.00  0.00    +0.000 A 
ATOM     12  C   UNL     1      -0.170  11.434  20.740  0.00  0.00    +0.000 A 
ATOM     13  C   UNL     1      -0.868  12.532  21.264  0.00  0.00    +0.000 A 
ATOM     14  C   UNL     1      -1.489  12.454  22.511  0.00  0.00    +0.000 A 
ATOM     15  C   UNL     1      -1.415  11.278  23.252  0.00  0.00    +0.000 A 
ATOM     16  C   UNL     1      -0.721  10.177  22.747  0.00  0.00    +0.000 A 
ATOM     17  C   UNL     1      -0.097  10.238  21.491  0.00  0.00    +0.000 A 
ATOM     18  C   UNL     1       0.604   9.139  20.965  0.00  0.00    +0.000 A 
ENDBRANCH   4   9
BRANCH   1  24
ATOM     19  O   UNL     1       3.817   1.442  18.681  0.00  0.00    +0.000 OA
ATOM     20  C   UNL     1       4.216   2.591  18.643  0.00  0.00    +0.000 C 
ATOM     21  N   UNL     1       5.196   3.096  19.413  0.00  0.00    +0.000 N 
ATOM     22  C   UNL     1       5.395   4.401  19.141  0.00  0.00    +0.000 C 
ATOM     23  O   UNL     1       6.191   5.140  19.698  0.00  0.00    +0.000 OA
ATOM     24  C   UNL     1       4.463   4.751  18.007  0.00  0.00    +0.000 C 
ATOM     25  O   UNL     1       3.749   3.534  17.773  0.00  0.00    +0.000 OA
ATOM     26  H   UNL     1       5.641   2.585  20.155  0.00  0.00    +0.000 HD
ENDBRANCH   1  24
TORSDOF 2
ENDMDL
MODEL 9
REMARK VINA RESULT:      -8.5      5.817      7.506
REMARK  Name = 
REMARK  2 active torsions:
REMARK  status: ('A' for Active; 'I' for Inactive)
REMARK    1  A    between atoms: C_6  and  C_7
REMARK    2  A    between atoms: C_10  and  C_11
REMARK                            x       y       z     vdW  Elec       q    Type
REMARK                         _______ _______ _______ _____ _____    ______ ____
ROOT
ATOM      1  C   UNL     1       4.270   5.591  17.399  0.00  0.00    +0.000 A 
ATOM      2  C   UNL     1       4.268   6.908  17.117  0.00  0.00    +0.000 A 
ATOM      3  C   UNL     1       3.393   7.824  17.810  0.00  0.00    +0.000 A 
ATOM      4  C   UNL     1       2.554   7.368  18.751  0.00  0.00    +0.000 A 
ATOM      5  N   UNL     1       2.513   6.027  19.034  0.00  0.00    +0.000 N 
ATOM      6  C   UNL     1       3.310   5.085  18.430  0.00  0.00    +0.000 A 
ATOM      7  O   UNL     1       3.253   3.899  18.733  0.00  0.00    +0.000 OA
ATOM      8  H   UNL     1       1.872   5.680  19.738  0.00  0.00    +0.000 HD
ENDROOT
BRANCH   4   9
ATOM      9  C   UNL     1       1.706   8.280  19.524  0.00  0.00    +0.000 A 
ATOM     10  C   UNL     1       1.415   8.024  20.866  0.00  0.00    +0.000 A 
ATOM     11  C   UNL     1       0.564   8.876  21.576  0.00  0.00    +0.000 A 
ATOM     12  C   UNL     1       0.003  10.006  20.962  0.00  0.00    +0.000 A 
ATOM     13  C   UNL     1      -0.846  10.873  21.667  0.00  0.00    +0.000 A 
ATOM     14  C   UNL     1      -1.397  11.994  21.044  0.00  0.00    +0.000 A 
ATOM     15  C   UNL     1      -1.110  12.258  19.708  0.00  0.00    +0.000 A 
ATOM     16  C   UNL     1      -0.270  11.404  18.992  0.00  0.00    +0.000 A 
ATOM     17  C   UNL     1       0.297  10.276  19.606  0.00  0.00    +0.000 A 
ATOM     18  C   UNL     1       1.146   9.406  18.901  0.00  0.00    +0.000 A 
ENDBRANCH   4   9
BRANCH   1  24
ATOM     19  O   UNL     1       8.478   4.160  17.832  0.00  0.00    +0.000 OA
ATOM     20  C   UNL     1       7.441   4.447  17.262  0.00  0.00    +0.000 C 
ATOM     21  N   UNL     1       7.359   5.061  16.068  0.00  0.00    +0.000 N 
ATOM     22  C   UNL     1       6.073   5.251  15.714  0.00  0.00    +0.000 C 
ATOM     23  O   UNL     1       5.678   5.810  14.703  0.00  0.00    +0.000 OA
ATOM     24  C   UNL     1       5.231   4.619  16.796  0.00  0.00    +0.000 C 
ATOM     25  O   UNL     1       6.198   4.148  17.740  0.00  0.00    +0.000 OA
ATOM     26  H   UNL     1       8.155   5.413  15.566  0.00  0.00    +0.000 HD
ENDBRANCH   1  24
TORSDOF 2
ENDMDL
