MODEL 1
REMARK VINA RESULT:      -7.9      0.000      0.000
REMARK  Name = 
REMARK  3 active torsions:
REMARK  status: ('A' for Active; 'I' for Inactive)
REMARK    1  A    between atoms: C_1  and  N_2
REMARK    2  A    between atoms: C_17  and  C_18
REMARK    3  A    between atoms: C_21  and  C_22
REMARK                            x       y       z     vdW  Elec       q    Type
REMARK                         _______ _______ _______ _____ _____    ______ ____
ROOT
ATOM      1  C   UNL     1       3.761  14.257  18.325  0.00  0.00    +0.000 C 
ATOM      2  N   UNL     1       2.377  13.911  18.607  0.00  0.00    +0.000 N 
ATOM      3  C   UNL     1       1.977  12.602  18.363  0.00  0.00    +0.000 A 
ATOM      4  O   UNL     1       2.711  11.767  17.839  0.00  0.00    +0.000 OA
ATOM      5  C   UNL     1       0.580  12.226  18.711  0.00  0.00    +0.000 A 
ATOM      6  C   UNL     1      -0.293  13.187  19.060  0.00  0.00    +0.000 A 
ATOM      7  C   UNL     1       0.121  14.581  19.247  0.00  0.00    +0.000 A 
ATOM      8  C   UNL     1      -0.797  15.571  19.640  0.00  0.00    +0.000 A 
ATOM      9  C   UNL     1      -0.392  16.900  19.789  0.00  0.00    +0.000 A 
ATOM     10  C   UNL     1       0.926  17.249  19.544  0.00  0.00    +0.000 A 
ATOM     11  C   UNL     1       1.850  16.271  19.159  0.00  0.00    +0.000 A 
ATOM     12  C   UNL     1       1.460  14.927  19.015  0.00  0.00    +0.000 A 
ATOM     13  O   UNL     1      -1.689  12.970  19.129  0.00  0.00    +0.000 OA
ATOM     14  C   UNL     1      -2.146  11.723  18.819  0.00  0.00    +0.000 C 
ATOM     15  O   UNL     1      -3.239  11.526  18.302  0.00  0.00    +0.000 OA
ATOM     16  C   UNL     1      -1.221  10.628  19.238  0.00  0.00    +0.000 C 
ATOM     17  C   UNL     1       0.104  10.814  18.496  0.00  0.00    +0.000 C 
ENDROOT
BRANCH  17  18
ATOM     18  C   UNL     1       1.000   9.652  18.906  0.00  0.00    +0.000 A 
ATOM     19  C   UNL     1       1.663   8.936  17.892  0.00  0.00    +0.000 A 
ATOM     20  C   UNL     1       2.296   7.723  18.164  0.00  0.00    +0.000 A 
ATOM     21  C   UNL     1       2.286   7.196  19.459  0.00  0.00    +0.000 A 
ATOM     22  C   UNL     1       1.716   7.956  20.493  0.00  0.00    +0.000 A 
ATOM     23  C   UNL     1       1.078   9.173  20.221  0.00  0.00    +0.000 A 
BRANCH  21  24
ATOM     24  C   UNL     1       2.813   5.809  19.734  0.00  0.00    +0.000 C 
ATOM     25  F   UNL     1       4.174   5.744  19.804  0.00  0.00    +0.000 F 
ATOM     26  F   UNL     1       2.352   5.283  20.902  0.00  0.00    +0.000 F 
ATOM     27  F   UNL     1       2.456   4.925  18.759  0.00  0.00    +0.000 F 
ENDBRANCH  21  24
ENDBRANCH  17  18
TORSDOF 2
ENDMDL
MODEL 2
REMARK VINA RESULT:      -7.6      5.410      8.913
REMARK  Name = 
REMARK  3 active torsions:
REMARK  status: ('A' for Active; 'I' for Inactive)
REMARK    1  A    between atoms: C_1  and  N_2
REMARK    2  A    between atoms: C_17  and  C_18
REMARK    3  A    between atoms: C_21  and  C_22
REMARK                            x       y       z     vdW  Elec       q    Type
REMARK                         _______ _______ _______ _____ _____    ______ ____
ROOT
ATOM      1  C   UNL     1       7.446   7.090  17.108  0.00  0.00    +0.000 C 
ATOM      2  N   UNL     1       6.327   6.194  16.861  0.00  0.00    +0.000 N 
ATOM      3  C   UNL     1       5.345   6.104  17.840  0.00  0.00    +0.000 A 
ATOM      4  O   UNL     1       5.434   6.671  18.927  0.00  0.00    +0.000 OA
ATOM      5  C   UNL     1       4.166   5.239  17.565  0.00  0.00    +0.000 A 
ATOM      6  C   UNL     1       4.177   4.436  16.487  0.00  0.00    +0.000 A 
ATOM      7  C   UNL     1       5.253   4.485  15.493  0.00  0.00    +0.000 A 
ATOM      8  C   UNL     1       5.237   3.659  14.355  0.00  0.00    +0.000 A 
ATOM      9  C   UNL     1       6.282   3.699  13.430  0.00  0.00    +0.000 A 
ATOM     10  C   UNL     1       7.349   4.559  13.635  0.00  0.00    +0.000 A 
ATOM     11  C   UNL     1       7.373   5.391  14.760  0.00  0.00    +0.000 A 
ATOM     12  C   UNL     1       6.323   5.369  15.695  0.00  0.00    +0.000 A 
ATOM     13  O   UNL     1       3.246   3.387  16.301  0.00  0.00    +0.000 OA
ATOM     14  C   UNL     1       2.309   3.201  17.273  0.00  0.00    +0.000 C 
ATOM     15  O   UNL     1       1.847   2.099  17.547  0.00  0.00    +0.000 OA
ATOM     16  C   UNL     1       1.850   4.470  17.912  0.00  0.00    +0.000 C 
ATOM     17  C   UNL     1       3.058   5.130  18.579  0.00  0.00    +0.000 C 
ENDROOT
BRANCH  17  18
ATOM     18  C   UNL     1       2.545   6.390  19.264  0.00  0.00    +0.000 A 
ATOM     19  C   UNL     1       2.064   6.280  20.581  0.00  0.00    +0.000 A 
ATOM     20  C   UNL     1       1.358   7.325  21.180  0.00  0.00    +0.000 A 
ATOM     21  C   UNL     1       1.119   8.509  20.476  0.00  0.00    +0.000 A 
ATOM     22  C   UNL     1       1.686   8.663  19.200  0.00  0.00    +0.000 A 
ATOM     23  C   UNL     1       2.393   7.615  18.598  0.00  0.00    +0.000 A 
BRANCH  21  24
ATOM     24  C   UNL     1       0.214   9.575  21.042  0.00  0.00    +0.000 C 
ATOM     25  F   UNL     1      -0.533   9.152  22.104  0.00  0.00    +0.000 F 
ATOM     26  F   UNL     1       0.887  10.677  21.473  0.00  0.00    +0.000 F 
ATOM     27  F   UNL     1      -0.685  10.024  20.120  0.00  0.00    +0.000 F 
ENDBRANCH  21  24
ENDBRANCH  17  18
TORSDOF 2
ENDMDL
MODEL 3
REMARK VINA RESULT:      -7.6      6.730      9.784
REMARK  Name = 
REMARK  3 active torsions:
REMARK  status: ('A' for Active; 'I' for Inactive)
REMARK    1  A    between atoms: C_1  and  N_2
REMARK    2  A    between atoms: C_17  and  C_18
REMARK    3  A    between atoms: C_21  and  C_22
REMARK                            x       y       z     vdW  Elec       q    Type
REMARK                         _______ _______ _______ _____ _____    ______ ____
ROOT
ATOM      1  C   UNL     1       1.873   6.680  19.586  0.00  0.00    +0.000 C 
ATOM      2  N   UNL     1       2.787   5.850  18.818  0.00  0.00    +0.000 N 
ATOM      3  C   UNL     1       3.836   6.483  18.160  0.00  0.00    +0.000 A 
ATOM      4  O   UNL     1       3.961   7.705  18.128  0.00  0.00    +0.000 OA
ATOM      5  C   UNL     1       4.811   5.631  17.427  0.00  0.00    +0.000 A 
ATOM      6  C   UNL     1       4.548   4.323  17.261  0.00  0.00    +0.000 A 
ATOM      7  C   UNL     1       3.400   3.675  17.899  0.00  0.00    +0.000 A 
ATOM      8  C   UNL     1       3.153   2.300  17.740  0.00  0.00    +0.000 A 
ATOM      9  C   UNL     1       2.039   1.702  18.335  0.00  0.00    +0.000 A 
ATOM     10  C   UNL     1       1.165   2.470  19.087  0.00  0.00    +0.000 A 
ATOM     11  C   UNL     1       1.405   3.838  19.257  0.00  0.00    +0.000 A 
ATOM     12  C   UNL     1       2.527   4.452  18.674  0.00  0.00    +0.000 A 
ATOM     13  O   UNL     1       5.258   3.506  16.350  0.00  0.00    +0.000 OA
ATOM     14  C   UNL     1       6.245   4.096  15.616  0.00  0.00    +0.000 C 
ATOM     15  O   UNL     1       6.534   3.735  14.482  0.00  0.00    +0.000 OA
ATOM     16  C   UNL     1       6.981   5.164  16.356  0.00  0.00    +0.000 C 
ATOM     17  C   UNL     1       5.983   6.263  16.723  0.00  0.00    +0.000 C 
ENDROOT
BRANCH  17  18
ATOM     18  C   UNL     1       6.777   7.357  17.426  0.00  0.00    +0.000 A 
ATOM     19  C   UNL     1       6.526   8.694  17.067  0.00  0.00    +0.000 A 
ATOM     20  C   UNL     1       7.374   9.722  17.481  0.00  0.00    +0.000 A 
ATOM     21  C   UNL     1       8.493   9.438  18.270  0.00  0.00    +0.000 A 
ATOM     22  C   UNL     1       8.690   8.121  18.716  0.00  0.00    +0.000 A 
ATOM     23  C   UNL     1       7.840   7.089  18.299  0.00  0.00    +0.000 A 
BRANCH  21  24
ATOM     24  C   UNL     1       9.511  10.508  18.580  0.00  0.00    +0.000 C 
ATOM     25  F   UNL     1       8.962  11.738  18.803  0.00  0.00    +0.000 F 
ATOM     26  F   UNL     1      10.264  10.229  19.678  0.00  0.00    +0.000 F 
ATOM     27  F   UNL     1      10.395  10.684  17.556  0.00  0.00    +0.000 F 
ENDBRANCH  21  24
ENDBRANCH  17  18
TORSDOF 2
ENDMDL
MODEL 4
REMARK VINA RESULT:      -7.4      1.643      2.012
REMARK  Name = 
REMARK  3 active torsions:
REMARK  status: ('A' for Active; 'I' for Inactive)
REMARK    1  A    between atoms: C_1  and  N_2
REMARK    2  A    between atoms: C_17  and  C_18
REMARK    3  A    between atoms: C_21  and  C_22
REMARK                            x       y       z     vdW  Elec       q    Type
REMARK                         _______ _______ _______ _____ _____    ______ ____
ROOT
ATOM      1  C   UNL     1       2.063  14.446  21.362  0.00  0.00    +0.000 C 
ATOM      2  N   UNL     1       0.836  13.860  20.846  0.00  0.00    +0.000 N 
ATOM      3  C   UNL     1       0.952  12.759  20.005  0.00  0.00    +0.000 A 
ATOM      4  O   UNL     1       2.036  12.331  19.614  0.00  0.00    +0.000 OA
ATOM      5  C   UNL     1      -0.301  12.116  19.526  0.00  0.00    +0.000 A 
ATOM      6  C   UNL     1      -1.480  12.720  19.755  0.00  0.00    +0.000 A 
ATOM      7  C   UNL     1      -1.588  13.922  20.585  0.00  0.00    +0.000 A 
ATOM      8  C   UNL     1      -2.831  14.527  20.841  0.00  0.00    +0.000 A 
ATOM      9  C   UNL     1      -2.914  15.688  21.613  0.00  0.00    +0.000 A 
ATOM     10  C   UNL     1      -1.760  16.254  22.131  0.00  0.00    +0.000 A 
ATOM     11  C   UNL     1      -0.518  15.657  21.889  0.00  0.00    +0.000 A 
ATOM     12  C   UNL     1      -0.419  14.482  21.122  0.00  0.00    +0.000 A 
ATOM     13  O   UNL     1      -2.677  12.340  19.103  0.00  0.00    +0.000 OA
ATOM     14  C   UNL     1      -2.605  11.318  18.204  0.00  0.00    +0.000 C 
ATOM     15  O   UNL     1      -3.327  11.251  17.217  0.00  0.00    +0.000 OA
ATOM     16  C   UNL     1      -1.620  10.261  18.580  0.00  0.00    +0.000 C 
ATOM     17  C   UNL     1      -0.232  10.902  18.637  0.00  0.00    +0.000 C 
ENDROOT
BRANCH  17  18
ATOM     18  C   UNL     1       0.751   9.786  18.970  0.00  0.00    +0.000 A 
ATOM     19  C   UNL     1       1.499   9.226  17.919  0.00  0.00    +0.000 A 
ATOM     20  C   UNL     1       2.227   8.050  18.100  0.00  0.00    +0.000 A 
ATOM     21  C   UNL     1       2.230   7.406  19.342  0.00  0.00    +0.000 A 
ATOM     22  C   UNL     1       1.570   8.017  20.421  0.00  0.00    +0.000 A 
ATOM     23  C   UNL     1       0.837   9.196  20.238  0.00  0.00    +0.000 A 
BRANCH  21  24
ATOM     24  C   UNL     1       2.868   6.049  19.507  0.00  0.00    +0.000 C 
ATOM     25  F   UNL     1       2.592   5.186  18.486  0.00  0.00    +0.000 F 
ATOM     26  F   UNL     1       4.225   6.102  19.596  0.00  0.00    +0.000 F 
ATOM     27  F   UNL     1       2.444   5.420  20.640  0.00  0.00    +0.000 F 
ENDBRANCH  21  24
ENDBRANCH  17  18
TORSDOF 2
ENDMDL
MODEL 5
REMARK VINA RESULT:      -7.3      2.655      3.293
REMARK  Name = 
REMARK  3 active torsions:
REMARK  status: ('A' for Active; 'I' for Inactive)
REMARK    1  A    between atoms: C_1  and  N_2
REMARK    2  A    between atoms: C_17  and  C_18
REMARK    3  A    between atoms: C_21  and  C_22
REMARK                            x       y       z     vdW  Elec       q    Type
REMARK                         _______ _______ _______ _____ _____    ______ ____
ROOT
ATOM      1  C   UNL     1      -0.428  13.284  22.585  0.00  0.00    +0.000 C 
ATOM      2  N   UNL     1      -1.138  12.765  21.426  0.00  0.00    +0.000 N 
ATOM      3  C   UNL     1      -0.403  12.049  20.488  0.00  0.00    +0.000 A 
ATOM      4  O   UNL     1       0.818  11.923  20.553  0.00  0.00    +0.000 OA
ATOM      5  C   UNL     1      -1.136  11.461  19.334  0.00  0.00    +0.000 A 
ATOM      6  C   UNL     1      -2.422  11.794  19.132  0.00  0.00    +0.000 A 
ATOM      7  C   UNL     1      -3.173  12.610  20.091  0.00  0.00    +0.000 A 
ATOM      8  C   UNL     1      -4.526  12.927  19.881  0.00  0.00    +0.000 A 
ATOM      9  C   UNL     1      -5.221  13.727  20.792  0.00  0.00    +0.000 A 
ATOM     10  C   UNL     1      -4.570  14.217  21.913  0.00  0.00    +0.000 A 
ATOM     11  C   UNL     1      -3.225  13.902  22.135  0.00  0.00    +0.000 A 
ATOM     12  C   UNL     1      -2.516  13.089  21.233  0.00  0.00    +0.000 A 
ATOM     13  O   UNL     1      -3.107  11.519  17.925  0.00  0.00    +0.000 OA
ATOM     14  C   UNL     1      -2.409  10.890  16.937  0.00  0.00    +0.000 C 
ATOM     15  O   UNL     1      -2.627  11.081  15.746  0.00  0.00    +0.000 OA
ATOM     16  C   UNL     1      -1.414   9.901  17.446  0.00  0.00    +0.000 C 
ATOM     17  C   UNL     1      -0.393  10.650  18.305  0.00  0.00    +0.000 C 
ENDROOT
BRANCH  17  18
ATOM     18  C   UNL     1       0.634   9.621  18.761  0.00  0.00    +0.000 A 
ATOM     19  C   UNL     1       1.544   9.126  17.811  0.00  0.00    +0.000 A 
ATOM     20  C   UNL     1       2.342   8.016  18.088  0.00  0.00    +0.000 A 
ATOM     21  C   UNL     1       2.253   7.374  19.328  0.00  0.00    +0.000 A 
ATOM     22  C   UNL     1       1.421   7.927  20.316  0.00  0.00    +0.000 A 
ATOM     23  C   UNL     1       0.618   9.040  20.037  0.00  0.00    +0.000 A 
BRANCH  21  24
ATOM     24  C   UNL     1       2.978   6.076  19.580  0.00  0.00    +0.000 C 
ATOM     25  F   UNL     1       4.335   6.209  19.641  0.00  0.00    +0.000 F 
ATOM     26  F   UNL     1       2.609   5.474  20.744  0.00  0.00    +0.000 F 
ATOM     27  F   UNL     1       2.746   5.161  18.596  0.00  0.00    +0.000 F 
ENDBRANCH  21  24
ENDBRANCH  17  18
TORSDOF 2
ENDMDL
MODEL 6
REMARK VINA RESULT:      -7.2      6.501      9.605
REMARK  Name = 
REMARK  3 active torsions:
REMARK  status: ('A' for Active; 'I' for Inactive)
REMARK    1  A    between atoms: C_1  and  N_2
REMARK    2  A    between atoms: C_17  and  C_18
REMARK    3  A    between atoms: C_21  and  C_22
REMARK                            x       y       z     vdW  Elec       q    Type
REMARK                         _______ _______ _______ _____ _____    ______ ____
ROOT
ATOM      1  C   UNL     1       2.292   7.165  19.694  0.00  0.00    +0.000 C 
ATOM      2  N   UNL     1       3.047   6.182  18.933  0.00  0.00    +0.000 N 
ATOM      3  C   UNL     1       4.115   6.639  18.170  0.00  0.00    +0.000 A 
ATOM      4  O   UNL     1       4.381   7.833  18.044  0.00  0.00    +0.000 OA
ATOM      5  C   UNL     1       4.930   5.631  17.440  0.00  0.00    +0.000 A 
ATOM      6  C   UNL     1       4.504   4.357  17.382  0.00  0.00    +0.000 A 
ATOM      7  C   UNL     1       3.333   3.895  18.134  0.00  0.00    +0.000 A 
ATOM      8  C   UNL     1       2.915   2.554  18.087  0.00  0.00    +0.000 A 
ATOM      9  C   UNL     1       1.782   2.135  18.788  0.00  0.00    +0.000 A 
ATOM     10  C   UNL     1       1.059   3.050  19.536  0.00  0.00    +0.000 A 
ATOM     11  C   UNL     1       1.469   4.386  19.595  0.00  0.00    +0.000 A 
ATOM     12  C   UNL     1       2.613   4.821  18.903  0.00  0.00    +0.000 A 
ATOM     13  O   UNL     1       5.048   3.404  16.490  0.00  0.00    +0.000 OA
ATOM     14  C   UNL     1       6.045   3.821  15.659  0.00  0.00    +0.000 C 
ATOM     15  O   UNL     1       6.211   3.357  14.536  0.00  0.00    +0.000 OA
ATOM     16  C   UNL     1       6.951   4.835  16.275  0.00  0.00    +0.000 C 
ATOM     17  C   UNL     1       6.117   6.069  16.624  0.00  0.00    +0.000 C 
ENDROOT
BRANCH  17  18
ATOM     18  C   UNL     1       7.081   7.100  17.199  0.00  0.00    +0.000 A 
ATOM     19  C   UNL     1       7.834   6.744  18.332  0.00  0.00    +0.000 A 
ATOM     20  C   UNL     1       8.545   7.703  19.054  0.00  0.00    +0.000 A 
ATOM     21  C   UNL     1       8.523   9.044  18.658  0.00  0.00    +0.000 A 
ATOM     22  C   UNL     1       7.858   9.387  17.469  0.00  0.00    +0.000 A 
ATOM     23  C   UNL     1       7.143   8.425  16.745  0.00  0.00    +0.000 A 
BRANCH  21  24
ATOM     24  C   UNL     1       9.141  10.116  19.522  0.00  0.00    +0.000 C 
ATOM     25  F   UNL     1       8.947   9.920  20.859  0.00  0.00    +0.000 F 
ATOM     26  F   UNL     1      10.486  10.232  19.351  0.00  0.00    +0.000 F 
ATOM     27  F   UNL     1       8.623  11.348  19.256  0.00  0.00    +0.000 F 
ENDBRANCH  21  24
ENDBRANCH  17  18
TORSDOF 2
ENDMDL
MODEL 7
REMARK VINA RESULT:      -7.1      4.165      6.167
REMARK  Name = 
REMARK  3 active torsions:
REMARK  status: ('A' for Active; 'I' for Inactive)
REMARK    1  A    between atoms: C_1  and  N_2
REMARK    2  A    between atoms: C_17  and  C_18
REMARK    3  A    between atoms: C_21  and  C_22
REMARK                            x       y       z     vdW  Elec       q    Type
REMARK                         _______ _______ _______ _____ _____    ______ ____
ROOT
ATOM      1  C   UNL     1       1.543  10.727  18.010  0.00  0.00    +0.000 C 
ATOM      2  N   UNL     1       1.549   9.558  18.875  0.00  0.00    +0.000 N 
ATOM      3  C   UNL     1       1.930   8.344  18.315  0.00  0.00    +0.000 A 
ATOM      4  O   UNL     1       2.167   8.208  17.116  0.00  0.00    +0.000 OA
ATOM      5  C   UNL     1       2.001   7.157  19.209  0.00  0.00    +0.000 A 
ATOM      6  C   UNL     1       1.517   7.247  20.461  0.00  0.00    +0.000 A 
ATOM      7  C   UNL     1       1.050   8.517  21.023  0.00  0.00    +0.000 A 
ATOM      8  C   UNL     1       0.573   8.602  22.343  0.00  0.00    +0.000 A 
ATOM      9  C   UNL     1       0.107   9.814  22.856  0.00  0.00    +0.000 A 
ATOM     10  C   UNL     1       0.110  10.946  22.057  0.00  0.00    +0.000 A 
ATOM     11  C   UNL     1       0.588  10.875  20.744  0.00  0.00    +0.000 A 
ATOM     12  C   UNL     1       1.070   9.664  20.217  0.00  0.00    +0.000 A 
ATOM     13  O   UNL     1       1.282   6.115  21.276  0.00  0.00    +0.000 OA
ATOM     14  C   UNL     1       1.561   4.890  20.746  0.00  0.00    +0.000 C 
ATOM     15  O   UNL     1       0.935   3.880  21.044  0.00  0.00    +0.000 OA
ATOM     16  C   UNL     1       2.742   4.891  19.833  0.00  0.00    +0.000 C 
ATOM     17  C   UNL     1       2.438   5.825  18.660  0.00  0.00    +0.000 C 
ENDROOT
BRANCH  17  18
ATOM     18  C   UNL     1       3.639   5.758  17.725  0.00  0.00    +0.000 A 
ATOM     19  C   UNL     1       3.662   4.750  16.745  0.00  0.00    +0.000 A 
ATOM     20  C   UNL     1       4.823   4.474  16.023  0.00  0.00    +0.000 A 
ATOM     21  C   UNL     1       5.992   5.204  16.261  0.00  0.00    +0.000 A 
ATOM     22  C   UNL     1       5.946   6.279  17.163  0.00  0.00    +0.000 A 
ATOM     23  C   UNL     1       4.781   6.555  17.890  0.00  0.00    +0.000 A 
BRANCH  21  24
ATOM     24  C   UNL     1       7.297   4.805  15.616  0.00  0.00    +0.000 C 
ATOM     25  F   UNL     1       7.154   3.896  14.608  0.00  0.00    +0.000 F 
ATOM     26  F   UNL     1       7.972   5.857  15.078  0.00  0.00    +0.000 F 
ATOM     27  F   UNL     1       8.152   4.229  16.508  0.00  0.00    +0.000 F 
ENDBRANCH  21  24
ENDBRANCH  17  18
TORSDOF 2
ENDMDL
MODEL 8
REMARK VINA RESULT:      -7.1      2.171      2.754
REMARK  Name = 
REMARK  3 active torsions:
REMARK  status: ('A' for Active; 'I' for Inactive)
REMARK    1  A    between atoms: C_1  and  N_2
REMARK    2  A    between atoms: C_17  and  C_18
REMARK    3  A    between atoms: C_21  and  C_22
REMARK                            x       y       z     vdW  Elec       q    Type
REMARK                         _______ _______ _______ _____ _____    ______ ____
ROOT
ATOM      1  C   UNL     1       0.732  14.267  21.950  0.00  0.00    +0.000 C 
ATOM      2  N   UNL     1      -0.328  13.606  21.205  0.00  0.00    +0.000 N 
ATOM      3  C   UNL     1       0.044  12.690  20.228  0.00  0.00    +0.000 A 
ATOM      4  O   UNL     1       1.216  12.492  19.913  0.00  0.00    +0.000 OA
ATOM      5  C   UNL     1      -1.036  11.964  19.508  0.00  0.00    +0.000 A 
ATOM      6  C   UNL     1      -2.314  12.346  19.680  0.00  0.00    +0.000 A 
ATOM      7  C   UNL     1      -2.694  13.365  20.663  0.00  0.00    +0.000 A 
ATOM      8  C   UNL     1      -4.037  13.735  20.852  0.00  0.00    +0.000 A 
ATOM      9  C   UNL     1      -4.380  14.726  21.775  0.00  0.00    +0.000 A 
ATOM     10  C   UNL     1      -3.388  15.355  22.509  0.00  0.00    +0.000 A 
ATOM     11  C   UNL     1      -2.049  14.991  22.334  0.00  0.00    +0.000 A 
ATOM     12  C   UNL     1      -1.689  13.988  21.417  0.00  0.00    +0.000 A 
ATOM     13  O   UNL     1      -3.365  11.915  18.838  0.00  0.00    +0.000 OA
ATOM     14  C   UNL     1      -3.042  11.078  17.810  0.00  0.00    +0.000 C 
ATOM     15  O   UNL     1      -3.645  11.075  16.743  0.00  0.00    +0.000 OA
ATOM     16  C   UNL     1      -1.942  10.124  18.140  0.00  0.00    +0.000 C 
ATOM     17  C   UNL     1      -0.687  10.938  18.463  0.00  0.00    +0.000 C 
ENDROOT
BRANCH  17  18
ATOM     18  C   UNL     1       0.425   9.935  18.740  0.00  0.00    +0.000 A 
ATOM     19  C   UNL     1       1.273   9.573  17.679  0.00  0.00    +0.000 A 
ATOM     20  C   UNL     1       2.146   8.491  17.791  0.00  0.00    +0.000 A 
ATOM     21  C   UNL     1       2.196   7.744  18.972  0.00  0.00    +0.000 A 
ATOM     22  C   UNL     1       1.427   8.163  20.070  0.00  0.00    +0.000 A 
ATOM     23  C   UNL     1       0.549   9.249  19.957  0.00  0.00    +0.000 A 
BRANCH  21  24
ATOM     24  C   UNL     1       3.003   6.472  19.049  0.00  0.00    +0.000 C 
ATOM     25  F   UNL     1       4.276   6.602  18.573  0.00  0.00    +0.000 F 
ATOM     26  F   UNL     1       3.125   5.990  20.316  0.00  0.00    +0.000 F 
ATOM     27  F   UNL     1       2.443   5.466  18.319  0.00  0.00    +0.000 F 
ENDBRANCH  21  24
ENDBRANCH  17  18
TORSDOF 2
ENDMDL
MODEL 9
REMARK VINA RESULT:      -6.9      4.332      6.717
REMARK  Name = 
REMARK  3 active torsions:
REMARK  status: ('A' for Active; 'I' for Inactive)
REMARK    1  A    between atoms: C_1  and  N_2
REMARK    2  A    between atoms: C_17  and  C_18
REMARK    3  A    between atoms: C_21  and  C_22
REMARK                            x       y       z     vdW  Elec       q    Type
REMARK                         _______ _______ _______ _____ _____    ______ ____
ROOT
ATOM      1  C   UNL     1      -3.596  10.985  16.308  0.00  0.00    +0.000 C 
ATOM      2  N   UNL     1      -3.570  11.547  17.649  0.00  0.00    +0.000 N 
ATOM      3  C   UNL     1      -2.328  11.750  18.238  0.00  0.00    +0.000 A 
ATOM      4  O   UNL     1      -1.275  11.391  17.715  0.00  0.00    +0.000 OA
ATOM      5  C   UNL     1      -2.293  12.384  19.584  0.00  0.00    +0.000 A 
ATOM      6  C   UNL     1      -3.442  12.560  20.259  0.00  0.00    +0.000 A 
ATOM      7  C   UNL     1      -4.747  12.276  19.656  0.00  0.00    +0.000 A 
ATOM      8  C   UNL     1      -5.943  12.491  20.364  0.00  0.00    +0.000 A 
ATOM      9  C   UNL     1      -7.178  12.191  19.785  0.00  0.00    +0.000 A 
ATOM     10  C   UNL     1      -7.228  11.673  18.501  0.00  0.00    +0.000 A 
ATOM     11  C   UNL     1      -6.045  11.461  17.785  0.00  0.00    +0.000 A 
ATOM     12  C   UNL     1      -4.795  11.768  18.350  0.00  0.00    +0.000 A 
ATOM     13  O   UNL     1      -3.483  12.884  21.635  0.00  0.00    +0.000 OA
ATOM     14  C   UNL     1      -2.291  13.015  22.285  0.00  0.00    +0.000 C 
ATOM     15  O   UNL     1      -2.147  12.736  23.469  0.00  0.00    +0.000 OA
ATOM     16  C   UNL     1      -1.210  13.598  21.436  0.00  0.00    +0.000 C 
ATOM     17  C   UNL     1      -0.972  12.656  20.254  0.00  0.00    +0.000 C 
ENDROOT
BRANCH  17  18
ATOM     18  C   UNL     1       0.171  13.253  19.443  0.00  0.00    +0.000 A 
ATOM     19  C   UNL     1       1.289  12.443  19.175  0.00  0.00    +0.000 A 
ATOM     20  C   UNL     1       2.465  12.987  18.659  0.00  0.00    +0.000 A 
ATOM     21  C   UNL     1       2.551  14.357  18.391  0.00  0.00    +0.000 A 
ATOM     22  C   UNL     1       1.405  15.152  18.559  0.00  0.00    +0.000 A 
ATOM     23  C   UNL     1       0.224  14.606  19.080  0.00  0.00    +0.000 A 
BRANCH  21  24
ATOM     24  C   UNL     1       3.864  14.988  17.998  0.00  0.00    +0.000 C 
ATOM     25  F   UNL     1       4.894  14.096  17.909  0.00  0.00    +0.000 F 
ATOM     26  F   UNL     1       3.814  15.623  16.796  0.00  0.00    +0.000 F 
ATOM     27  F   UNL     1       4.271  15.925  18.900  0.00  0.00    +0.000 F 
ENDBRANCH  21  24
ENDBRANCH  17  18
TORSDOF 2
ENDMDL
