MODEL 1
REMARK VINA RESULT:      -6.1      0.000      0.000
REMARK  Name = 
REMARK  7 active torsions:
REMARK  status: ('A' for Active; 'I' for Inactive)
REMARK    1  A    between atoms: C_1  and  N_2
REMARK    2  A    between atoms: N_2  and  C_3
REMARK    3  A    between atoms: N_2  and  C_11
REMARK    4  A    between atoms: C_3  and  C_4
REMARK    5  A    between atoms: C_4  and  C_5
REMARK    6  A    between atoms: C_11  and  C_12
REMARK    7  A    between atoms: C_12  and  C_13
REMARK                            x       y       z     vdW  Elec       q    Type
REMARK                         _______ _______ _______ _____ _____    ______ ____
ROOT
ATOM      1  C   UNL     1       5.643   4.441  18.264  0.00  0.00    +0.000 C 
ATOM      2  N   UNL     1       5.047   5.707  17.810  0.00  0.00    +0.000 NA
ENDROOT
BRANCH   2   3
ATOM      3  C   UNL     1       5.736   6.127  16.555  0.00  0.00    +0.000 C 
BRANCH   3   4
ATOM      4  C   UNL     1       6.954   5.271  16.174  0.00  0.00    +0.000 C 
BRANCH   4   5
ATOM      5  C   UNL     1       6.939   4.890  14.713  0.00  0.00    +0.000 A 
ATOM      6  C   UNL     1       6.050   3.933  14.231  0.00  0.00    +0.000 A 
ATOM      7  C   UNL     1       6.109   3.583  12.883  0.00  0.00    +0.000 A 
ATOM      8  C   UNL     1       7.043   4.195  12.056  0.00  0.00    +0.000 A 
ATOM      9  C   UNL     1       7.879   5.146  12.613  0.00  0.00    +0.000 A 
ATOM     10  N   UNL     1       7.845   5.508  13.915  0.00  0.00    +0.000 NA
ENDBRANCH   4   5
ENDBRANCH   3   4
ENDBRANCH   2   3
BRANCH   2  11
ATOM     11  C   UNL     1       3.591   5.544  17.582  0.00  0.00    +0.000 C 
BRANCH  11  12
ATOM     12  C   UNL     1       2.707   5.915  18.785  0.00  0.00    +0.000 C 
BRANCH  12  13
ATOM     13  C   UNL     1       2.042   4.699  19.350  0.00  0.00    +0.000 A 
ATOM     14  N   UNL     1       1.341   3.843  18.628  0.00  0.00    +0.000 NA
ATOM     15  C   UNL     1       0.888   2.821  19.432  0.00  0.00    +0.000 A 
ATOM     16  C   UNL     1       1.243   2.904  20.759  0.00  0.00    +0.000 A 
ATOM     17  S   UNL     1       2.168   4.322  21.023  0.00  0.00    +0.000 S 
ENDBRANCH  12  13
ENDBRANCH  11  12
ENDBRANCH   2  11
TORSDOF 6
ENDMDL
MODEL 2
REMARK VINA RESULT:      -6.0      1.173      1.398
REMARK  Name = 
REMARK  7 active torsions:
REMARK  status: ('A' for Active; 'I' for Inactive)
REMARK    1  A    between atoms: C_1  and  N_2
REMARK    2  A    between atoms: N_2  and  C_3
REMARK    3  A    between atoms: N_2  and  C_11
REMARK    4  A    between atoms: C_3  and  C_4
REMARK    5  A    between atoms: C_4  and  C_5
REMARK    6  A    between atoms: C_11  and  C_12
REMARK    7  A    between atoms: C_12  and  C_13
REMARK                            x       y       z     vdW  Elec       q    Type
REMARK                         _______ _______ _______ _____ _____    ______ ____
ROOT
ATOM      1  C   UNL     1       7.116   6.644  17.770  0.00  0.00    +0.000 C 
ATOM      2  N   UNL     1       5.677   6.358  17.655  0.00  0.00    +0.000 NA
ENDROOT
BRANCH   2   3
ATOM      3  C   UNL     1       5.398   5.907  16.260  0.00  0.00    +0.000 C 
BRANCH   3   4
ATOM      4  C   UNL     1       6.017   4.550  15.889  0.00  0.00    +0.000 C 
BRANCH   4   5
ATOM      5  C   UNL     1       6.469   4.512  14.449  0.00  0.00    +0.000 A 
ATOM      6  C   UNL     1       5.864   3.659  13.530  0.00  0.00    +0.000 A 
ATOM      7  C   UNL     1       6.349   3.629  12.224  0.00  0.00    +0.000 A 
ATOM      8  C   UNL     1       7.415   4.447  11.869  0.00  0.00    +0.000 A 
ATOM      9  C   UNL     1       7.948   5.276  12.840  0.00  0.00    +0.000 A 
ATOM     10  N   UNL     1       7.498   5.329  14.114  0.00  0.00    +0.000 NA
ENDBRANCH   4   5
ENDBRANCH   3   4
ENDBRANCH   2   3
BRANCH   2  11
ATOM     11  C   UNL     1       5.272   5.321  18.634  0.00  0.00    +0.000 C 
BRANCH  11  12
ATOM     12  C   UNL     1       3.860   5.504  19.215  0.00  0.00    +0.000 C 
BRANCH  12  13
ATOM     13  C   UNL     1       2.998   4.321  18.900  0.00  0.00    +0.000 A 
ATOM     14  N   UNL     1       3.277   3.441  17.956  0.00  0.00    +0.000 NA
ATOM     15  C   UNL     1       2.309   2.461  17.937  0.00  0.00    +0.000 A 
ATOM     16  C   UNL     1       1.302   2.600  18.864  0.00  0.00    +0.000 A 
ATOM     17  S   UNL     1       1.558   4.018  19.789  0.00  0.00    +0.000 S 
ENDBRANCH  12  13
ENDBRANCH  11  12
ENDBRANCH   2  11
TORSDOF 6
ENDMDL
MODEL 3
REMARK VINA RESULT:      -5.9      2.562      3.799
REMARK  Name = 
REMARK  7 active torsions:
REMARK  status: ('A' for Active; 'I' for Inactive)
REMARK    1  A    between atoms: C_1  and  N_2
REMARK    2  A    between atoms: N_2  and  C_3
REMARK    3  A    between atoms: N_2  and  C_11
REMARK    4  A    between atoms: C_3  and  C_4
REMARK    5  A    between atoms: C_4  and  C_5
REMARK    6  A    between atoms: C_11  and  C_12
REMARK    7  A    between atoms: C_12  and  C_13
REMARK                            x       y       z     vdW  Elec       q    Type
REMARK                         _______ _______ _______ _____ _____    ______ ____
ROOT
ATOM      1  C   UNL     1       3.625   5.391  17.508  0.00  0.00    +0.000 C 
ATOM      2  N   UNL     1       3.947   4.161  16.767  0.00  0.00    +0.000 NA
ENDROOT
BRANCH   2   3
ATOM      3  C   UNL     1       5.032   4.470  15.790  0.00  0.00    +0.000 C 
BRANCH   3   4
ATOM      4  C   UNL     1       6.448   4.117  16.271  0.00  0.00    +0.000 C 
BRANCH   4   5
ATOM      5  C   UNL     1       7.024   5.191  17.162  0.00  0.00    +0.000 A 
ATOM      6  C   UNL     1       7.043   6.523  16.759  0.00  0.00    +0.000 A 
ATOM      7  C   UNL     1       7.628   7.469  17.598  0.00  0.00    +0.000 A 
ATOM      8  C   UNL     1       8.174   7.066  18.811  0.00  0.00    +0.000 A 
ATOM      9  C   UNL     1       8.100   5.724  19.141  0.00  0.00    +0.000 A 
ATOM     10  N   UNL     1       7.537   4.784  18.350  0.00  0.00    +0.000 NA
ENDBRANCH   4   5
ENDBRANCH   3   4
ENDBRANCH   2   3
BRANCH   2  11
ATOM     11  C   UNL     1       4.369   3.087  17.699  0.00  0.00    +0.000 C 
BRANCH  11  12
ATOM     12  C   UNL     1       3.268   2.072  18.048  0.00  0.00    +0.000 C 
BRANCH  12  13
ATOM     13  C   UNL     1       2.671   2.374  19.387  0.00  0.00    +0.000 A 
ATOM     14  N   UNL     1       3.373   2.450  20.503  0.00  0.00    +0.000 NA
ATOM     15  C   UNL     1       2.541   2.772  21.553  0.00  0.00    +0.000 A 
ATOM     16  C   UNL     1       1.213   2.938  21.231  0.00  0.00    +0.000 A 
ATOM     17  S   UNL     1       0.985   2.666  19.555  0.00  0.00    +0.000 S 
ENDBRANCH  12  13
ENDBRANCH  11  12
ENDBRANCH   2  11
TORSDOF 6
ENDMDL
MODEL 4
REMARK VINA RESULT:      -5.9      1.022      1.091
REMARK  Name = 
REMARK  7 active torsions:
REMARK  status: ('A' for Active; 'I' for Inactive)
REMARK    1  A    between atoms: C_1  and  N_2
REMARK    2  A    between atoms: N_2  and  C_3
REMARK    3  A    between atoms: N_2  and  C_11
REMARK    4  A    between atoms: C_3  and  C_4
REMARK    5  A    between atoms: C_4  and  C_5
REMARK    6  A    between atoms: C_11  and  C_12
REMARK    7  A    between atoms: C_12  and  C_13
REMARK                            x       y       z     vdW  Elec       q    Type
REMARK                         _______ _______ _______ _____ _____    ______ ____
ROOT
ATOM      1  C   UNL     1       5.947   4.243  18.091  0.00  0.00    +0.000 C 
ATOM      2  N   UNL     1       4.691   4.852  17.624  0.00  0.00    +0.000 NA
ENDROOT
BRANCH   2   3
ATOM      3  C   UNL     1       4.994   5.705  16.438  0.00  0.00    +0.000 C 
BRANCH   3   4
ATOM      4  C   UNL     1       6.462   5.675  15.984  0.00  0.00    +0.000 C 
BRANCH   4   5
ATOM      5  C   UNL     1       6.612   5.093  14.600  0.00  0.00    +0.000 A 
ATOM      6  C   UNL     1       5.700   4.163  14.110  0.00  0.00    +0.000 A 
ATOM      7  C   UNL     1       5.910   3.622  12.843  0.00  0.00    +0.000 A 
ATOM      8  C   UNL     1       7.014   4.022  12.100  0.00  0.00    +0.000 A 
ATOM      9  C   UNL     1       7.863   4.963  12.656  0.00  0.00    +0.000 A 
ATOM     10  N   UNL     1       7.685   5.507  13.880  0.00  0.00    +0.000 NA
ENDBRANCH   4   5
ENDBRANCH   3   4
ENDBRANCH   2   3
BRANCH   2  11
ATOM     11  C   UNL     1       3.701   3.804  17.279  0.00  0.00    +0.000 C 
BRANCH  11  12
ATOM     12  C   UNL     1       2.269   4.089  17.762  0.00  0.00    +0.000 C 
BRANCH  12  13
ATOM     13  C   UNL     1       2.111   3.723  19.205  0.00  0.00    +0.000 A 
ATOM     14  N   UNL     1       1.718   2.533  19.621  0.00  0.00    +0.000 NA
ATOM     15  C   UNL     1       1.704   2.506  20.999  0.00  0.00    +0.000 A 
ATOM     16  C   UNL     1       2.084   3.672  21.622  0.00  0.00    +0.000 A 
ATOM     17  S   UNL     1       2.460   4.860  20.447  0.00  0.00    +0.000 S 
ENDBRANCH  12  13
ENDBRANCH  11  12
ENDBRANCH   2  11
TORSDOF 6
ENDMDL
MODEL 5
REMARK VINA RESULT:      -5.9      2.513      7.285
REMARK  Name = 
REMARK  7 active torsions:
REMARK  status: ('A' for Active; 'I' for Inactive)
REMARK    1  A    between atoms: C_1  and  N_2
REMARK    2  A    between atoms: N_2  and  C_3
REMARK    3  A    between atoms: N_2  and  C_11
REMARK    4  A    between atoms: C_3  and  C_4
REMARK    5  A    between atoms: C_4  and  C_5
REMARK    6  A    between atoms: C_11  and  C_12
REMARK    7  A    between atoms: C_12  and  C_13
REMARK                            x       y       z     vdW  Elec       q    Type
REMARK                         _______ _______ _______ _____ _____    ______ ____
ROOT
ATOM      1  C   UNL     1       7.458   5.921  18.976  0.00  0.00    +0.000 C 
ATOM      2  N   UNL     1       6.930   4.647  18.463  0.00  0.00    +0.000 NA
ENDROOT
BRANCH   2   3
ATOM      3  C   UNL     1       5.446   4.655  18.623  0.00  0.00    +0.000 C 
BRANCH   3   4
ATOM      4  C   UNL     1       4.801   3.262  18.691  0.00  0.00    +0.000 C 
BRANCH   4   5
ATOM      5  C   UNL     1       3.511   3.276  19.476  0.00  0.00    +0.000 A 
ATOM      6  C   UNL     1       2.361   3.863  18.954  0.00  0.00    +0.000 A 
ATOM      7  C   UNL     1       1.210   3.891  19.738  0.00  0.00    +0.000 A 
ATOM      8  C   UNL     1       1.233   3.335  21.012  0.00  0.00    +0.000 A 
ATOM      9  C   UNL     1       2.413   2.758  21.446  0.00  0.00    +0.000 A 
ATOM     10  N   UNL     1       3.545   2.714  20.709  0.00  0.00    +0.000 NA
ENDBRANCH   4   5
ENDBRANCH   3   4
ENDBRANCH   2   3
BRANCH   2  11
ATOM     11  C   UNL     1       7.305   4.462  17.041  0.00  0.00    +0.000 C 
BRANCH  11  12
ATOM     12  C   UNL     1       6.223   4.883  16.032  0.00  0.00    +0.000 C 
BRANCH  12  13
ATOM     13  C   UNL     1       6.747   4.812  14.632  0.00  0.00    +0.000 A 
ATOM     14  N   UNL     1       7.785   5.504  14.200  0.00  0.00    +0.000 NA
ATOM     15  C   UNL     1       8.031   5.195  12.880  0.00  0.00    +0.000 A 
ATOM     16  C   UNL     1       7.181   4.272  12.316  0.00  0.00    +0.000 A 
ATOM     17  S   UNL     1       6.014   3.779  13.468  0.00  0.00    +0.000 S 
ENDBRANCH  12  13
ENDBRANCH  11  12
ENDBRANCH   2  11
TORSDOF 6
ENDMDL
MODEL 6
REMARK VINA RESULT:      -5.9      2.450      7.258
REMARK  Name = 
REMARK  7 active torsions:
REMARK  status: ('A' for Active; 'I' for Inactive)
REMARK    1  A    between atoms: C_1  and  N_2
REMARK    2  A    between atoms: N_2  and  C_3
REMARK    3  A    between atoms: N_2  and  C_11
REMARK    4  A    between atoms: C_3  and  C_4
REMARK    5  A    between atoms: C_4  and  C_5
REMARK    6  A    between atoms: C_11  and  C_12
REMARK    7  A    between atoms: C_12  and  C_13
REMARK                            x       y       z     vdW  Elec       q    Type
REMARK                         _______ _______ _______ _____ _____    ______ ____
ROOT
ATOM      1  C   UNL     1       6.884   5.468  18.941  0.00  0.00    +0.000 C 
ATOM      2  N   UNL     1       5.786   5.119  18.025  0.00  0.00    +0.000 NA
ENDROOT
BRANCH   2   3
ATOM      3  C   UNL     1       4.581   5.907  18.416  0.00  0.00    +0.000 C 
BRANCH   3   4
ATOM      4  C   UNL     1       3.251   5.356  17.877  0.00  0.00    +0.000 C 
BRANCH   4   5
ATOM      5  C   UNL     1       2.508   4.559  18.921  0.00  0.00    +0.000 A 
ATOM      6  C   UNL     1       1.538   3.629  18.557  0.00  0.00    +0.000 A 
ATOM      7  C   UNL     1       0.848   2.953  19.561  0.00  0.00    +0.000 A 
ATOM      8  C   UNL     1       1.143   3.217  20.894  0.00  0.00    +0.000 A 
ATOM      9  C   UNL     1       2.132   4.144  21.167  0.00  0.00    +0.000 A 
ATOM     10  N   UNL     1       2.820   4.814  20.216  0.00  0.00    +0.000 NA
ENDBRANCH   4   5
ENDBRANCH   3   4
ENDBRANCH   2   3
BRANCH   2  11
ATOM     11  C   UNL     1       6.169   5.403  16.622  0.00  0.00    +0.000 C 
BRANCH  11  12
ATOM     12  C   UNL     1       5.877   4.262  15.633  0.00  0.00    +0.000 C 
BRANCH  12  13
ATOM     13  C   UNL     1       6.567   4.501  14.327  0.00  0.00    +0.000 A 
ATOM     14  N   UNL     1       7.554   5.363  14.165  0.00  0.00    +0.000 NA
ATOM     15  C   UNL     1       7.993   5.326  12.860  0.00  0.00    +0.000 A 
ATOM     16  C   UNL     1       7.338   4.439  12.036  0.00  0.00    +0.000 A 
ATOM     17  S   UNL     1       6.114   3.627  12.917  0.00  0.00    +0.000 S 
ENDBRANCH  12  13
ENDBRANCH  11  12
ENDBRANCH   2  11
TORSDOF 6
ENDMDL
MODEL 7
REMARK VINA RESULT:      -5.9      0.856      1.118
REMARK  Name = 
REMARK  7 active torsions:
REMARK  status: ('A' for Active; 'I' for Inactive)
REMARK    1  A    between atoms: C_1  and  N_2
REMARK    2  A    between atoms: N_2  and  C_3
REMARK    3  A    between atoms: N_2  and  C_11
REMARK    4  A    between atoms: C_3  and  C_4
REMARK    5  A    between atoms: C_4  and  C_5
REMARK    6  A    between atoms: C_11  and  C_12
REMARK    7  A    between atoms: C_12  and  C_13
REMARK                            x       y       z     vdW  Elec       q    Type
REMARK                         _______ _______ _______ _____ _____    ______ ____
ROOT
ATOM      1  C   UNL     1       4.380   7.370  16.984  0.00  0.00    +0.000 C 
ATOM      2  N   UNL     1       4.870   6.025  16.641  0.00  0.00    +0.000 NA
ENDROOT
BRANCH   2   3
ATOM      3  C   UNL     1       6.347   5.995  16.850  0.00  0.00    +0.000 C 
BRANCH   3   4
ATOM      4  C   UNL     1       7.040   4.720  16.346  0.00  0.00    +0.000 C 
BRANCH   4   5
ATOM      5  C   UNL     1       7.002   4.616  14.840  0.00  0.00    +0.000 A 
ATOM      6  C   UNL     1       6.188   3.680  14.207  0.00  0.00    +0.000 A 
ATOM      7  C   UNL     1       6.224   3.593  12.817  0.00  0.00    +0.000 A 
ATOM      8  C   UNL     1       7.062   4.437  12.098  0.00  0.00    +0.000 A 
ATOM      9  C   UNL     1       7.826   5.349  12.805  0.00  0.00    +0.000 A 
ATOM     10  N   UNL     1       7.812   5.458  14.152  0.00  0.00    +0.000 NA
ENDBRANCH   4   5
ENDBRANCH   3   4
ENDBRANCH   2   3
BRANCH   2  11
ATOM     11  C   UNL     1       4.200   4.999  17.475  0.00  0.00    +0.000 C 
BRANCH  11  12
ATOM     12  C   UNL     1       2.746   5.328  17.853  0.00  0.00    +0.000 C 
BRANCH  12  13
ATOM     13  C   UNL     1       2.086   4.151  18.501  0.00  0.00    +0.000 A 
ATOM     14  N   UNL     1       1.137   3.433  17.927  0.00  0.00    +0.000 NA
ATOM     15  C   UNL     1       0.761   2.407  18.766  0.00  0.00    +0.000 A 
ATOM     16  C   UNL     1       1.422   2.351  19.971  0.00  0.00    +0.000 A 
ATOM     17  S   UNL     1       2.548   3.637  20.075  0.00  0.00    +0.000 S 
ENDBRANCH  12  13
ENDBRANCH  11  12
ENDBRANCH   2  11
TORSDOF 6
ENDMDL
MODEL 8
REMARK VINA RESULT:      -5.9      2.360      3.831
REMARK  Name = 
REMARK  7 active torsions:
REMARK  status: ('A' for Active; 'I' for Inactive)
REMARK    1  A    between atoms: C_1  and  N_2
REMARK    2  A    between atoms: N_2  and  C_3
REMARK    3  A    between atoms: N_2  and  C_11
REMARK    4  A    between atoms: C_3  and  C_4
REMARK    5  A    between atoms: C_4  and  C_5
REMARK    6  A    between atoms: C_11  and  C_12
REMARK    7  A    between atoms: C_12  and  C_13
REMARK                            x       y       z     vdW  Elec       q    Type
REMARK                         _______ _______ _______ _____ _____    ______ ____
ROOT
ATOM      1  C   UNL     1       1.512   7.291  20.759  0.00  0.00    +0.000 C 
ATOM      2  N   UNL     1       1.917   6.062  20.059  0.00  0.00    +0.000 NA
ENDROOT
BRANCH   2   3
ATOM      3  C   UNL     1       3.263   6.287  19.456  0.00  0.00    +0.000 C 
BRANCH   3   4
ATOM      4  C   UNL     1       3.362   5.947  17.961  0.00  0.00    +0.000 C 
BRANCH   4   5
ATOM      5  C   UNL     1       4.739   5.457  17.584  0.00  0.00    +0.000 A 
ATOM      6  C   UNL     1       4.998   4.953  16.313  0.00  0.00    +0.000 A 
ATOM      7  C   UNL     1       6.275   4.471  16.031  0.00  0.00    +0.000 A 
ATOM      8  C   UNL     1       7.255   4.506  17.016  0.00  0.00    +0.000 A 
ATOM      9  C   UNL     1       6.917   5.038  18.248  0.00  0.00    +0.000 A 
ATOM     10  N   UNL     1       5.689   5.515  18.551  0.00  0.00    +0.000 NA
ENDBRANCH   4   5
ENDBRANCH   3   4
ENDBRANCH   2   3
BRANCH   2  11
ATOM     11  C   UNL     1       1.945   4.914  20.997  0.00  0.00    +0.000 C 
BRANCH  11  12
ATOM     12  C   UNL     1       1.206   3.660  20.500  0.00  0.00    +0.000 C 
BRANCH  12  13
ATOM     13  C   UNL     1       1.984   2.980  19.417  0.00  0.00    +0.000 A 
ATOM     14  N   UNL     1       1.519   2.773  18.198  0.00  0.00    +0.000 NA
ATOM     15  C   UNL     1       2.483   2.154  17.433  0.00  0.00    +0.000 A 
ATOM     16  C   UNL     1       3.673   1.893  18.072  0.00  0.00    +0.000 A 
ATOM     17  S   UNL     1       3.586   2.423  19.698  0.00  0.00    +0.000 S 
ENDBRANCH  12  13
ENDBRANCH  11  12
ENDBRANCH   2  11
TORSDOF 6
ENDMDL
MODEL 9
REMARK VINA RESULT:      -5.9      2.147      6.883
REMARK  Name = 
REMARK  7 active torsions:
REMARK  status: ('A' for Active; 'I' for Inactive)
REMARK    1  A    between atoms: C_1  and  N_2
REMARK    2  A    between atoms: N_2  and  C_3
REMARK    3  A    between atoms: N_2  and  C_11
REMARK    4  A    between atoms: C_3  and  C_4
REMARK    5  A    between atoms: C_4  and  C_5
REMARK    6  A    between atoms: C_11  and  C_12
REMARK    7  A    between atoms: C_12  and  C_13
REMARK                            x       y       z     vdW  Elec       q    Type
REMARK                         _______ _______ _______ _____ _____    ______ ____
ROOT
ATOM      1  C   UNL     1       7.366   5.739  19.423  0.00  0.00    +0.000 C 
ATOM      2  N   UNL     1       6.216   4.846  19.206  0.00  0.00    +0.000 NA
ENDROOT
BRANCH   2   3
ATOM      3  C   UNL     1       4.965   5.629  19.426  0.00  0.00    +0.000 C 
BRANCH   3   4
ATOM      4  C   UNL     1       3.825   5.303  18.449  0.00  0.00    +0.000 C 
BRANCH   4   5
ATOM      5  C   UNL     1       2.761   4.445  19.090  0.00  0.00    +0.000 A 
ATOM      6  C   UNL     1       1.960   3.603  18.324  0.00  0.00    +0.000 A 
ATOM      7  C   UNL     1       0.962   2.867  18.959  0.00  0.00    +0.000 A 
ATOM      8  C   UNL     1       0.792   2.985  20.333  0.00  0.00    +0.000 A 
ATOM      9  C   UNL     1       1.641   3.833  21.021  0.00  0.00    +0.000 A 
ATOM     10  N   UNL     1       2.619   4.558  20.434  0.00  0.00    +0.000 NA
ENDBRANCH   4   5
ENDBRANCH   3   4
ENDBRANCH   2   3
BRANCH   2  11
ATOM     11  C   UNL     1       6.249   4.279  17.837  0.00  0.00    +0.000 C 
BRANCH  11  12
ATOM     12  C   UNL     1       7.400   4.794  16.956  0.00  0.00    +0.000 C 
BRANCH  12  13
ATOM     13  C   UNL     1       7.064   4.649  15.505  0.00  0.00    +0.000 A 
ATOM     14  N   UNL     1       7.710   5.272  14.536  0.00  0.00    +0.000 NA
ATOM     15  C   UNL     1       7.183   4.906  13.317  0.00  0.00    +0.000 A 
ATOM     16  C   UNL     1       6.139   4.010  13.364  0.00  0.00    +0.000 A 
ATOM     17  S   UNL     1       5.788   3.616  14.994  0.00  0.00    +0.000 S 
ENDBRANCH  12  13
ENDBRANCH  11  12
ENDBRANCH   2  11
TORSDOF 6
ENDMDL
