MODEL 1
REMARK VINA RESULT:      -7.2      0.000      0.000
REMARK  Name = 
REMARK  5 active torsions:
REMARK  status: ('A' for Active; 'I' for Inactive)
REMARK    1  A    between atoms: C_2  and  C_3
REMARK    2  A    between atoms: C_3  and  N_4
REMARK    3  A    between atoms: C_8  and  N_9
REMARK    4  A    between atoms: C_10  and  C_12
REMARK    5  A    between atoms: N_19  and  O_20
REMARK                            x       y       z     vdW  Elec       q    Type
REMARK                         _______ _______ _______ _____ _____    ______ ____
ROOT
ATOM      1  N   UNL     1       6.177   5.274  16.310  0.00  0.00    +0.000 N 
ATOM      2  C   UNL     1       5.958   6.496  16.832  0.00  0.00    +0.000 C 
ATOM      3  O   UNL     1       6.791   7.390  16.810  0.00  0.00    +0.000 OA
ATOM      4  C   UNL     1       4.611   6.625  17.474  0.00  0.00    +0.000 C 
ATOM      5  C   UNL     1       3.950   5.270  17.128  0.00  0.00    +0.000 C 
ATOM      6  C   UNL     1       5.074   4.520  16.474  0.00  0.00    +0.000 C 
ATOM      7  O   UNL     1       4.973   3.371  16.064  0.00  0.00    +0.000 OA
ENDROOT
BRANCH   5   8
ATOM      8  N   UNL     1       3.450   4.573  18.305  0.00  0.00    +0.000 N 
ATOM      9  C   UNL     1       2.375   3.729  18.271  0.00  0.00    +0.000 C 
ATOM     10  O   UNL     1       1.744   3.566  17.233  0.00  0.00    +0.000 OA
ATOM     11  H   UNL     1       3.953   4.707  19.196  0.00  0.00    +0.000 HD
BRANCH   9  12
ATOM     12  C   UNL     1       1.958   2.967  19.508  0.00  0.00    +0.000 C 
ATOM     13  C   UNL     1       1.116   3.803  20.462  0.00  0.00    +0.000 C 
ATOM     14  C   UNL     1       1.141   2.900  21.670  0.00  0.00    +0.000 C 
ATOM     15  C   UNL     1       2.614   2.497  21.706  0.00  0.00    +0.000 C 
ATOM     16  N   UNL     1       3.100   2.522  20.315  0.00  0.00    +0.000 NA
ATOM     17  H   UNL     1       3.433   1.584  20.002  0.00  0.00    +0.000 HD
ENDBRANCH   9  12
ENDBRANCH   5   8
BRANCH   1  18
ATOM     18  C   UNL     1       7.391   4.857  15.612  0.00  0.00    +0.000 C 
BRANCH  18  20
ATOM     19  O   UNL     1       7.628   5.599  13.389  0.00  0.00    +0.000 OA
ATOM     20  C   UNL     1       7.186   4.729  14.125  0.00  0.00    +0.000 C 
ATOM     21  N   UNL     1       6.502   3.683  13.603  0.00  0.00    +0.000 N 
ATOM     22  H   UNL     1       6.122   2.950  14.218  0.00  0.00    +0.000 HD
BRANCH  21  23
ATOM     23  O   UNL     1       6.276   3.612  12.281  0.00  0.00    +0.000 OA
ATOM     24  H   UNL     1       7.107   3.239  11.891  0.00  0.00    +0.000 HD
ENDBRANCH  21  23
ENDBRANCH  18  20
ENDBRANCH   1  18
TORSDOF 5
ENDMDL
MODEL 2
REMARK VINA RESULT:      -7.2      1.903      6.663
REMARK  Name = 
REMARK  5 active torsions:
REMARK  status: ('A' for Active; 'I' for Inactive)
REMARK    1  A    between atoms: C_2  and  C_3
REMARK    2  A    between atoms: C_3  and  N_4
REMARK    3  A    between atoms: C_8  and  N_9
REMARK    4  A    between atoms: C_10  and  C_12
REMARK    5  A    between atoms: N_19  and  O_20
REMARK                            x       y       z     vdW  Elec       q    Type
REMARK                         _______ _______ _______ _____ _____    ______ ____
ROOT
ATOM      1  N   UNL     1       3.672   5.188  19.222  0.00  0.00    +0.000 N 
ATOM      2  C   UNL     1       3.365   6.339  18.594  0.00  0.00    +0.000 C 
ATOM      3  O   UNL     1       2.370   6.999  18.857  0.00  0.00    +0.000 OA
ATOM      4  C   UNL     1       4.345   6.697  17.518  0.00  0.00    +0.000 C 
ATOM      5  C   UNL     1       5.428   5.606  17.683  0.00  0.00    +0.000 C 
ATOM      6  C   UNL     1       4.827   4.708  18.725  0.00  0.00    +0.000 C 
ATOM      7  O   UNL     1       5.367   3.688  19.133  0.00  0.00    +0.000 OA
ENDROOT
BRANCH   5   8
ATOM      8  N   UNL     1       5.697   4.889  16.443  0.00  0.00    +0.000 N 
ATOM      9  C   UNL     1       6.758   5.177  15.631  0.00  0.00    +0.000 C 
ATOM     10  O   UNL     1       7.509   6.108  15.895  0.00  0.00    +0.000 OA
ATOM     11  H   UNL     1       5.067   4.112  16.190  0.00  0.00    +0.000 HD
BRANCH   9  12
ATOM     12  C   UNL     1       7.032   4.340  14.403  0.00  0.00    +0.000 C 
ATOM     13  C   UNL     1       7.366   5.179  13.177  0.00  0.00    +0.000 C 
ATOM     14  C   UNL     1       7.272   4.112  12.115  0.00  0.00    +0.000 C 
ATOM     15  C   UNL     1       5.990   3.394  12.532  0.00  0.00    +0.000 C 
ATOM     16  N   UNL     1       5.878   3.531  13.995  0.00  0.00    +0.000 NA
ATOM     17  H   UNL     1       5.886   2.604  14.475  0.00  0.00    +0.000 HD
ENDBRANCH   9  12
ENDBRANCH   5   8
BRANCH   1  18
ATOM     18  C   UNL     1       2.910   4.593  20.319  0.00  0.00    +0.000 C 
BRANCH  18  20
ATOM     19  O   UNL     1       0.728   3.737  20.084  0.00  0.00    +0.000 OA
ATOM     20  C   UNL     1       1.915   3.569  19.840  0.00  0.00    +0.000 C 
ATOM     21  N   UNL     1       2.319   2.463  19.171  0.00  0.00    +0.000 N 
ATOM     22  H   UNL     1       3.318   2.313  18.968  0.00  0.00    +0.000 HD
BRANCH  21  23
ATOM     23  O   UNL     1       1.428   1.530  18.801  0.00  0.00    +0.000 OA
ATOM     24  H   UNL     1       0.819   1.984  18.164  0.00  0.00    +0.000 HD
ENDBRANCH  21  23
ENDBRANCH  18  20
ENDBRANCH   1  18
TORSDOF 5
ENDMDL
MODEL 3
REMARK VINA RESULT:      -7.0      3.807      5.825
REMARK  Name = 
REMARK  5 active torsions:
REMARK  status: ('A' for Active; 'I' for Inactive)
REMARK    1  A    between atoms: C_2  and  C_3
REMARK    2  A    between atoms: C_3  and  N_4
REMARK    3  A    between atoms: C_8  and  N_9
REMARK    4  A    between atoms: C_10  and  C_12
REMARK    5  A    between atoms: N_19  and  O_20
REMARK                            x       y       z     vdW  Elec       q    Type
REMARK                         _______ _______ _______ _____ _____    ______ ____
ROOT
ATOM      1  N   UNL     1       3.719   4.065  18.329  0.00  0.00    +0.000 N 
ATOM      2  C   UNL     1       4.855   4.771  18.174  0.00  0.00    +0.000 C 
ATOM      3  O   UNL     1       5.968   4.270  18.248  0.00  0.00    +0.000 OA
ATOM      4  C   UNL     1       4.609   6.232  17.947  0.00  0.00    +0.000 C 
ATOM      5  C   UNL     1       3.068   6.294  17.844  0.00  0.00    +0.000 C 
ATOM      6  C   UNL     1       2.664   4.888  18.179  0.00  0.00    +0.000 C 
ATOM      7  O   UNL     1       1.500   4.512  18.232  0.00  0.00    +0.000 OA
ENDROOT
BRANCH   5   8
ATOM      8  N   UNL     1       2.482   7.258  18.767  0.00  0.00    +0.000 N 
ATOM      9  C   UNL     1       2.086   8.509  18.386  0.00  0.00    +0.000 C 
ATOM     10  O   UNL     1       2.263   8.895  17.237  0.00  0.00    +0.000 OA
ATOM     11  H   UNL     1       2.339   6.962  19.745  0.00  0.00    +0.000 HD
BRANCH   9  12
ATOM     12  C   UNL     1       1.405   9.431  19.371  0.00  0.00    +0.000 C 
ATOM     13  C   UNL     1       0.975   8.720  20.648  0.00  0.00    +0.000 C 
ATOM     14  C   UNL     1       0.092   9.789  21.241  0.00  0.00    +0.000 C 
ATOM     15  C   UNL     1      -0.700  10.232  20.013  0.00  0.00    +0.000 C 
ATOM     16  N   UNL     1       0.169  10.019  18.842  0.00  0.00    +0.000 NA
ATOM     17  H   UNL     1       0.369  10.911  18.337  0.00  0.00    +0.000 HD
ENDBRANCH   9  12
ENDBRANCH   5   8
BRANCH   1  18
ATOM     18  C   UNL     1       3.642   2.623  18.552  0.00  0.00    +0.000 C 
BRANCH  18  20
ATOM     19  O   UNL     1       3.236   2.495  20.869  0.00  0.00    +0.000 OA
ATOM     20  C   UNL     1       4.013   2.238  19.960  0.00  0.00    +0.000 C 
ATOM     21  N   UNL     1       5.197   1.638  20.231  0.00  0.00    +0.000 N 
ATOM     22  H   UNL     1       5.858   1.423  19.471  0.00  0.00    +0.000 HD
BRANCH  21  23
ATOM     23  O   UNL     1       5.539   1.353  21.498  0.00  0.00    +0.000 OA
ATOM     24  H   UNL     1       4.837   1.768  22.061  0.00  0.00    +0.000 HD
ENDBRANCH  21  23
ENDBRANCH  18  20
ENDBRANCH   1  18
TORSDOF 5
ENDMDL
MODEL 4
REMARK VINA RESULT:      -7.0      0.954      1.039
REMARK  Name = 
REMARK  5 active torsions:
REMARK  status: ('A' for Active; 'I' for Inactive)
REMARK    1  A    between atoms: C_2  and  C_3
REMARK    2  A    between atoms: C_3  and  N_4
REMARK    3  A    between atoms: C_8  and  N_9
REMARK    4  A    between atoms: C_10  and  C_12
REMARK    5  A    between atoms: N_19  and  O_20
REMARK                            x       y       z     vdW  Elec       q    Type
REMARK                         _______ _______ _______ _____ _____    ______ ____
ROOT
ATOM      1  N   UNL     1       6.191   5.332  16.386  0.00  0.00    +0.000 N 
ATOM      2  C   UNL     1       6.326   6.607  16.796  0.00  0.00    +0.000 C 
ATOM      3  O   UNL     1       7.363   7.242  16.673  0.00  0.00    +0.000 OA
ATOM      4  C   UNL     1       5.091   7.143  17.455  0.00  0.00    +0.000 C 
ATOM      5  C   UNL     1       4.083   5.989  17.251  0.00  0.00    +0.000 C 
ATOM      6  C   UNL     1       4.938   4.915  16.645  0.00  0.00    +0.000 C 
ATOM      7  O   UNL     1       4.519   3.804  16.346  0.00  0.00    +0.000 OA
ENDROOT
BRANCH   5   8
ATOM      8  N   UNL     1       3.472   5.550  18.499  0.00  0.00    +0.000 N 
ATOM      9  C   UNL     1       2.244   4.951  18.558  0.00  0.00    +0.000 C 
ATOM     10  O   UNL     1       1.573   4.805  17.544  0.00  0.00    +0.000 OA
ATOM     11  H   UNL     1       4.010   5.678  19.371  0.00  0.00    +0.000 HD
BRANCH   9  12
ATOM     12  C   UNL     1       1.703   4.440  19.874  0.00  0.00    +0.000 C 
ATOM     13  C   UNL     1       2.800   4.095  20.872  0.00  0.00    +0.000 C 
ATOM     14  C   UNL     1       1.978   3.354  21.896  0.00  0.00    +0.000 C 
ATOM     15  C   UNL     1       1.113   2.473  20.998  0.00  0.00    +0.000 C 
ATOM     16  N   UNL     1       0.931   3.200  19.730  0.00  0.00    +0.000 NA
ATOM     17  H   UNL     1      -0.074   3.409  19.540  0.00  0.00    +0.000 HD
ENDBRANCH   9  12
ENDBRANCH   5   8
BRANCH   1  18
ATOM     18  C   UNL     1       7.220   4.549  15.702  0.00  0.00    +0.000 C 
BRANCH  18  20
ATOM     19  O   UNL     1       7.508   5.395  13.523  0.00  0.00    +0.000 OA
ATOM     20  C   UNL     1       7.017   4.511  14.210  0.00  0.00    +0.000 C 
ATOM     21  N   UNL     1       6.283   3.531  13.631  0.00  0.00    +0.000 N 
ATOM     22  H   UNL     1       5.861   2.787  14.205  0.00  0.00    +0.000 HD
BRANCH  21  23
ATOM     23  O   UNL     1       6.061   3.542  12.307  0.00  0.00    +0.000 OA
ATOM     24  H   UNL     1       5.680   4.436  12.110  0.00  0.00    +0.000 HD
ENDBRANCH  21  23
ENDBRANCH  18  20
ENDBRANCH   1  18
TORSDOF 5
ENDMDL
MODEL 5
REMARK VINA RESULT:      -6.9      4.376      6.271
REMARK  Name = 
REMARK  5 active torsions:
REMARK  status: ('A' for Active; 'I' for Inactive)
REMARK    1  A    between atoms: C_2  and  C_3
REMARK    2  A    between atoms: C_3  and  N_4
REMARK    3  A    between atoms: C_8  and  N_9
REMARK    4  A    between atoms: C_10  and  C_12
REMARK    5  A    between atoms: N_19  and  O_20
REMARK                            x       y       z     vdW  Elec       q    Type
REMARK                         _______ _______ _______ _____ _____    ______ ____
ROOT
ATOM      1  N   UNL     1       3.342   4.105  19.298  0.00  0.00    +0.000 N 
ATOM      2  C   UNL     1       4.382   4.907  18.999  0.00  0.00    +0.000 C 
ATOM      3  O   UNL     1       5.502   4.485  18.753  0.00  0.00    +0.000 OA
ATOM      4  C   UNL     1       4.028   6.363  19.042  0.00  0.00    +0.000 C 
ATOM      5  C   UNL     1       2.502   6.324  19.291  0.00  0.00    +0.000 C 
ATOM      6  C   UNL     1       2.247   4.860  19.503  0.00  0.00    +0.000 C 
ATOM      7  O   UNL     1       1.143   4.395  19.758  0.00  0.00    +0.000 OA
ENDROOT
BRANCH   5   8
ATOM      8  N   UNL     1       2.102   7.114  20.448  0.00  0.00    +0.000 N 
ATOM      9  C   UNL     1       1.563   8.366  20.346  0.00  0.00    +0.000 C 
ATOM     10  O   UNL     1       1.443   8.904  19.252  0.00  0.00    +0.000 OA
ATOM     11  H   UNL     1       2.210   6.689  21.383  0.00  0.00    +0.000 HD
BRANCH   9  12
ATOM     12  C   UNL     1       1.087   9.099  21.579  0.00  0.00    +0.000 C 
ATOM     13  C   UNL     1      -0.291   8.646  22.043  0.00  0.00    +0.000 C 
ATOM     14  C   UNL     1      -0.587   9.737  23.040  0.00  0.00    +0.000 C 
ATOM     15  C   UNL     1      -0.136  10.974  22.266  0.00  0.00    +0.000 C 
ATOM     16  N   UNL     1       0.948  10.544  21.365  0.00  0.00    +0.000 NA
ATOM     17  H   UNL     1       1.845  11.038  21.570  0.00  0.00    +0.000 HD
ENDBRANCH   9  12
ENDBRANCH   5   8
BRANCH   1  18
ATOM     18  C   UNL     1       3.381   2.644  19.325  0.00  0.00    +0.000 C 
BRANCH  18  20
ATOM     19  O   UNL     1       3.334   2.163  21.630  0.00  0.00    +0.000 OA
ATOM     20  C   UNL     1       3.985   2.108  20.596  0.00  0.00    +0.000 C 
ATOM     21  N   UNL     1       5.237   1.592  20.611  0.00  0.00    +0.000 N 
ATOM     22  H   UNL     1       5.792   1.548  19.744  0.00  0.00    +0.000 HD
BRANCH  21  23
ATOM     23  O   UNL     1       5.784   1.171  21.762  0.00  0.00    +0.000 OA
ATOM     24  H   UNL     1       5.162   1.467  22.475  0.00  0.00    +0.000 HD
ENDBRANCH  21  23
ENDBRANCH  18  20
ENDBRANCH   1  18
TORSDOF 5
ENDMDL
MODEL 6
REMARK VINA RESULT:      -6.9      3.868      5.933
REMARK  Name = 
REMARK  5 active torsions:
REMARK  status: ('A' for Active; 'I' for Inactive)
REMARK    1  A    between atoms: C_2  and  C_3
REMARK    2  A    between atoms: C_3  and  N_4
REMARK    3  A    between atoms: C_8  and  N_9
REMARK    4  A    between atoms: C_10  and  C_12
REMARK    5  A    between atoms: N_19  and  O_20
REMARK                            x       y       z     vdW  Elec       q    Type
REMARK                         _______ _______ _______ _____ _____    ______ ____
ROOT
ATOM      1  N   UNL     1       3.825   4.172  18.418  0.00  0.00    +0.000 N 
ATOM      2  C   UNL     1       4.928   4.929  18.566  0.00  0.00    +0.000 C 
ATOM      3  O   UNL     1       6.016   4.470  18.883  0.00  0.00    +0.000 OA
ATOM      4  C   UNL     1       4.669   6.388  18.343  0.00  0.00    +0.000 C 
ATOM      5  C   UNL     1       3.195   6.394  17.878  0.00  0.00    +0.000 C 
ATOM      6  C   UNL     1       2.795   4.958  18.053  0.00  0.00    +0.000 C 
ATOM      7  O   UNL     1       1.672   4.533  17.813  0.00  0.00    +0.000 OA
ENDROOT
BRANCH   5   8
ATOM      8  N   UNL     1       2.359   7.286  18.671  0.00  0.00    +0.000 N 
ATOM      9  C   UNL     1       1.982   8.529  18.244  0.00  0.00    +0.000 C 
ATOM     10  O   UNL     1       2.388   8.970  17.176  0.00  0.00    +0.000 OA
ATOM     11  H   UNL     1       2.019   6.944  19.583  0.00  0.00    +0.000 HD
BRANCH   9  12
ATOM     12  C   UNL     1       1.043   9.372  19.076  0.00  0.00    +0.000 C 
ATOM     13  C   UNL     1       1.313  10.865  18.944  0.00  0.00    +0.000 C 
ATOM     14  C   UNL     1       0.464  11.372  20.083  0.00  0.00    +0.000 C 
ATOM     15  C   UNL     1       0.818  10.372  21.181  0.00  0.00    +0.000 C 
ATOM     16  N   UNL     1       1.156   9.102  20.514  0.00  0.00    +0.000 NA
ATOM     17  H   UNL     1       0.513   8.330  20.798  0.00  0.00    +0.000 HD
ENDBRANCH   9  12
ENDBRANCH   5   8
BRANCH   1  18
ATOM     18  C   UNL     1       3.771   2.718  18.562  0.00  0.00    +0.000 C 
BRANCH  18  20
ATOM     19  O   UNL     1       3.231   2.502  20.845  0.00  0.00    +0.000 OA
ATOM     20  C   UNL     1       4.054   2.267  19.971  0.00  0.00    +0.000 C 
ATOM     21  N   UNL     1       5.209   1.633  20.282  0.00  0.00    +0.000 N 
ATOM     22  H   UNL     1       5.909   1.438  19.551  0.00  0.00    +0.000 HD
BRANCH  21  23
ATOM     23  O   UNL     1       5.475   1.289  21.552  0.00  0.00    +0.000 OA
ATOM     24  H   UNL     1       5.915   0.403  21.500  0.00  0.00    +0.000 HD
ENDBRANCH  21  23
ENDBRANCH  18  20
ENDBRANCH   1  18
TORSDOF 5
ENDMDL
MODEL 7
REMARK VINA RESULT:      -6.9      1.704      2.199
REMARK  Name = 
REMARK  5 active torsions:
REMARK  status: ('A' for Active; 'I' for Inactive)
REMARK    1  A    between atoms: C_2  and  C_3
REMARK    2  A    between atoms: C_3  and  N_4
REMARK    3  A    between atoms: C_8  and  N_9
REMARK    4  A    between atoms: C_10  and  C_12
REMARK    5  A    between atoms: N_19  and  O_20
REMARK                            x       y       z     vdW  Elec       q    Type
REMARK                         _______ _______ _______ _____ _____    ______ ____
ROOT
ATOM      1  N   UNL     1       6.649   5.376  15.835  0.00  0.00    +0.000 N 
ATOM      2  C   UNL     1       7.218   4.881  16.951  0.00  0.00    +0.000 C 
ATOM      3  O   UNL     1       8.174   4.120  16.932  0.00  0.00    +0.000 OA
ATOM      4  C   UNL     1       6.528   5.326  18.204  0.00  0.00    +0.000 C 
ATOM      5  C   UNL     1       5.482   6.330  17.666  0.00  0.00    +0.000 C 
ATOM      6  C   UNL     1       5.634   6.189  16.180  0.00  0.00    +0.000 C 
ATOM      7  O   UNL     1       4.957   6.808  15.368  0.00  0.00    +0.000 OA
ENDROOT
BRANCH   5   8
ATOM      8  N   UNL     1       4.128   6.017  18.102  0.00  0.00    +0.000 N 
ATOM      9  C   UNL     1       3.539   4.801  17.891  0.00  0.00    +0.000 C 
ATOM     10  O   UNL     1       4.125   3.926  17.265  0.00  0.00    +0.000 OA
ATOM     11  H   UNL     1       3.607   6.744  18.617  0.00  0.00    +0.000 HD
BRANCH   9  12
ATOM     12  C   UNL     1       2.163   4.509  18.445  0.00  0.00    +0.000 C 
ATOM     13  C   UNL     1       2.160   4.319  19.956  0.00  0.00    +0.000 C 
ATOM     14  C   UNL     1       0.772   3.757  20.131  0.00  0.00    +0.000 C 
ATOM     15  C   UNL     1       0.715   2.750  18.984  0.00  0.00    +0.000 C 
ATOM     16  N   UNL     1       1.588   3.267  17.915  0.00  0.00    +0.000 NA
ATOM     17  H   UNL     1       1.058   3.450  17.034  0.00  0.00    +0.000 HD
ENDBRANCH   9  12
ENDBRANCH   5   8
BRANCH   1  18
ATOM     18  C   UNL     1       7.108   5.127  14.469  0.00  0.00    +0.000 C 
BRANCH  18  20
ATOM     19  O   UNL     1       5.194   3.777  14.217  0.00  0.00    +0.000 OA
ATOM     20  C   UNL     1       6.298   4.064  13.775  0.00  0.00    +0.000 C 
ATOM     21  N   UNL     1       6.783   3.413  12.691  0.00  0.00    +0.000 N 
ATOM     22  H   UNL     1       7.714   3.646  12.317  0.00  0.00    +0.000 HD
BRANCH  21  23
ATOM     23  O   UNL     1       6.074   2.428  12.117  0.00  0.00    +0.000 OA
ATOM     24  H   UNL     1       5.515   2.047  12.842  0.00  0.00    +0.000 HD
ENDBRANCH  21  23
ENDBRANCH  18  20
ENDBRANCH   1  18
TORSDOF 5
ENDMDL
MODEL 8
REMARK VINA RESULT:      -6.8      1.954      2.287
REMARK  Name = 
REMARK  5 active torsions:
REMARK  status: ('A' for Active; 'I' for Inactive)
REMARK    1  A    between atoms: C_2  and  C_3
REMARK    2  A    between atoms: C_3  and  N_4
REMARK    3  A    between atoms: C_8  and  N_9
REMARK    4  A    between atoms: C_10  and  C_12
REMARK    5  A    between atoms: N_19  and  O_20
REMARK                            x       y       z     vdW  Elec       q    Type
REMARK                         _______ _______ _______ _____ _____    ______ ____
ROOT
ATOM      1  N   UNL     1       6.548   5.202  16.664  0.00  0.00    +0.000 N 
ATOM      2  C   UNL     1       7.374   4.751  17.628  0.00  0.00    +0.000 C 
ATOM      3  O   UNL     1       8.476   4.277  17.394  0.00  0.00    +0.000 OA
ATOM      4  C   UNL     1       6.781   4.853  19.000  0.00  0.00    +0.000 C 
ATOM      5  C   UNL     1       5.454   5.601  18.732  0.00  0.00    +0.000 C 
ATOM      6  C   UNL     1       5.423   5.675  17.233  0.00  0.00    +0.000 C 
ATOM      7  O   UNL     1       4.506   6.181  16.599  0.00  0.00    +0.000 OA
ENDROOT
BRANCH   5   8
ATOM      8  N   UNL     1       4.295   4.894  19.261  0.00  0.00    +0.000 N 
ATOM      9  C   UNL     1       3.136   5.526  19.617  0.00  0.00    +0.000 C 
ATOM     10  O   UNL     1       3.047   6.746  19.553  0.00  0.00    +0.000 OA
ATOM     11  H   UNL     1       4.352   3.867  19.342  0.00  0.00    +0.000 HD
BRANCH   9  12
ATOM     12  C   UNL     1       1.938   4.728  20.078  0.00  0.00    +0.000 C 
ATOM     13  C   UNL     1       2.288   3.697  21.143  0.00  0.00    +0.000 C 
ATOM     14  C   UNL     1       1.007   2.901  21.146  0.00  0.00    +0.000 C 
ATOM     15  C   UNL     1       0.744   2.760  19.648  0.00  0.00    +0.000 C 
ATOM     16  N   UNL     1       1.323   3.948  18.997  0.00  0.00    +0.000 NA
ATOM     17  H   UNL     1       0.599   4.511  18.499  0.00  0.00    +0.000 HD
ENDBRANCH   9  12
ENDBRANCH   5   8
BRANCH   1  18
ATOM     18  C   UNL     1       6.854   5.240  15.235  0.00  0.00    +0.000 C 
BRANCH  18  20
ATOM     19  O   UNL     1       5.815   3.127  15.146  0.00  0.00    +0.000 OA
ATOM     20  C   UNL     1       6.344   4.025  14.505  0.00  0.00    +0.000 C 
ATOM     21  N   UNL     1       6.486   3.906  13.164  0.00  0.00    +0.000 N 
ATOM     22  H   UNL     1       6.936   4.656  12.619  0.00  0.00    +0.000 HD
BRANCH  21  23
ATOM     23  O   UNL     1       6.079   2.793  12.534  0.00  0.00    +0.000 OA
ATOM     24  H   UNL     1       6.695   2.077  12.838  0.00  0.00    +0.000 HD
ENDBRANCH  21  23
ENDBRANCH  18  20
ENDBRANCH   1  18
TORSDOF 5
ENDMDL
MODEL 9
REMARK VINA RESULT:      -6.8      2.195      6.978
REMARK  Name = 
REMARK  5 active torsions:
REMARK  status: ('A' for Active; 'I' for Inactive)
REMARK    1  A    between atoms: C_2  and  C_3
REMARK    2  A    between atoms: C_3  and  N_4
REMARK    3  A    between atoms: C_8  and  N_9
REMARK    4  A    between atoms: C_10  and  C_12
REMARK    5  A    between atoms: N_19  and  O_20
REMARK                            x       y       z     vdW  Elec       q    Type
REMARK                         _______ _______ _______ _____ _____    ______ ____
ROOT
ATOM      1  N   UNL     1       2.709   4.865  18.368  0.00  0.00    +0.000 N 
ATOM      2  C   UNL     1       3.044   6.160  18.217  0.00  0.00    +0.000 C 
ATOM      3  O   UNL     1       2.305   7.082  18.528  0.00  0.00    +0.000 OA
ATOM      4  C   UNL     1       4.393   6.345  17.591  0.00  0.00    +0.000 C 
ATOM      5  C   UNL     1       4.918   4.893  17.504  0.00  0.00    +0.000 C 
ATOM      6  C   UNL     1       3.730   4.093  17.951  0.00  0.00    +0.000 C 
ATOM      7  O   UNL     1       3.719   2.869  18.006  0.00  0.00    +0.000 OA
ENDROOT
BRANCH   5   8
ATOM      8  N   UNL     1       5.338   4.528  16.157  0.00  0.00    +0.000 N 
ATOM      9  C   UNL     1       6.645   4.537  15.756  0.00  0.00    +0.000 C 
ATOM     10  O   UNL     1       7.527   4.914  16.517  0.00  0.00    +0.000 OA
ATOM     11  H   UNL     1       4.611   4.224  15.492  0.00  0.00    +0.000 HD
BRANCH   9  12
ATOM     12  C   UNL     1       7.025   4.064  14.372  0.00  0.00    +0.000 C 
ATOM     13  C   UNL     1       7.256   5.210  13.397  0.00  0.00    +0.000 C 
ATOM     14  C   UNL     1       7.298   4.431  12.106  0.00  0.00    +0.000 C 
ATOM     15  C   UNL     1       6.114   3.486  12.294  0.00  0.00    +0.000 C 
ATOM     16  N   UNL     1       5.980   3.248  13.742  0.00  0.00    +0.000 NA
ATOM     17  H   UNL     1       6.101   2.239  13.984  0.00  0.00    +0.000 HD
ENDBRANCH   9  12
ENDBRANCH   5   8
BRANCH   1  18
ATOM     18  C   UNL     1       1.464   4.376  18.958  0.00  0.00    +0.000 C 
BRANCH  18  20
ATOM     19  O   UNL     1       2.189   4.825  21.154  0.00  0.00    +0.000 OA
ATOM     20  C   UNL     1       1.613   4.036  20.418  0.00  0.00    +0.000 C 
ATOM     21  N   UNL     1       1.144   2.867  20.914  0.00  0.00    +0.000 N 
ATOM     22  H   UNL     1       0.663   2.195  20.298  0.00  0.00    +0.000 HD
BRANCH  21  23
ATOM     23  O   UNL     1       1.335   2.551  22.205  0.00  0.00    +0.000 OA
ATOM     24  H   UNL     1       0.842   1.703  22.345  0.00  0.00    +0.000 HD
ENDBRANCH  21  23
ENDBRANCH  18  20
ENDBRANCH   1  18
TORSDOF 5
ENDMDL
