MODEL 1
REMARK VINA RESULT:      -8.2      0.000      0.000
REMARK  Name = 
REMARK  6 active torsions:
REMARK  status: ('A' for Active; 'I' for Inactive)
REMARK    1  A    between atoms: C_1  and  C_2
REMARK    2  A    between atoms: C_2  and  C_3
REMARK    3  A    between atoms: C_9  and  C_11
REMARK    4  A    between atoms: C_14  and  N_15
REMARK    5  A    between atoms: N_15  and  C_16
REMARK    6  A    between atoms: C_19  and  C_20
REMARK                            x       y       z     vdW  Elec       q    Type
REMARK                         _______ _______ _______ _____ _____    ______ ____
ROOT
ATOM      1  C   UNL     1       2.642   7.614  18.466  0.00  0.00    +0.000 A 
ATOM      2  C   UNL     1       2.373   8.688  17.644  0.00  0.00    +0.000 A 
ATOM      3  N   UNL     1       1.507   9.675  17.944  0.00  0.00    +0.000 NA
ATOM      4  C   UNL     1       0.914   9.685  19.158  0.00  0.00    +0.000 A 
ATOM      5  C   UNL     1       1.216   8.692  20.100  0.00  0.00    +0.000 A 
ATOM      6 CL   UNL     1       0.538   8.715  21.688  0.00  0.00    +0.000 Cl
ATOM      7  C   UNL     1       2.089   7.652  19.749  0.00  0.00    +0.000 A 
ENDROOT
BRANCH   1  14
ATOM      8  C   UNL     1       4.221   4.072  18.069  0.00  0.00    +0.000 C 
ATOM      9  C   UNL     1       3.303   3.183  17.201  0.00  0.00    +0.000 C 
ATOM     10  C   UNL     1       2.052   2.743  17.973  0.00  0.00    +0.000 C 
ATOM     11  C   UNL     1       1.335   3.935  18.601  0.00  0.00    +0.000 C 
ATOM     12  C   UNL     1       2.312   4.775  19.429  0.00  0.00    +0.000 C 
ATOM     13  N   UNL     1       3.420   5.223  18.570  0.00  0.00    +0.000 N 
ATOM     14  C   UNL     1       3.563   6.530  18.062  0.00  0.00    +0.000 C 
ATOM     15  O   UNL     1       4.463   6.878  17.298  0.00  0.00    +0.000 OA
BRANCH   8  17
ATOM     16  C   UNL     1       5.640   3.874  15.944  0.00  0.00    +0.000 C 
ATOM     17  C   UNL     1       5.560   4.388  17.379  0.00  0.00    +0.000 C 
ENDBRANCH   8  17
ENDBRANCH   1  14
BRANCH   4  18
ATOM     18  N   UNL     1       0.035  10.754  19.451  0.00  0.00    +0.000 N 
ATOM     19  H   UNL     1       0.151  11.077  20.404  0.00  0.00    +0.000 HD
BRANCH  18  20
ATOM     20  C   UNL     1      -1.292  10.836  18.969  0.00  0.00    +0.000 A 
ATOM     21  C   UNL     1      -1.767   9.968  17.984  0.00  0.00    +0.000 A 
ATOM     22  C   UNL     1      -3.059  10.137  17.470  0.00  0.00    +0.000 A 
ATOM     23  C   UNL     1      -3.860  11.163  17.966  0.00  0.00    +0.000 A 
ATOM     24  C   UNL     1      -5.224  11.436  17.414  0.00  0.00    +0.000 C 
ATOM     25  N   UNL     1      -3.452  11.980  18.957  0.00  0.00    +0.000 NA
ATOM     26  C   UNL     1      -2.195  11.795  19.426  0.00  0.00    +0.000 A 
ENDBRANCH  18  20
ENDBRANCH   4  18
TORSDOF 4
ENDMDL
MODEL 2
REMARK VINA RESULT:      -8.0      1.385      2.381
REMARK  Name = 
REMARK  6 active torsions:
REMARK  status: ('A' for Active; 'I' for Inactive)
REMARK    1  A    between atoms: C_1  and  C_2
REMARK    2  A    between atoms: C_2  and  C_3
REMARK    3  A    between atoms: C_9  and  C_11
REMARK    4  A    between atoms: C_14  and  N_15
REMARK    5  A    between atoms: N_15  and  C_16
REMARK    6  A    between atoms: C_19  and  C_20
REMARK                            x       y       z     vdW  Elec       q    Type
REMARK                         _______ _______ _______ _____ _____    ______ ____
ROOT
ATOM      1  C   UNL     1       2.516   7.288  18.931  0.00  0.00    +0.000 A 
ATOM      2  C   UNL     1       2.481   7.991  17.747  0.00  0.00    +0.000 A 
ATOM      3  N   UNL     1       1.745   9.101  17.544  0.00  0.00    +0.000 NA
ATOM      4  C   UNL     1       1.053   9.630  18.577  0.00  0.00    +0.000 A 
ATOM      5  C   UNL     1       1.121   9.043  19.848  0.00  0.00    +0.000 A 
ATOM      6 CL   UNL     1       0.315   9.734  21.209  0.00  0.00    +0.000 Cl
ATOM      7  C   UNL     1       1.861   7.864  20.024  0.00  0.00    +0.000 A 
ENDROOT
BRANCH   1  14
ATOM      8  C   UNL     1       5.183   4.512  18.313  0.00  0.00    +0.000 C 
ATOM      9  C   UNL     1       6.594   5.063  18.619  0.00  0.00    +0.000 C 
ATOM     10  C   UNL     1       7.070   6.026  17.524  0.00  0.00    +0.000 C 
ATOM     11  C   UNL     1       6.035   7.112  17.245  0.00  0.00    +0.000 C 
ATOM     12  C   UNL     1       4.663   6.489  16.970  0.00  0.00    +0.000 C 
ATOM     13  N   UNL     1       4.262   5.666  18.120  0.00  0.00    +0.000 N 
ATOM     14  C   UNL     1       3.302   6.043  19.081  0.00  0.00    +0.000 C 
ATOM     15  O   UNL     1       3.015   5.371  20.071  0.00  0.00    +0.000 OA
BRANCH   8  17
ATOM     16  C   UNL     1       3.852   2.353  18.681  0.00  0.00    +0.000 C 
ATOM     17  C   UNL     1       4.750   3.418  19.305  0.00  0.00    +0.000 C 
ENDBRANCH   8  17
ENDBRANCH   1  14
BRANCH   4  18
ATOM     18  N   UNL     1       0.316  10.814  18.336  0.00  0.00    +0.000 N 
ATOM     19  H   UNL     1       0.694  11.596  18.858  0.00  0.00    +0.000 HD
BRANCH  18  20
ATOM     20  C   UNL     1      -1.088  10.848  18.177  0.00  0.00    +0.000 A 
ATOM     21  C   UNL     1      -1.742  10.001  17.280  0.00  0.00    +0.000 A 
ATOM     22  C   UNL     1      -3.124  10.125  17.085  0.00  0.00    +0.000 A 
ATOM     23  C   UNL     1      -3.830  11.085  17.808  0.00  0.00    +0.000 A 
ATOM     24  C   UNL     1      -5.295  11.310  17.599  0.00  0.00    +0.000 C 
ATOM     25  N   UNL     1      -3.237  11.876  18.723  0.00  0.00    +0.000 NA
ATOM     26  C   UNL     1      -1.899  11.737  18.881  0.00  0.00    +0.000 A 
ENDBRANCH  18  20
ENDBRANCH   4  18
TORSDOF 4
ENDMDL
MODEL 3
REMARK VINA RESULT:      -7.9      2.997      8.470
REMARK  Name = 
REMARK  6 active torsions:
REMARK  status: ('A' for Active; 'I' for Inactive)
REMARK    1  A    between atoms: C_1  and  C_2
REMARK    2  A    between atoms: C_2  and  C_3
REMARK    3  A    between atoms: C_9  and  C_11
REMARK    4  A    between atoms: C_14  and  N_15
REMARK    5  A    between atoms: N_15  and  C_16
REMARK    6  A    between atoms: C_19  and  C_20
REMARK                            x       y       z     vdW  Elec       q    Type
REMARK                         _______ _______ _______ _____ _____    ______ ____
ROOT
ATOM      1  C   UNL     1       2.615   6.167  19.501  0.00  0.00    +0.000 A 
ATOM      2  C   UNL     1       3.934   6.464  19.235  0.00  0.00    +0.000 A 
ATOM      3  N   UNL     1       4.770   5.661  18.549  0.00  0.00    +0.000 NA
ATOM      4  C   UNL     1       4.288   4.524  17.999  0.00  0.00    +0.000 A 
ATOM      5  C   UNL     1       2.930   4.200  18.124  0.00  0.00    +0.000 A 
ATOM      6 CL   UNL     1       2.262   2.798  17.370  0.00  0.00    +0.000 Cl
ATOM      7  C   UNL     1       2.089   5.031  18.878  0.00  0.00    +0.000 A 
ENDROOT
BRANCH   1  14
ATOM      8  C   UNL     1       0.635   9.319  20.660  0.00  0.00    +0.000 C 
ATOM      9  C   UNL     1      -0.543   9.583  19.696  0.00  0.00    +0.000 C 
ATOM     10  C   UNL     1      -0.056  10.152  18.356  0.00  0.00    +0.000 C 
ATOM     11  C   UNL     1       1.050   9.291  17.752  0.00  0.00    +0.000 C 
ATOM     12  C   UNL     1       2.169   9.060  18.772  0.00  0.00    +0.000 C 
ATOM     13  N   UNL     1       1.610   8.425  19.975  0.00  0.00    +0.000 N 
ATOM     14  C   UNL     1       1.757   7.063  20.307  0.00  0.00    +0.000 C 
ATOM     15  O   UNL     1       1.236   6.531  21.286  0.00  0.00    +0.000 OA
BRANCH   8  17
ATOM     16  C   UNL     1      -0.493  10.046  22.843  0.00  0.00    +0.000 C 
ATOM     17  C   UNL     1       0.164   8.909  22.066  0.00  0.00    +0.000 C 
ENDBRANCH   8  17
ENDBRANCH   1  14
BRANCH   4  18
ATOM     18  N   UNL     1       5.186   3.721  17.258  0.00  0.00    +0.000 N 
ATOM     19  H   UNL     1       5.775   3.167  17.869  0.00  0.00    +0.000 HD
BRANCH  18  20
ATOM     20  C   UNL     1       5.822   4.144  16.068  0.00  0.00    +0.000 A 
ATOM     21  C   UNL     1       5.359   3.749  14.812  0.00  0.00    +0.000 A 
ATOM     22  C   UNL     1       6.067   4.116  13.660  0.00  0.00    +0.000 A 
ATOM     23  C   UNL     1       7.218   4.890  13.787  0.00  0.00    +0.000 A 
ATOM     24  C   UNL     1       8.054   5.261  12.602  0.00  0.00    +0.000 C 
ATOM     25  N   UNL     1       7.657   5.337  14.980  0.00  0.00    +0.000 NA
ATOM     26  C   UNL     1       6.955   4.957  16.074  0.00  0.00    +0.000 A 
ENDBRANCH  18  20
ENDBRANCH   4  18
TORSDOF 4
ENDMDL
MODEL 4
REMARK VINA RESULT:      -7.9      3.056      8.469
REMARK  Name = 
REMARK  6 active torsions:
REMARK  status: ('A' for Active; 'I' for Inactive)
REMARK    1  A    between atoms: C_1  and  C_2
REMARK    2  A    between atoms: C_2  and  C_3
REMARK    3  A    between atoms: C_9  and  C_11
REMARK    4  A    between atoms: C_14  and  N_15
REMARK    5  A    between atoms: N_15  and  C_16
REMARK    6  A    between atoms: C_19  and  C_20
REMARK                            x       y       z     vdW  Elec       q    Type
REMARK                         _______ _______ _______ _____ _____    ______ ____
ROOT
ATOM      1  C   UNL     1       2.695   6.130  19.365  0.00  0.00    +0.000 A 
ATOM      2  C   UNL     1       2.213   5.365  18.325  0.00  0.00    +0.000 A 
ATOM      3  N   UNL     1       2.983   4.606  17.521  0.00  0.00    +0.000 NA
ATOM      4  C   UNL     1       4.305   4.501  17.782  0.00  0.00    +0.000 A 
ATOM      5  C   UNL     1       4.861   5.156  18.889  0.00  0.00    +0.000 A 
ATOM      6 CL   UNL     1       6.529   4.983  19.299  0.00  0.00    +0.000 Cl
ATOM      7  C   UNL     1       4.047   5.974  19.686  0.00  0.00    +0.000 A 
ENDROOT
BRANCH   1  14
ATOM      8  C   UNL     1       0.662   9.221  20.595  0.00  0.00    +0.000 C 
ATOM      9  C   UNL     1      -0.492   9.515  19.610  0.00  0.00    +0.000 C 
ATOM     10  C   UNL     1       0.026  10.139  18.308  0.00  0.00    +0.000 C 
ATOM     11  C   UNL     1       1.154   9.310  17.700  0.00  0.00    +0.000 C 
ATOM     12  C   UNL     1       2.247   9.047  18.740  0.00  0.00    +0.000 C 
ATOM     13  N   UNL     1       1.661   8.361  19.901  0.00  0.00    +0.000 N 
ATOM     14  C   UNL     1       1.809   6.988  20.183  0.00  0.00    +0.000 C 
ATOM     15  O   UNL     1       1.267   6.414  21.127  0.00  0.00    +0.000 OA
BRANCH   8  17
ATOM     16  C   UNL     1      -0.383   9.885  22.839  0.00  0.00    +0.000 C 
ATOM     17  C   UNL     1       0.157   8.752  21.971  0.00  0.00    +0.000 C 
ENDBRANCH   8  17
ENDBRANCH   1  14
BRANCH   4  18
ATOM     18  N   UNL     1       5.076   3.669  16.936  0.00  0.00    +0.000 N 
ATOM     19  H   UNL     1       5.574   2.964  17.468  0.00  0.00    +0.000 HD
BRANCH  18  20
ATOM     20  C   UNL     1       5.772   4.135  15.797  0.00  0.00    +0.000 A 
ATOM     21  C   UNL     1       5.501   3.638  14.522  0.00  0.00    +0.000 A 
ATOM     22  C   UNL     1       6.271   4.059  13.430  0.00  0.00    +0.000 A 
ATOM     23  C   UNL     1       7.290   4.987  13.634  0.00  0.00    +0.000 A 
ATOM     24  C   UNL     1       8.190   5.429  12.522  0.00  0.00    +0.000 C 
ATOM     25  N   UNL     1       7.538   5.529  14.842  0.00  0.00    +0.000 NA
ATOM     26  C   UNL     1       6.781   5.095  15.877  0.00  0.00    +0.000 A 
ENDBRANCH  18  20
ENDBRANCH   4  18
TORSDOF 4
ENDMDL
MODEL 5
REMARK VINA RESULT:      -7.7      1.599      1.800
REMARK  Name = 
REMARK  6 active torsions:
REMARK  status: ('A' for Active; 'I' for Inactive)
REMARK    1  A    between atoms: C_1  and  C_2
REMARK    2  A    between atoms: C_2  and  C_3
REMARK    3  A    between atoms: C_9  and  C_11
REMARK    4  A    between atoms: C_14  and  N_15
REMARK    5  A    between atoms: N_15  and  C_16
REMARK    6  A    between atoms: C_19  and  C_20
REMARK                            x       y       z     vdW  Elec       q    Type
REMARK                         _______ _______ _______ _____ _____    ______ ____
ROOT
ATOM      1  C   UNL     1       2.641   6.689  19.247  0.00  0.00    +0.000 A 
ATOM      2  C   UNL     1       2.741   7.362  18.048  0.00  0.00    +0.000 A 
ATOM      3  N   UNL     1       2.121   8.527  17.778  0.00  0.00    +0.000 NA
ATOM      4  C   UNL     1       1.419   9.143  18.755  0.00  0.00    +0.000 A 
ATOM      5  C   UNL     1       1.359   8.585  20.040  0.00  0.00    +0.000 A 
ATOM      6 CL   UNL     1       0.538   9.380  21.334  0.00  0.00    +0.000 Cl
ATOM      7  C   UNL     1       1.978   7.350  20.285  0.00  0.00    +0.000 A 
ENDROOT
BRANCH   1  14
ATOM      8  C   UNL     1       3.160   2.886  19.928  0.00  0.00    +0.000 C 
ATOM      9  C   UNL     1       2.653   2.063  18.722  0.00  0.00    +0.000 C 
ATOM     10  C   UNL     1       1.121   2.035  18.665  0.00  0.00    +0.000 C 
ATOM     11  C   UNL     1       0.531   3.441  18.738  0.00  0.00    +0.000 C 
ATOM     12  C   UNL     1       1.094   4.197  19.946  0.00  0.00    +0.000 C 
ATOM     13  N   UNL     1       2.561   4.247  19.850  0.00  0.00    +0.000 N 
ATOM     14  C   UNL     1       3.302   5.384  19.471  0.00  0.00    +0.000 C 
ATOM     15  O   UNL     1       4.525   5.399  19.339  0.00  0.00    +0.000 OA
BRANCH   8  17
ATOM     16  C   UNL     1       5.139   1.502  20.785  0.00  0.00    +0.000 C 
ATOM     17  C   UNL     1       4.685   2.792  20.107  0.00  0.00    +0.000 C 
ENDBRANCH   8  17
ENDBRANCH   1  14
BRANCH   4  18
ATOM     18  N   UNL     1       0.808  10.380  18.445  0.00  0.00    +0.000 N 
ATOM     19  H   UNL     1       1.267  11.147  18.923  0.00  0.00    +0.000 HD
BRANCH  18  20
ATOM     20  C   UNL     1      -0.586  10.550  18.280  0.00  0.00    +0.000 A 
ATOM     21  C   UNL     1      -1.320   9.751  17.403  0.00  0.00    +0.000 A 
ATOM     22  C   UNL     1      -2.682  10.007  17.200  0.00  0.00    +0.000 A 
ATOM     23  C   UNL     1      -3.290  11.050  17.897  0.00  0.00    +0.000 A 
ATOM     24  C   UNL     1      -4.725  11.415  17.678  0.00  0.00    +0.000 C 
ATOM     25  N   UNL     1      -2.622  11.801  18.795  0.00  0.00    +0.000 NA
ATOM     26  C   UNL     1      -1.305  11.533  18.960  0.00  0.00    +0.000 A 
ENDBRANCH  18  20
ENDBRANCH   4  18
TORSDOF 4
ENDMDL
MODEL 6
REMARK VINA RESULT:      -7.7      0.624      1.085
REMARK  Name = 
REMARK  6 active torsions:
REMARK  status: ('A' for Active; 'I' for Inactive)
REMARK    1  A    between atoms: C_1  and  C_2
REMARK    2  A    between atoms: C_2  and  C_3
REMARK    3  A    between atoms: C_9  and  C_11
REMARK    4  A    between atoms: C_14  and  N_15
REMARK    5  A    between atoms: N_15  and  C_16
REMARK    6  A    between atoms: C_19  and  C_20
REMARK                            x       y       z     vdW  Elec       q    Type
REMARK                         _______ _______ _______ _____ _____    ______ ____
ROOT
ATOM      1  C   UNL     1       2.585   7.715  18.427  0.00  0.00    +0.000 A 
ATOM      2  C   UNL     1       2.304   8.827  17.663  0.00  0.00    +0.000 A 
ATOM      3  N   UNL     1       1.449   9.802  18.029  0.00  0.00    +0.000 NA
ATOM      4  C   UNL     1       0.883   9.757  19.255  0.00  0.00    +0.000 A 
ATOM      5  C   UNL     1       1.201   8.719  20.142  0.00  0.00    +0.000 A 
ATOM      6 CL   UNL     1       0.560   8.669  21.744  0.00  0.00    +0.000 Cl
ATOM      7  C   UNL     1       2.061   7.693  19.723  0.00  0.00    +0.000 A 
ENDROOT
BRANCH   1  14
ATOM      8  C   UNL     1       4.197   4.202  17.910  0.00  0.00    +0.000 C 
ATOM      9  C   UNL     1       3.229   3.293  17.121  0.00  0.00    +0.000 C 
ATOM     10  C   UNL     1       2.054   2.831  17.993  0.00  0.00    +0.000 C 
ATOM     11  C   UNL     1       1.367   4.011  18.675  0.00  0.00    +0.000 C 
ATOM     12  C   UNL     1       2.391   4.873  19.419  0.00  0.00    +0.000 C 
ATOM     13  N   UNL     1       3.416   5.339  18.472  0.00  0.00    +0.000 N 
ATOM     14  C   UNL     1       3.492   6.647  17.952  0.00  0.00    +0.000 C 
ATOM     15  O   UNL     1       4.320   7.010  17.117  0.00  0.00    +0.000 OA
BRANCH   8  17
ATOM     16  C   UNL     1       6.719   4.650  17.981  0.00  0.00    +0.000 C 
ATOM     17  C   UNL     1       5.468   4.542  17.113  0.00  0.00    +0.000 C 
ENDBRANCH   8  17
ENDBRANCH   1  14
BRANCH   4  18
ATOM     18  N   UNL     1       0.016  10.815  19.618  0.00  0.00    +0.000 N 
ATOM     19  H   UNL     1       0.100  11.038  20.603  0.00  0.00    +0.000 HD
BRANCH  18  20
ATOM     20  C   UNL     1      -1.287  10.978  19.094  0.00  0.00    +0.000 A 
ATOM     21  C   UNL     1      -2.136  11.987  19.551  0.00  0.00    +0.000 A 
ATOM     22  C   UNL     1      -3.450  12.063  19.072  0.00  0.00    +0.000 A 
ATOM     23  C   UNL     1      -3.885  11.134  18.128  0.00  0.00    +0.000 A 
ATOM     24  C   UNL     1      -5.294  11.122  17.624  0.00  0.00    +0.000 C 
ATOM     25  N   UNL     1      -3.071  10.185  17.624  0.00  0.00    +0.000 NA
ATOM     26  C   UNL     1      -1.810  10.135  18.115  0.00  0.00    +0.000 A 
ENDBRANCH  18  20
ENDBRANCH   4  18
TORSDOF 4
ENDMDL
MODEL 7
REMARK VINA RESULT:      -7.7      1.893      2.749
REMARK  Name = 
REMARK  6 active torsions:
REMARK  status: ('A' for Active; 'I' for Inactive)
REMARK    1  A    between atoms: C_1  and  C_2
REMARK    2  A    between atoms: C_2  and  C_3
REMARK    3  A    between atoms: C_9  and  C_11
REMARK    4  A    between atoms: C_14  and  N_15
REMARK    5  A    between atoms: N_15  and  C_16
REMARK    6  A    between atoms: C_19  and  C_20
REMARK                            x       y       z     vdW  Elec       q    Type
REMARK                         _______ _______ _______ _____ _____    ______ ____
ROOT
ATOM      1  C   UNL     1       2.543   7.566  18.555  0.00  0.00    +0.000 A 
ATOM      2  C   UNL     1       2.089   8.549  17.703  0.00  0.00    +0.000 A 
ATOM      3  N   UNL     1       1.194   9.497  18.044  0.00  0.00    +0.000 NA
ATOM      4  C   UNL     1       0.762   9.564  19.323  0.00  0.00    +0.000 A 
ATOM      5  C   UNL     1       1.258   8.673  20.285  0.00  0.00    +0.000 A 
ATOM      6 CL   UNL     1       0.790   8.777  21.943  0.00  0.00    +0.000 Cl
ATOM      7  C   UNL     1       2.158   7.669  19.895  0.00  0.00    +0.000 A 
ENDROOT
BRANCH   1  14
ATOM      8  C   UNL     1       4.208   4.078  18.041  0.00  0.00    +0.000 C 
ATOM      9  C   UNL     1       3.301   3.189  17.160  0.00  0.00    +0.000 C 
ATOM     10  C   UNL     1       2.073   2.696  17.936  0.00  0.00    +0.000 C 
ATOM     11  C   UNL     1       1.334   3.851  18.606  0.00  0.00    +0.000 C 
ATOM     12  C   UNL     1       2.301   4.694  19.444  0.00  0.00    +0.000 C 
ATOM     13  N   UNL     1       3.384   5.194  18.584  0.00  0.00    +0.000 N 
ATOM     14  C   UNL     1       3.487   6.517  18.110  0.00  0.00    +0.000 C 
ATOM     15  O   UNL     1       4.366   6.910  17.344  0.00  0.00    +0.000 OA
BRANCH   8  17
ATOM     16  C   UNL     1       5.625   3.927  15.911  0.00  0.00    +0.000 C 
ATOM     17  C   UNL     1       5.528   4.448  17.342  0.00  0.00    +0.000 C 
ENDBRANCH   8  17
ENDBRANCH   1  14
BRANCH   4  18
ATOM     18  N   UNL     1      -0.152  10.591  19.654  0.00  0.00    +0.000 N 
ATOM     19  H   UNL     1      -1.094  10.355  19.362  0.00  0.00    +0.000 HD
BRANCH  18  20
ATOM     20  C   UNL     1       0.150  11.970  19.574  0.00  0.00    +0.000 A 
ATOM     21  C   UNL     1      -0.578  12.831  18.752  0.00  0.00    +0.000 A 
ATOM     22  C   UNL     1      -0.193  14.173  18.631  0.00  0.00    +0.000 A 
ATOM     23  C   UNL     1       0.907  14.632  19.353  0.00  0.00    +0.000 A 
ATOM     24  C   UNL     1       1.408  16.036  19.219  0.00  0.00    +0.000 C 
ATOM     25  N   UNL     1       1.594  13.840  20.200  0.00  0.00    +0.000 NA
ATOM     26  C   UNL     1       1.201  12.547  20.286  0.00  0.00    +0.000 A 
ENDBRANCH  18  20
ENDBRANCH   4  18
TORSDOF 4
ENDMDL
MODEL 8
REMARK VINA RESULT:      -7.7      1.013      1.382
REMARK  Name = 
REMARK  6 active torsions:
REMARK  status: ('A' for Active; 'I' for Inactive)
REMARK    1  A    between atoms: C_1  and  C_2
REMARK    2  A    between atoms: C_2  and  C_3
REMARK    3  A    between atoms: C_9  and  C_11
REMARK    4  A    between atoms: C_14  and  N_15
REMARK    5  A    between atoms: N_15  and  C_16
REMARK    6  A    between atoms: C_19  and  C_20
REMARK                            x       y       z     vdW  Elec       q    Type
REMARK                         _______ _______ _______ _____ _____    ______ ____
ROOT
ATOM      1  C   UNL     1       2.334   7.604  18.888  0.00  0.00    +0.000 A 
ATOM      2  C   UNL     1       2.218   8.538  17.881  0.00  0.00    +0.000 A 
ATOM      3  N   UNL     1       1.466   9.653  17.962  0.00  0.00    +0.000 NA
ATOM      4  C   UNL     1       0.842   9.944  19.126  0.00  0.00    +0.000 A 
ATOM      5  C   UNL     1       0.997   9.106  20.238  0.00  0.00    +0.000 A 
ATOM      6 CL   UNL     1       0.281   9.484  21.763  0.00  0.00    +0.000 Cl
ATOM      7  C   UNL     1       1.751   7.929  20.116  0.00  0.00    +0.000 A 
ENDROOT
BRANCH   1  14
ATOM      8  C   UNL     1       3.659   3.973  19.395  0.00  0.00    +0.000 C 
ATOM      9  C   UNL     1       2.583   2.956  18.954  0.00  0.00    +0.000 C 
ATOM     10  C   UNL     1       1.434   2.878  19.968  0.00  0.00    +0.000 C 
ATOM     11  C   UNL     1       0.875   4.262  20.288  0.00  0.00    +0.000 C 
ATOM     12  C   UNL     1       2.002   5.215  20.698  0.00  0.00    +0.000 C 
ATOM     13  N   UNL     1       2.996   5.288  19.617  0.00  0.00    +0.000 N 
ATOM     14  C   UNL     1       3.132   6.370  18.723  0.00  0.00    +0.000 C 
ATOM     15  O   UNL     1       3.930   6.395  17.787  0.00  0.00    +0.000 OA
BRANCH   8  17
ATOM     16  C   UNL     1       4.621   3.396  17.091  0.00  0.00    +0.000 C 
ATOM     17  C   UNL     1       4.900   3.949  18.485  0.00  0.00    +0.000 C 
ENDBRANCH   8  17
ENDBRANCH   1  14
BRANCH   4  18
ATOM     18  N   UNL     1       0.088  11.139  19.185  0.00  0.00    +0.000 N 
ATOM     19  H   UNL     1       0.342  11.695  19.993  0.00  0.00    +0.000 HD
BRANCH  18  20
ATOM     20  C   UNL     1      -1.278  11.226  18.828  0.00  0.00    +0.000 A 
ATOM     21  C   UNL     1      -2.157  12.073  19.504  0.00  0.00    +0.000 A 
ATOM     22  C   UNL     1      -3.520  12.066  19.180  0.00  0.00    +0.000 A 
ATOM     23  C   UNL     1      -3.975  11.222  18.169  0.00  0.00    +0.000 A 
ATOM     24  C   UNL     1      -5.426  11.121  17.819  0.00  0.00    +0.000 C 
ATOM     25  N   UNL     1      -3.142  10.436  17.459  0.00  0.00    +0.000 NA
ATOM     26  C   UNL     1      -1.832  10.460  17.803  0.00  0.00    +0.000 A 
ENDBRANCH  18  20
ENDBRANCH   4  18
TORSDOF 4
ENDMDL
MODEL 9
REMARK VINA RESULT:      -7.5      2.152      3.061
REMARK  Name = 
REMARK  6 active torsions:
REMARK  status: ('A' for Active; 'I' for Inactive)
REMARK    1  A    between atoms: C_1  and  C_2
REMARK    2  A    between atoms: C_2  and  C_3
REMARK    3  A    between atoms: C_9  and  C_11
REMARK    4  A    between atoms: C_14  and  N_15
REMARK    5  A    between atoms: N_15  and  C_16
REMARK    6  A    between atoms: C_19  and  C_20
REMARK                            x       y       z     vdW  Elec       q    Type
REMARK                         _______ _______ _______ _____ _____    ______ ____
ROOT
ATOM      1  C   UNL     1       2.533   7.558  18.548  0.00  0.00    +0.000 A 
ATOM      2  C   UNL     1       2.082   8.556  17.712  0.00  0.00    +0.000 A 
ATOM      3  N   UNL     1       1.206   9.514  18.077  0.00  0.00    +0.000 NA
ATOM      4  C   UNL     1       0.795   9.574  19.363  0.00  0.00    +0.000 A 
ATOM      5  C   UNL     1       1.291   8.665  20.307  0.00  0.00    +0.000 A 
ATOM      6 CL   UNL     1       0.849   8.759  21.974  0.00  0.00    +0.000 Cl
ATOM      7  C   UNL     1       2.169   7.652  19.894  0.00  0.00    +0.000 A 
ENDROOT
BRANCH   1  14
ATOM      8  C   UNL     1       4.157   4.055  18.003  0.00  0.00    +0.000 C 
ATOM      9  C   UNL     1       3.214   3.165  17.164  0.00  0.00    +0.000 C 
ATOM     10  C   UNL     1       2.012   2.686  17.987  0.00  0.00    +0.000 C 
ATOM     11  C   UNL     1       1.304   3.851  18.674  0.00  0.00    +0.000 C 
ATOM     12  C   UNL     1       2.305   4.695  19.469  0.00  0.00    +0.000 C 
ATOM     13  N   UNL     1       3.360   5.180  18.566  0.00  0.00    +0.000 N 
ATOM     14  C   UNL     1       3.454   6.499  18.078  0.00  0.00    +0.000 C 
ATOM     15  O   UNL     1       4.308   6.880  17.277  0.00  0.00    +0.000 OA
BRANCH   8  17
ATOM     16  C   UNL     1       5.497   3.876  15.826  0.00  0.00    +0.000 C 
ATOM     17  C   UNL     1       5.454   4.411  17.255  0.00  0.00    +0.000 C 
ENDBRANCH   8  17
ENDBRANCH   1  14
BRANCH   4  18
ATOM     18  N   UNL     1      -0.099  10.612  19.718  0.00  0.00    +0.000 N 
ATOM     19  H   UNL     1      -0.882  10.660  19.075  0.00  0.00    +0.000 HD
BRANCH  18  20
ATOM     20  C   UNL     1       0.313  11.866  20.225  0.00  0.00    +0.000 A 
ATOM     21  C   UNL     1       1.236  12.661  19.544  0.00  0.00    +0.000 A 
ATOM     22  C   UNL     1       1.686  13.856  20.121  0.00  0.00    +0.000 A 
ATOM     23  C   UNL     1       1.188  14.242  21.364  0.00  0.00    +0.000 A 
ATOM     24  C   UNL     1       1.675  15.473  22.062  0.00  0.00    +0.000 C 
ATOM     25  N   UNL     1       0.252  13.526  22.018  0.00  0.00    +0.000 NA
ATOM     26  C   UNL     1      -0.155  12.372  21.437  0.00  0.00    +0.000 A 
ENDBRANCH  18  20
ENDBRANCH   4  18
TORSDOF 4
ENDMDL
