MODEL 1
REMARK VINA RESULT:      -8.4      0.000      0.000
REMARK  Name = 
REMARK  14 active torsions:
REMARK  status: ('A' for Active; 'I' for Inactive)
REMARK    1  A    between atoms: C_1  and  C_2
REMARK    2  A    between atoms: C_5  and  C_6
REMARK    3  A    between atoms: C_6  and  O_7
REMARK    4  A    between atoms: C_8  and  C_9
REMARK    5  A    between atoms: N_10  and  N_11
REMARK    6  A    between atoms: N_11  and  C_12
REMARK    7  A    between atoms: C_15  and  N_16
REMARK    8  A    between atoms: N_16  and  N_17
REMARK    9  A    between atoms: C_18  and  C_19
REMARK   10  A    between atoms: C_20  and  C_21
REMARK   11  A    between atoms: C_21  and  O_22
REMARK   12  A    between atoms: C_25  and  C_26
REMARK   13  A    between atoms: C_27  and  O_28
REMARK   14  A    between atoms: C_35  and  O_36
REMARK                            x       y       z     vdW  Elec       q    Type
REMARK                         _______ _______ _______ _____ _____    ______ ____
ROOT
ATOM      1  C   UNL     1      -0.358  11.021  19.235  0.00  0.00    +0.000 A 
ATOM      2  N   UNL     1       0.425  10.370  18.354  0.00  0.00    +0.000 NA
ATOM      3  N   UNL     1       1.171   9.291  18.750  0.00  0.00    +0.000 NA
ATOM      4  C   UNL     1       1.194   8.898  20.042  0.00  0.00    +0.000 A 
ATOM      5  C   UNL     1       0.458   9.594  21.022  0.00  0.00    +0.000 A 
ATOM      6  C   UNL     1       0.487   9.255  22.401  0.00  0.00    +0.000 A 
ATOM      7  C   UNL     1      -0.298   9.926  23.337  0.00  0.00    +0.000 A 
ATOM      8  C   UNL     1      -1.144  10.942  22.918  0.00  0.00    +0.000 A 
ATOM      9  C   UNL     1      -1.181  11.303  21.570  0.00  0.00    +0.000 A 
ATOM     10  C   UNL     1      -0.377  10.653  20.600  0.00  0.00    +0.000 A 
ENDROOT
BRANCH   1  11
ATOM     11  N   UNL     1      -1.194  12.092  18.786  0.00  0.00    +0.000 N 
ATOM     12  H   UNL     1      -1.953  11.699  18.223  0.00  0.00    +0.000 HD
BRANCH  11  14
ATOM     13  C   UNL     1       0.138  13.869  19.147  0.00  0.00    +0.000 C 
ATOM     14  N   UNL     1      -0.550  13.182  18.287  0.00  0.00    +0.000 NA
BRANCH  13  20
ATOM     15  C   UNL     1       0.726  18.629  17.664  0.00  0.00    +0.000 C 
ATOM     16  C   UNL     1       1.278  17.266  17.964  0.00  0.00    +0.000 A 
ATOM     17  N   UNL     1       2.586  17.063  17.675  0.00  0.00    +0.000 NA
ATOM     18  C   UNL     1       3.091  15.832  17.898  0.00  0.00    +0.000 A 
ATOM     19  C   UNL     1       2.365  14.755  18.398  0.00  0.00    +0.000 A 
ATOM     20  C   UNL     1       1.010  14.985  18.694  0.00  0.00    +0.000 A 
ATOM     21  C   UNL     1       0.463  16.263  18.484  0.00  0.00    +0.000 A 
BRANCH  21  22
ATOM     22  O   UNL     1      -0.846  16.574  18.742  0.00  0.00    +0.000 OA
ATOM     23  H   UNL     1      -0.939  16.800  19.697  0.00  0.00    +0.000 HD
ENDBRANCH  21  22
BRANCH  19  24
ATOM     24  C   UNL     1       3.057  13.436  18.549  0.00  0.00    +0.000 C 
BRANCH  24  25
ATOM     25  O   UNL     1       2.593  12.526  17.563  0.00  0.00    +0.000 OA
ATOM     26  H   UNL     1       2.781  12.924  16.694  0.00  0.00    +0.000 HD
ENDBRANCH  24  25
ENDBRANCH  19  24
ENDBRANCH  13  20
ENDBRANCH  11  14
ENDBRANCH   1  11
BRANCH   4  27
ATOM     27  N   UNL     1       1.866   7.691  20.424  0.00  0.00    +0.000 N 
ATOM     28  H   UNL     1       2.234   7.819  21.366  0.00  0.00    +0.000 HD
BRANCH  27  29
ATOM     29  N   UNL     1       2.756   7.080  19.584  0.00  0.00    +0.000 NA
ATOM     30  C   UNL     1       2.371   5.956  19.062  0.00  0.00    +0.000 C 
BRANCH  30  31
ATOM     31  C   UNL     1       3.232   5.121  18.192  0.00  0.00    +0.000 A 
ATOM     32  C   UNL     1       3.172   3.723  18.311  0.00  0.00    +0.000 A 
ATOM     33  C   UNL     1       4.021   2.991  17.488  0.00  0.00    +0.000 A 
ATOM     34  N   UNL     1       4.900   3.530  16.616  0.00  0.00    +0.000 NA
ATOM     35  C   UNL     1       4.936   4.879  16.512  0.00  0.00    +0.000 A 
ATOM     36  C   UNL     1       5.920   5.428  15.522  0.00  0.00    +0.000 C 
ATOM     37  C   UNL     1       4.112   5.711  17.271  0.00  0.00    +0.000 A 
BRANCH  37  38
ATOM     38  O   UNL     1       4.129   7.069  17.116  0.00  0.00    +0.000 OA
ATOM     39  H   UNL     1       3.857   7.333  16.227  0.00  0.00    +0.000 HD
ENDBRANCH  37  38
BRANCH  32  40
ATOM     40  C   UNL     1       2.272   2.975  19.247  0.00  0.00    +0.000 C 
BRANCH  40  41
ATOM     41  O   UNL     1       1.666   1.887  18.569  0.00  0.00    +0.000 OA
ATOM     42  H   UNL     1       1.312   2.220  17.725  0.00  0.00    +0.000 HD
ENDBRANCH  40  41
ENDBRANCH  32  40
ENDBRANCH  30  31
ENDBRANCH  27  29
ENDBRANCH   4  27
TORSDOF 12
ENDMDL
MODEL 2
REMARK VINA RESULT:      -8.1      1.178      1.253
REMARK  Name = 
REMARK  14 active torsions:
REMARK  status: ('A' for Active; 'I' for Inactive)
REMARK    1  A    between atoms: C_1  and  C_2
REMARK    2  A    between atoms: C_5  and  C_6
REMARK    3  A    between atoms: C_6  and  O_7
REMARK    4  A    between atoms: C_8  and  C_9
REMARK    5  A    between atoms: N_10  and  N_11
REMARK    6  A    between atoms: N_11  and  C_12
REMARK    7  A    between atoms: C_15  and  N_16
REMARK    8  A    between atoms: N_16  and  N_17
REMARK    9  A    between atoms: C_18  and  C_19
REMARK   10  A    between atoms: C_20  and  C_21
REMARK   11  A    between atoms: C_21  and  O_22
REMARK   12  A    between atoms: C_25  and  C_26
REMARK   13  A    between atoms: C_27  and  O_28
REMARK   14  A    between atoms: C_35  and  O_36
REMARK                            x       y       z     vdW  Elec       q    Type
REMARK                         _______ _______ _______ _____ _____    ______ ____
ROOT
ATOM      1  C   UNL     1      -0.262  11.198  19.390  0.00  0.00    +0.000 A 
ATOM      2  N   UNL     1       0.556  10.584  18.515  0.00  0.00    +0.000 NA
ATOM      3  N   UNL     1       1.275   9.479  18.889  0.00  0.00    +0.000 NA
ATOM      4  C   UNL     1       1.235   9.022  20.160  0.00  0.00    +0.000 A 
ATOM      5  C   UNL     1       0.461   9.675  21.139  0.00  0.00    +0.000 A 
ATOM      6  C   UNL     1       0.424   9.268  22.499  0.00  0.00    +0.000 A 
ATOM      7  C   UNL     1      -0.398   9.899  23.431  0.00  0.00    +0.000 A 
ATOM      8  C   UNL     1      -1.216  10.943  23.026  0.00  0.00    +0.000 A 
ATOM      9  C   UNL     1      -1.188  11.371  21.697  0.00  0.00    +0.000 A 
ATOM     10  C   UNL     1      -0.346  10.763  20.733  0.00  0.00    +0.000 A 
ENDROOT
BRANCH   1  11
ATOM     11  N   UNL     1      -1.067  12.299  18.959  0.00  0.00    +0.000 N 
ATOM     12  H   UNL     1      -1.787  11.946  18.322  0.00  0.00    +0.000 HD
BRANCH  11  14
ATOM     13  C   UNL     1       0.111  14.126  19.540  0.00  0.00    +0.000 C 
ATOM     14  N   UNL     1      -0.393  13.418  18.576  0.00  0.00    +0.000 NA
BRANCH  13  20
ATOM     15  C   UNL     1       0.911  18.576  17.359  0.00  0.00    +0.000 C 
ATOM     16  C   UNL     1       1.380  17.406  18.173  0.00  0.00    +0.000 A 
ATOM     17  N   UNL     1       2.693  17.387  18.509  0.00  0.00    +0.000 NA
ATOM     18  C   UNL     1       3.144  16.322  19.205  0.00  0.00    +0.000 A 
ATOM     19  C   UNL     1       2.360  15.240  19.597  0.00  0.00    +0.000 A 
ATOM     20  C   UNL     1       1.000  15.279  19.241  0.00  0.00    +0.000 A 
ATOM     21  C   UNL     1       0.503  16.383  18.528  0.00  0.00    +0.000 A 
BRANCH  21  22
ATOM     22  O   UNL     1      -0.805  16.501  18.138  0.00  0.00    +0.000 OA
ATOM     23  H   UNL     1      -0.836  16.874  17.226  0.00  0.00    +0.000 HD
ENDBRANCH  21  22
BRANCH  19  24
ATOM     24  C   UNL     1       3.018  14.110  20.326  0.00  0.00    +0.000 C 
BRANCH  24  25
ATOM     25  O   UNL     1       2.844  14.268  21.727  0.00  0.00    +0.000 OA
ATOM     26  H   UNL     1       3.712  14.113  22.142  0.00  0.00    +0.000 HD
ENDBRANCH  24  25
ENDBRANCH  19  24
ENDBRANCH  13  20
ENDBRANCH  11  14
ENDBRANCH   1  11
BRANCH   4  27
ATOM     27  N   UNL     1       1.879   7.791  20.510  0.00  0.00    +0.000 N 
ATOM     28  H   UNL     1       2.653   8.007  21.138  0.00  0.00    +0.000 HD
BRANCH  27  29
ATOM     29  N   UNL     1       2.211   6.869  19.555  0.00  0.00    +0.000 NA
ATOM     30  C   UNL     1       2.448   5.666  19.980  0.00  0.00    +0.000 C 
BRANCH  30  31
ATOM     31  C   UNL     1       2.894   4.561  19.100  0.00  0.00    +0.000 A 
ATOM     32  C   UNL     1       2.355   3.278  19.286  0.00  0.00    +0.000 A 
ATOM     33  C   UNL     1       2.829   2.275  18.449  0.00  0.00    +0.000 A 
ATOM     34  N   UNL     1       3.775   2.448  17.500  0.00  0.00    +0.000 NA
ATOM     35  C   UNL     1       4.276   3.695  17.331  0.00  0.00    +0.000 A 
ATOM     36  C   UNL     1       5.314   3.838  16.259  0.00  0.00    +0.000 C 
ATOM     37  C   UNL     1       3.855   4.781  18.099  0.00  0.00    +0.000 A 
BRANCH  37  38
ATOM     38  O   UNL     1       4.337   6.041  17.881  0.00  0.00    +0.000 OA
ATOM     39  H   UNL     1       4.858   6.091  17.069  0.00  0.00    +0.000 HD
ENDBRANCH  37  38
BRANCH  32  40
ATOM     40  C   UNL     1       1.320   2.918  20.310  0.00  0.00    +0.000 C 
BRANCH  40  41
ATOM     41  O   UNL     1       0.064   2.728  19.680  0.00  0.00    +0.000 OA
ATOM     42  H   UNL     1      -0.296   3.605  19.459  0.00  0.00    +0.000 HD
ENDBRANCH  40  41
ENDBRANCH  32  40
ENDBRANCH  30  31
ENDBRANCH  27  29
ENDBRANCH   4  27
TORSDOF 12
ENDMDL
MODEL 3
REMARK VINA RESULT:      -8.0      1.153      2.296
REMARK  Name = 
REMARK  14 active torsions:
REMARK  status: ('A' for Active; 'I' for Inactive)
REMARK    1  A    between atoms: C_1  and  C_2
REMARK    2  A    between atoms: C_5  and  C_6
REMARK    3  A    between atoms: C_6  and  O_7
REMARK    4  A    between atoms: C_8  and  C_9
REMARK    5  A    between atoms: N_10  and  N_11
REMARK    6  A    between atoms: N_11  and  C_12
REMARK    7  A    between atoms: C_15  and  N_16
REMARK    8  A    between atoms: N_16  and  N_17
REMARK    9  A    between atoms: C_18  and  C_19
REMARK   10  A    between atoms: C_20  and  C_21
REMARK   11  A    between atoms: C_21  and  O_22
REMARK   12  A    between atoms: C_25  and  C_26
REMARK   13  A    between atoms: C_27  and  O_28
REMARK   14  A    between atoms: C_35  and  O_36
REMARK                            x       y       z     vdW  Elec       q    Type
REMARK                         _______ _______ _______ _____ _____    ______ ____
ROOT
ATOM      1  C   UNL     1      -0.202  11.216  19.313  0.00  0.00    +0.000 A 
ATOM      2  N   UNL     1       0.631  10.549  18.492  0.00  0.00    +0.000 NA
ATOM      3  N   UNL     1       1.299   9.436  18.931  0.00  0.00    +0.000 NA
ATOM      4  C   UNL     1       1.192   9.022  20.212  0.00  0.00    +0.000 A 
ATOM      5  C   UNL     1       0.399   9.729  21.137  0.00  0.00    +0.000 A 
ATOM      6  C   UNL     1       0.293   9.367  22.506  0.00  0.00    +0.000 A 
ATOM      7  C   UNL     1      -0.546  10.052  23.382  0.00  0.00    +0.000 A 
ATOM      8  C   UNL     1      -1.314  11.107  22.911  0.00  0.00    +0.000 A 
ATOM      9  C   UNL     1      -1.217  11.491  21.572  0.00  0.00    +0.000 A 
ATOM     10  C   UNL     1      -0.356  10.827  20.664  0.00  0.00    +0.000 A 
ENDROOT
BRANCH   1  11
ATOM     11  N   UNL     1      -0.954  12.326  18.814  0.00  0.00    +0.000 N 
ATOM     12  H   UNL     1      -1.720  11.967  18.237  0.00  0.00    +0.000 HD
BRANCH  11  14
ATOM     13  C   UNL     1       0.070  14.301  19.154  0.00  0.00    +0.000 C 
ATOM     14  N   UNL     1      -0.228  13.360  18.310  0.00  0.00    +0.000 NA
BRANCH  13  20
ATOM     15  C   UNL     1       4.709  16.024  18.308  0.00  0.00    +0.000 C 
ATOM     16  C   UNL     1       3.223  16.223  18.378  0.00  0.00    +0.000 A 
ATOM     17  N   UNL     1       2.770  17.487  18.197  0.00  0.00    +0.000 NA
ATOM     18  C   UNL     1       1.441  17.695  18.297  0.00  0.00    +0.000 A 
ATOM     19  C   UNL     1       0.502  16.706  18.579  0.00  0.00    +0.000 A 
ATOM     20  C   UNL     1       0.990  15.400  18.762  0.00  0.00    +0.000 A 
ATOM     21  C   UNL     1       2.370  15.155  18.649  0.00  0.00    +0.000 A 
BRANCH  21  22
ATOM     22  O   UNL     1       2.931  13.916  18.814  0.00  0.00    +0.000 OA
ATOM     23  H   UNL     1       2.260  13.311  19.210  0.00  0.00    +0.000 HD
ENDBRANCH  21  22
BRANCH  19  24
ATOM     24  C   UNL     1      -0.937  17.102  18.703  0.00  0.00    +0.000 C 
BRANCH  24  25
ATOM     25  O   UNL     1      -1.234  18.150  17.793  0.00  0.00    +0.000 OA
ATOM     26  H   UNL     1      -1.107  18.990  18.270  0.00  0.00    +0.000 HD
ENDBRANCH  24  25
ENDBRANCH  19  24
ENDBRANCH  13  20
ENDBRANCH  11  14
ENDBRANCH   1  11
BRANCH   4  27
ATOM     27  N   UNL     1       1.782   7.783  20.627  0.00  0.00    +0.000 N 
ATOM     28  H   UNL     1       2.587   7.998  21.215  0.00  0.00    +0.000 HD
BRANCH  27  29
ATOM     29  N   UNL     1       2.033   6.782  19.729  0.00  0.00    +0.000 NA
ATOM     30  C   UNL     1       2.491   5.673  20.222  0.00  0.00    +0.000 C 
BRANCH  30  31
ATOM     31  C   UNL     1       2.889   4.512  19.392  0.00  0.00    +0.000 A 
ATOM     32  C   UNL     1       2.401   3.237  19.721  0.00  0.00    +0.000 A 
ATOM     33  C   UNL     1       2.828   2.182  18.923  0.00  0.00    +0.000 A 
ATOM     34  N   UNL     1       3.686   2.298  17.887  0.00  0.00    +0.000 NA
ATOM     35  C   UNL     1       4.139   3.538  17.582  0.00  0.00    +0.000 A 
ATOM     36  C   UNL     1       5.079   3.617  16.417  0.00  0.00    +0.000 C 
ATOM     37  C   UNL     1       3.757   4.672  18.300  0.00  0.00    +0.000 A 
BRANCH  37  38
ATOM     38  O   UNL     1       4.187   5.921  17.947  0.00  0.00    +0.000 OA
ATOM     39  H   UNL     1       4.326   6.484  18.720  0.00  0.00    +0.000 HD
ENDBRANCH  37  38
BRANCH  32  40
ATOM     40  C   UNL     1       1.465   2.938  20.853  0.00  0.00    +0.000 C 
BRANCH  40  41
ATOM     41  O   UNL     1       2.205   2.659  22.031  0.00  0.00    +0.000 OA
ATOM     42  H   UNL     1       2.611   3.491  22.332  0.00  0.00    +0.000 HD
ENDBRANCH  40  41
ENDBRANCH  32  40
ENDBRANCH  30  31
ENDBRANCH  27  29
ENDBRANCH   4  27
TORSDOF 12
ENDMDL
MODEL 4
REMARK VINA RESULT:      -7.9      0.572      1.990
REMARK  Name = 
REMARK  14 active torsions:
REMARK  status: ('A' for Active; 'I' for Inactive)
REMARK    1  A    between atoms: C_1  and  C_2
REMARK    2  A    between atoms: C_5  and  C_6
REMARK    3  A    between atoms: C_6  and  O_7
REMARK    4  A    between atoms: C_8  and  C_9
REMARK    5  A    between atoms: N_10  and  N_11
REMARK    6  A    between atoms: N_11  and  C_12
REMARK    7  A    between atoms: C_15  and  N_16
REMARK    8  A    between atoms: N_16  and  N_17
REMARK    9  A    between atoms: C_18  and  C_19
REMARK   10  A    between atoms: C_20  and  C_21
REMARK   11  A    between atoms: C_21  and  O_22
REMARK   12  A    between atoms: C_25  and  C_26
REMARK   13  A    between atoms: C_27  and  O_28
REMARK   14  A    between atoms: C_35  and  O_36
REMARK                            x       y       z     vdW  Elec       q    Type
REMARK                         _______ _______ _______ _____ _____    ______ ____
ROOT
ATOM      1  C   UNL     1      -0.171  11.056  19.336  0.00  0.00    +0.000 A 
ATOM      2  N   UNL     1       0.615  10.389  18.470  0.00  0.00    +0.000 NA
ATOM      3  N   UNL     1       1.282   9.259  18.862  0.00  0.00    +0.000 NA
ATOM      4  C   UNL     1       1.224   8.826  20.141  0.00  0.00    +0.000 A 
ATOM      5  C   UNL     1       0.483   9.531  21.110  0.00  0.00    +0.000 A 
ATOM      6  C   UNL     1       0.430   9.150  22.476  0.00  0.00    +0.000 A 
ATOM      7  C   UNL     1      -0.359   9.835  23.398  0.00  0.00    +0.000 A 
ATOM      8  C   UNL     1      -1.129  10.909  22.977  0.00  0.00    +0.000 A 
ATOM      9  C   UNL     1      -1.084  11.312  21.641  0.00  0.00    +0.000 A 
ATOM     10  C   UNL     1      -0.273  10.649  20.686  0.00  0.00    +0.000 A 
ENDROOT
BRANCH   1  11
ATOM     11  N   UNL     1      -0.925  12.186  18.887  0.00  0.00    +0.000 N 
ATOM     12  H   UNL     1      -1.733  11.848  18.355  0.00  0.00    +0.000 HD
BRANCH  11  14
ATOM     13  C   UNL     1       0.294  14.053  19.189  0.00  0.00    +0.000 C 
ATOM     14  N   UNL     1      -0.206  13.205  18.343  0.00  0.00    +0.000 NA
BRANCH  13  20
ATOM     15  C   UNL     1       4.886  15.536  17.808  0.00  0.00    +0.000 C 
ATOM     16  C   UNL     1       3.440  15.821  18.087  0.00  0.00    +0.000 A 
ATOM     17  N   UNL     1       3.053  17.119  18.029  0.00  0.00    +0.000 NA
ATOM     18  C   UNL     1       1.766  17.400  18.318  0.00  0.00    +0.000 A 
ATOM     19  C   UNL     1       0.808  16.456  18.677  0.00  0.00    +0.000 A 
ATOM     20  C   UNL     1       1.227  15.115  18.729  0.00  0.00    +0.000 A 
ATOM     21  C   UNL     1       2.559  14.793  18.420  0.00  0.00    +0.000 A 
BRANCH  21  22
ATOM     22  O   UNL     1       3.052  13.515  18.448  0.00  0.00    +0.000 OA
ATOM     23  H   UNL     1       2.684  13.048  19.234  0.00  0.00    +0.000 HD
ENDBRANCH  21  22
BRANCH  19  24
ATOM     24  C   UNL     1      -0.572  16.931  19.013  0.00  0.00    +0.000 C 
BRANCH  24  25
ATOM     25  O   UNL     1      -1.105  17.683  17.933  0.00  0.00    +0.000 OA
ATOM     26  H   UNL     1      -0.803  18.602  18.047  0.00  0.00    +0.000 HD
ENDBRANCH  24  25
ENDBRANCH  19  24
ENDBRANCH  13  20
ENDBRANCH  11  14
ENDBRANCH   1  11
BRANCH   4  27
ATOM     27  N   UNL     1       1.810   7.572  20.512  0.00  0.00    +0.000 N 
ATOM     28  H   UNL     1       2.125   7.644  21.479  0.00  0.00    +0.000 HD
BRANCH  27  29
ATOM     29  N   UNL     1       2.719   6.948  19.702  0.00  0.00    +0.000 NA
ATOM     30  C   UNL     1       2.273   5.951  19.002  0.00  0.00    +0.000 C 
BRANCH  30  31
ATOM     31  C   UNL     1       3.131   5.114  18.132  0.00  0.00    +0.000 A 
ATOM     32  C   UNL     1       2.939   3.723  18.117  0.00  0.00    +0.000 A 
ATOM     33  C   UNL     1       3.790   2.985  17.301  0.00  0.00    +0.000 A 
ATOM     34  N   UNL     1       4.786   3.509  16.555  0.00  0.00    +0.000 NA
ATOM     35  C   UNL     1       4.949   4.853  16.578  0.00  0.00    +0.000 A 
ATOM     36  C   UNL     1       6.060   5.387  15.725  0.00  0.00    +0.000 C 
ATOM     37  C   UNL     1       4.138   5.693  17.342  0.00  0.00    +0.000 A 
BRANCH  37  38
ATOM     38  O   UNL     1       4.286   7.051  17.314  0.00  0.00    +0.000 OA
ATOM     39  H   UNL     1       5.049   7.340  17.834  0.00  0.00    +0.000 HD
ENDBRANCH  37  38
BRANCH  32  40
ATOM     40  C   UNL     1       1.898   2.987  18.906  0.00  0.00    +0.000 C 
BRANCH  40  41
ATOM     41  O   UNL     1       2.122   1.590  18.818  0.00  0.00    +0.000 OA
ATOM     42  H   UNL     1       3.003   1.452  18.427  0.00  0.00    +0.000 HD
ENDBRANCH  40  41
ENDBRANCH  32  40
ENDBRANCH  30  31
ENDBRANCH  27  29
ENDBRANCH   4  27
TORSDOF 12
ENDMDL
MODEL 5
REMARK VINA RESULT:      -7.8      1.224      9.917
REMARK  Name = 
REMARK  14 active torsions:
REMARK  status: ('A' for Active; 'I' for Inactive)
REMARK    1  A    between atoms: C_1  and  C_2
REMARK    2  A    between atoms: C_5  and  C_6
REMARK    3  A    between atoms: C_6  and  O_7
REMARK    4  A    between atoms: C_8  and  C_9
REMARK    5  A    between atoms: N_10  and  N_11
REMARK    6  A    between atoms: N_11  and  C_12
REMARK    7  A    between atoms: C_15  and  N_16
REMARK    8  A    between atoms: N_16  and  N_17
REMARK    9  A    between atoms: C_18  and  C_19
REMARK   10  A    between atoms: C_20  and  C_21
REMARK   11  A    between atoms: C_21  and  O_22
REMARK   12  A    between atoms: C_25  and  C_26
REMARK   13  A    between atoms: C_27  and  O_28
REMARK   14  A    between atoms: C_35  and  O_36
REMARK                            x       y       z     vdW  Elec       q    Type
REMARK                         _______ _______ _______ _____ _____    ______ ____
ROOT
ATOM      1  C   UNL     1       1.066   8.822  20.326  0.00  0.00    +0.000 A 
ATOM      2  N   UNL     1       1.200   9.071  19.010  0.00  0.00    +0.000 NA
ATOM      3  N   UNL     1       0.611  10.172  18.446  0.00  0.00    +0.000 NA
ATOM      4  C   UNL     1      -0.174  10.993  19.178  0.00  0.00    +0.000 A 
ATOM      5  C   UNL     1      -0.416  10.734  20.541  0.00  0.00    +0.000 A 
ATOM      6  C   UNL     1      -1.273  11.534  21.343  0.00  0.00    +0.000 A 
ATOM      7  C   UNL     1      -1.446  11.287  22.703  0.00  0.00    +0.000 A 
ATOM      8  C   UNL     1      -0.756  10.243  23.302  0.00  0.00    +0.000 A 
ATOM      9  C   UNL     1       0.081   9.433  22.533  0.00  0.00    +0.000 A 
ATOM     10  C   UNL     1       0.259   9.648  21.143  0.00  0.00    +0.000 A 
ENDROOT
BRANCH   1  11
ATOM     11  N   UNL     1       1.756   7.715  20.915  0.00  0.00    +0.000 N 
ATOM     12  H   UNL     1       2.401   8.074  21.625  0.00  0.00    +0.000 HD
BRANCH  11  14
ATOM     13  C   UNL     1       2.362   5.584  20.524  0.00  0.00    +0.000 C 
ATOM     14  N   UNL     1       2.241   6.786  20.048  0.00  0.00    +0.000 NA
BRANCH  13  20
ATOM     15  C   UNL     1       4.834   3.790  16.540  0.00  0.00    +0.000 C 
ATOM     16  C   UNL     1       3.905   3.607  17.704  0.00  0.00    +0.000 A 
ATOM     17  N   UNL     1       3.312   2.395  17.825  0.00  0.00    +0.000 NA
ATOM     18  C   UNL     1       2.441   2.224  18.841  0.00  0.00    +0.000 A 
ATOM     19  C   UNL     1       2.103   3.203  19.770  0.00  0.00    +0.000 A 
ATOM     20  C   UNL     1       2.730   4.454  19.631  0.00  0.00    +0.000 A 
ATOM     21  C   UNL     1       3.652   4.654  18.589  0.00  0.00    +0.000 A 
BRANCH  21  22
ATOM     22  O   UNL     1       4.305   5.839  18.378  0.00  0.00    +0.000 OA
ATOM     23  H   UNL     1       4.405   5.982  17.408  0.00  0.00    +0.000 HD
ENDBRANCH  21  22
BRANCH  19  24
ATOM     24  C   UNL     1       1.083   2.874  20.816  0.00  0.00    +0.000 C 
BRANCH  24  25
ATOM     25  O   UNL     1       1.727   2.506  22.026  0.00  0.00    +0.000 OA
ATOM     26  H   UNL     1       1.504   3.185  22.688  0.00  0.00    +0.000 HD
ENDBRANCH  24  25
ENDBRANCH  19  24
ENDBRANCH  13  20
ENDBRANCH  11  14
ENDBRANCH   1  11
BRANCH   4  27
ATOM     27  N   UNL     1      -0.674  12.213  18.616  0.00  0.00    +0.000 N 
ATOM     28  H   UNL     1      -1.356  11.973  17.897  0.00  0.00    +0.000 HD
BRANCH  27  29
ATOM     29  N   UNL     1       0.174  13.214  18.230  0.00  0.00    +0.000 NA
ATOM     30  C   UNL     1       0.496  14.076  19.145  0.00  0.00    +0.000 C 
BRANCH  30  31
ATOM     31  C   UNL     1       1.339  15.266  18.888  0.00  0.00    +0.000 A 
ATOM     32  C   UNL     1       0.721  16.496  18.611  0.00  0.00    +0.000 A 
ATOM     33  C   UNL     1       1.562  17.572  18.352  0.00  0.00    +0.000 A 
ATOM     34  N   UNL     1       2.911  17.506  18.326  0.00  0.00    +0.000 NA
ATOM     35  C   UNL     1       3.487  16.312  18.604  0.00  0.00    +0.000 A 
ATOM     36  C   UNL     1       4.986  16.292  18.575  0.00  0.00    +0.000 C 
ATOM     37  C   UNL     1       2.741  15.172  18.902  0.00  0.00    +0.000 A 
BRANCH  37  38
ATOM     38  O   UNL     1       3.341  13.988  19.227  0.00  0.00    +0.000 OA
ATOM     39  H   UNL     1       2.704  13.341  19.558  0.00  0.00    +0.000 HD
ENDBRANCH  37  38
BRANCH  32  40
ATOM     40  C   UNL     1      -0.760  16.728  18.575  0.00  0.00    +0.000 C 
BRANCH  40  41
ATOM     41  O   UNL     1      -1.032  18.120  18.594  0.00  0.00    +0.000 OA
ATOM     42  H   UNL     1      -0.374  18.546  19.170  0.00  0.00    +0.000 HD
ENDBRANCH  40  41
ENDBRANCH  32  40
ENDBRANCH  30  31
ENDBRANCH  27  29
ENDBRANCH   4  27
TORSDOF 12
ENDMDL
MODEL 6
REMARK VINA RESULT:      -7.7      2.008      9.754
REMARK  Name = 
REMARK  14 active torsions:
REMARK  status: ('A' for Active; 'I' for Inactive)
REMARK    1  A    between atoms: C_1  and  C_2
REMARK    2  A    between atoms: C_5  and  C_6
REMARK    3  A    between atoms: C_6  and  O_7
REMARK    4  A    between atoms: C_8  and  C_9
REMARK    5  A    between atoms: N_10  and  N_11
REMARK    6  A    between atoms: N_11  and  C_12
REMARK    7  A    between atoms: C_15  and  N_16
REMARK    8  A    between atoms: N_16  and  N_17
REMARK    9  A    between atoms: C_18  and  C_19
REMARK   10  A    between atoms: C_20  and  C_21
REMARK   11  A    between atoms: C_21  and  O_22
REMARK   12  A    between atoms: C_25  and  C_26
REMARK   13  A    between atoms: C_27  and  O_28
REMARK   14  A    between atoms: C_35  and  O_36
REMARK                            x       y       z     vdW  Elec       q    Type
REMARK                         _______ _______ _______ _____ _____    ______ ____
ROOT
ATOM      1  C   UNL     1       1.276   8.687  20.344  0.00  0.00    +0.000 A 
ATOM      2  N   UNL     1       1.660   9.075  19.113  0.00  0.00    +0.000 NA
ATOM      3  N   UNL     1       1.390  10.341  18.666  0.00  0.00    +0.000 NA
ATOM      4  C   UNL     1       0.673  11.206  19.416  0.00  0.00    +0.000 A 
ATOM      5  C   UNL     1       0.175  10.826  20.678  0.00  0.00    +0.000 A 
ATOM      6  C   UNL     1      -0.626  11.677  21.485  0.00  0.00    +0.000 A 
ATOM      7  C   UNL     1      -1.055  11.293  22.754  0.00  0.00    +0.000 A 
ATOM      8  C   UNL     1      -0.681  10.056  23.258  0.00  0.00    +0.000 A 
ATOM      9  C   UNL     1       0.094   9.195  22.479  0.00  0.00    +0.000 A 
ATOM     10  C   UNL     1       0.526   9.550  21.176  0.00  0.00    +0.000 A 
ENDROOT
BRANCH   1  11
ATOM     11  N   UNL     1       1.639   7.390  20.827  0.00  0.00    +0.000 N 
ATOM     12  H   UNL     1       2.169   7.503  21.696  0.00  0.00    +0.000 HD
BRANCH  11  14
ATOM     13  C   UNL     1       2.646   5.430  20.374  0.00  0.00    +0.000 C 
ATOM     14  N   UNL     1       2.140   6.528  19.901  0.00  0.00    +0.000 NA
BRANCH  13  20
ATOM     15  C   UNL     1       5.180   3.882  16.326  0.00  0.00    +0.000 C 
ATOM     16  C   UNL     1       4.282   3.615  17.499  0.00  0.00    +0.000 A 
ATOM     17  N   UNL     1       3.777   2.362  17.604  0.00  0.00    +0.000 NA
ATOM     18  C   UNL     1       2.934   2.113  18.627  0.00  0.00    +0.000 A 
ATOM     19  C   UNL     1       2.542   3.050  19.579  0.00  0.00    +0.000 A 
ATOM     20  C   UNL     1       3.079   4.344  19.455  0.00  0.00    +0.000 A 
ATOM     21  C   UNL     1       3.970   4.625  18.406  0.00  0.00    +0.000 A 
BRANCH  21  22
ATOM     22  O   UNL     1       4.537   5.857  18.209  0.00  0.00    +0.000 OA
ATOM     23  H   UNL     1       4.186   6.241  17.372  0.00  0.00    +0.000 HD
ENDBRANCH  21  22
BRANCH  19  24
ATOM     24  C   UNL     1       1.562   2.633  20.631  0.00  0.00    +0.000 C 
BRANCH  24  25
ATOM     25  O   UNL     1       0.241   2.957  20.224  0.00  0.00    +0.000 OA
ATOM     26  H   UNL     1       0.215   3.920  20.075  0.00  0.00    +0.000 HD
ENDBRANCH  24  25
ENDBRANCH  19  24
ENDBRANCH  13  20
ENDBRANCH  11  14
ENDBRANCH   1  11
BRANCH   4  27
ATOM     27  N   UNL     1       0.512  12.569  19.002  0.00  0.00    +0.000 N 
ATOM     28  H   UNL     1       0.486  12.587  17.982  0.00  0.00    +0.000 HD
BRANCH  27  29
ATOM     29  N   UNL     1       1.283  13.566  19.533  0.00  0.00    +0.000 NA
ATOM     30  C   UNL     1       2.460  13.720  19.009  0.00  0.00    +0.000 C 
BRANCH  30  31
ATOM     31  C   UNL     1       3.455  14.697  19.507  0.00  0.00    +0.000 A 
ATOM     32  C   UNL     1       3.880  15.733  18.659  0.00  0.00    +0.000 A 
ATOM     33  C   UNL     1       4.834  16.605  19.171  0.00  0.00    +0.000 A 
ATOM     34  N   UNL     1       5.386  16.508  20.399  0.00  0.00    +0.000 NA
ATOM     35  C   UNL     1       4.956  15.506  21.204  0.00  0.00    +0.000 A 
ATOM     36  C   UNL     1       5.590  15.447  22.562  0.00  0.00    +0.000 C 
ATOM     37  C   UNL     1       3.985  14.588  20.803  0.00  0.00    +0.000 A 
BRANCH  37  38
ATOM     38  O   UNL     1       3.529  13.614  21.647  0.00  0.00    +0.000 OA
ATOM     39  H   UNL     1       3.014  13.984  22.377  0.00  0.00    +0.000 HD
ENDBRANCH  37  38
BRANCH  32  40
ATOM     40  C   UNL     1       3.385  15.962  17.263  0.00  0.00    +0.000 C 
BRANCH  40  41
ATOM     41  O   UNL     1       2.941  17.301  17.120  0.00  0.00    +0.000 OA
ATOM     42  H   UNL     1       2.102  17.288  16.627  0.00  0.00    +0.000 HD
ENDBRANCH  40  41
ENDBRANCH  32  40
ENDBRANCH  30  31
ENDBRANCH  27  29
ENDBRANCH   4  27
TORSDOF 12
ENDMDL
MODEL 7
REMARK VINA RESULT:      -7.7      1.030      9.685
REMARK  Name = 
REMARK  14 active torsions:
REMARK  status: ('A' for Active; 'I' for Inactive)
REMARK    1  A    between atoms: C_1  and  C_2
REMARK    2  A    between atoms: C_5  and  C_6
REMARK    3  A    between atoms: C_6  and  O_7
REMARK    4  A    between atoms: C_8  and  C_9
REMARK    5  A    between atoms: N_10  and  N_11
REMARK    6  A    between atoms: N_11  and  C_12
REMARK    7  A    between atoms: C_15  and  N_16
REMARK    8  A    between atoms: N_16  and  N_17
REMARK    9  A    between atoms: C_18  and  C_19
REMARK   10  A    between atoms: C_20  and  C_21
REMARK   11  A    between atoms: C_21  and  O_22
REMARK   12  A    between atoms: C_25  and  C_26
REMARK   13  A    between atoms: C_27  and  O_28
REMARK   14  A    between atoms: C_35  and  O_36
REMARK                            x       y       z     vdW  Elec       q    Type
REMARK                         _______ _______ _______ _____ _____    ______ ____
ROOT
ATOM      1  C   UNL     1       1.256   8.602  20.233  0.00  0.00    +0.000 A 
ATOM      2  N   UNL     1       1.497   8.860  18.934  0.00  0.00    +0.000 NA
ATOM      3  N   UNL     1       1.036  10.013  18.355  0.00  0.00    +0.000 NA
ATOM      4  C   UNL     1       0.272  10.883  19.051  0.00  0.00    +0.000 A 
ATOM      5  C   UNL     1      -0.081  10.624  20.390  0.00  0.00    +0.000 A 
ATOM      6  C   UNL     1      -0.923  11.477  21.151  0.00  0.00    +0.000 A 
ATOM      7  C   UNL     1      -1.206  11.224  22.491  0.00  0.00    +0.000 A 
ATOM      8  C   UNL     1      -0.642  10.118  23.112  0.00  0.00    +0.000 A 
ATOM      9  C   UNL     1       0.178   9.256  22.382  0.00  0.00    +0.000 A 
ATOM     10  C   UNL     1       0.465   9.477  21.012  0.00  0.00    +0.000 A 
ENDROOT
BRANCH   1  11
ATOM     11  N   UNL     1       1.816   7.435  20.842  0.00  0.00    +0.000 N 
ATOM     12  H   UNL     1       2.063   7.660  21.810  0.00  0.00    +0.000 HD
BRANCH  11  14
ATOM     13  C   UNL     1       2.310   5.697  19.501  0.00  0.00    +0.000 C 
ATOM     14  N   UNL     1       2.741   6.763  20.104  0.00  0.00    +0.000 NA
BRANCH  13  20
ATOM     15  C   UNL     1       5.455   5.698  15.588  0.00  0.00    +0.000 C 
ATOM     16  C   UNL     1       4.676   4.979  16.651  0.00  0.00    +0.000 A 
ATOM     17  N   UNL     1       4.702   3.625  16.611  0.00  0.00    +0.000 NA
ATOM     18  C   UNL     1       3.974   2.960  17.533  0.00  0.00    +0.000 A 
ATOM     19  C   UNL     1       3.195   3.563  18.516  0.00  0.00    +0.000 A 
ATOM     20  C   UNL     1       3.184   4.969  18.543  0.00  0.00    +0.000 A 
ATOM     21  C   UNL     1       3.944   5.686  17.602  0.00  0.00    +0.000 A 
BRANCH  21  22
ATOM     22  O   UNL     1       3.988   7.054  17.554  0.00  0.00    +0.000 OA
ATOM     23  H   UNL     1       4.327   7.394  18.416  0.00  0.00    +0.000 HD
ENDBRANCH  21  22
BRANCH  19  24
ATOM     24  C   UNL     1       2.407   2.688  19.440  0.00  0.00    +0.000 C 
BRANCH  24  25
ATOM     25  O   UNL     1       1.179   2.317  18.832  0.00  0.00    +0.000 OA
ATOM     26  H   UNL     1       0.700   1.758  19.470  0.00  0.00    +0.000 HD
ENDBRANCH  24  25
ENDBRANCH  19  24
ENDBRANCH  13  20
ENDBRANCH  11  14
ENDBRANCH   1  11
BRANCH   4  27
ATOM     27  N   UNL     1      -0.092  12.148  18.483  0.00  0.00    +0.000 N 
ATOM     28  H   UNL     1      -0.565  11.971  17.597  0.00  0.00    +0.000 HD
BRANCH  27  29
ATOM     29  N   UNL     1       0.807  13.176  18.410  0.00  0.00    +0.000 NA
ATOM     30  C   UNL     1       0.593  14.181  19.202  0.00  0.00    +0.000 C 
BRANCH  30  31
ATOM     31  C   UNL     1       1.418  15.411  19.204  0.00  0.00    +0.000 A 
ATOM     32  C   UNL     1       0.810  16.643  18.914  0.00  0.00    +0.000 A 
ATOM     33  C   UNL     1       1.637  17.760  18.906  0.00  0.00    +0.000 A 
ATOM     34  N   UNL     1       2.969  17.733  19.130  0.00  0.00    +0.000 NA
ATOM     35  C   UNL     1       3.534  16.535  19.416  0.00  0.00    +0.000 A 
ATOM     36  C   UNL     1       5.012  16.559  19.669  0.00  0.00    +0.000 C 
ATOM     37  C   UNL     1       2.795  15.353  19.475  0.00  0.00    +0.000 A 
BRANCH  37  38
ATOM     38  O   UNL     1       3.375  14.163  19.813  0.00  0.00    +0.000 OA
ATOM     39  H   UNL     1       3.895  14.234  20.625  0.00  0.00    +0.000 HD
ENDBRANCH  37  38
BRANCH  32  40
ATOM     40  C   UNL     1      -0.647  16.837  18.618  0.00  0.00    +0.000 C 
BRANCH  40  41
ATOM     41  O   UNL     1      -0.803  17.692  17.498  0.00  0.00    +0.000 OA
ATOM     42  H   UNL     1      -1.268  18.493  17.795  0.00  0.00    +0.000 HD
ENDBRANCH  40  41
ENDBRANCH  32  40
ENDBRANCH  30  31
ENDBRANCH  27  29
ENDBRANCH   4  27
TORSDOF 12
ENDMDL
MODEL 8
REMARK VINA RESULT:      -7.7      0.526      9.458
REMARK  Name = 
REMARK  14 active torsions:
REMARK  status: ('A' for Active; 'I' for Inactive)
REMARK    1  A    between atoms: C_1  and  C_2
REMARK    2  A    between atoms: C_5  and  C_6
REMARK    3  A    between atoms: C_6  and  O_7
REMARK    4  A    between atoms: C_8  and  C_9
REMARK    5  A    between atoms: N_10  and  N_11
REMARK    6  A    between atoms: N_11  and  C_12
REMARK    7  A    between atoms: C_15  and  N_16
REMARK    8  A    between atoms: N_16  and  N_17
REMARK    9  A    between atoms: C_18  and  C_19
REMARK   10  A    between atoms: C_20  and  C_21
REMARK   11  A    between atoms: C_21  and  O_22
REMARK   12  A    between atoms: C_25  and  C_26
REMARK   13  A    between atoms: C_27  and  O_28
REMARK   14  A    between atoms: C_35  and  O_36
REMARK                            x       y       z     vdW  Elec       q    Type
REMARK                         _______ _______ _______ _____ _____    ______ ____
ROOT
ATOM      1  C   UNL     1       1.193   8.800  20.008  0.00  0.00    +0.000 A 
ATOM      2  N   UNL     1       1.016   9.170  18.726  0.00  0.00    +0.000 NA
ATOM      3  N   UNL     1       0.205  10.228  18.411  0.00  0.00    +0.000 NA
ATOM      4  C   UNL     1      -0.490  10.879  19.369  0.00  0.00    +0.000 A 
ATOM      5  C   UNL     1      -0.408  10.482  20.718  0.00  0.00    +0.000 A 
ATOM      6  C   UNL     1      -1.156  11.098  21.756  0.00  0.00    +0.000 A 
ATOM      7  C   UNL     1      -1.009  10.721  23.089  0.00  0.00    +0.000 A 
ATOM      8  C   UNL     1      -0.098   9.729  23.423  0.00  0.00    +0.000 A 
ATOM      9  C   UNL     1       0.639   9.098  22.420  0.00  0.00    +0.000 A 
ATOM     10  C   UNL     1       0.494   9.446  21.053  0.00  0.00    +0.000 A 
ENDROOT
BRANCH   1  11
ATOM     11  N   UNL     1       2.108   7.746  20.325  0.00  0.00    +0.000 N 
ATOM     12  H   UNL     1       2.884   8.141  20.865  0.00  0.00    +0.000 HD
BRANCH  11  14
ATOM     13  C   UNL     1       3.616   6.388  19.354  0.00  0.00    +0.000 C 
ATOM     14  N   UNL     1       2.427   6.906  19.303  0.00  0.00    +0.000 NA
BRANCH  13  20
ATOM     15  C   UNL     1       5.601   5.042  14.943  0.00  0.00    +0.000 C 
ATOM     16  C   UNL     1       4.957   4.702  16.256  0.00  0.00    +0.000 A 
ATOM     17  N   UNL     1       4.640   3.400  16.458  0.00  0.00    +0.000 NA
ATOM     18  C   UNL     1       4.022   3.080  17.613  0.00  0.00    +0.000 A 
ATOM     19  C   UNL     1       3.682   3.991  18.610  0.00  0.00    +0.000 A 
ATOM     20  C   UNL     1       4.021   5.337  18.384  0.00  0.00    +0.000 A 
ATOM     21  C   UNL     1       4.678   5.694  17.194  0.00  0.00    +0.000 A 
BRANCH  21  22
ATOM     22  O   UNL     1       5.042   6.979  16.891  0.00  0.00    +0.000 OA
ATOM     23  H   UNL     1       5.856   6.959  16.335  0.00  0.00    +0.000 HD
ENDBRANCH  21  22
BRANCH  19  24
ATOM     24  C   UNL     1       2.956   3.487  19.819  0.00  0.00    +0.000 C 
BRANCH  24  25
ATOM     25  O   UNL     1       2.576   2.133  19.631  0.00  0.00    +0.000 OA
ATOM     26  H   UNL     1       1.636   2.062  19.877  0.00  0.00    +0.000 HD
ENDBRANCH  24  25
ENDBRANCH  19  24
ENDBRANCH  13  20
ENDBRANCH  11  14
ENDBRANCH   1  11
BRANCH   4  27
ATOM     27  N   UNL     1      -1.227  12.067  19.052  0.00  0.00    +0.000 N 
ATOM     28  H   UNL     1      -2.085  11.788  18.576  0.00  0.00    +0.000 HD
BRANCH  27  29
ATOM     29  N   UNL     1      -0.619  13.142  18.465  0.00  0.00    +0.000 NA
ATOM     30  C   UNL     1       0.335  13.701  19.143  0.00  0.00    +0.000 C 
BRANCH  30  31
ATOM     31  C   UNL     1       1.050  14.919  18.698  0.00  0.00    +0.000 A 
ATOM     32  C   UNL     1       2.420  14.837  18.400  0.00  0.00    +0.000 A 
ATOM     33  C   UNL     1       3.045  16.016  18.012  0.00  0.00    +0.000 A 
ATOM     34  N   UNL     1       2.436  17.219  17.928  0.00  0.00    +0.000 NA
ATOM     35  C   UNL     1       1.113  17.274  18.212  0.00  0.00    +0.000 A 
ATOM     36  C   UNL     1       0.480  18.628  18.093  0.00  0.00    +0.000 C 
ATOM     37  C   UNL     1       0.380  16.148  18.588  0.00  0.00    +0.000 A 
BRANCH  37  38
ATOM     38  O   UNL     1      -0.965  16.215  18.823  0.00  0.00    +0.000 OA
ATOM     39  H   UNL     1      -1.287  17.127  18.806  0.00  0.00    +0.000 HD
ENDBRANCH  37  38
BRANCH  32  40
ATOM     40  C   UNL     1       3.244  13.587  18.470  0.00  0.00    +0.000 C 
BRANCH  40  41
ATOM     41  O   UNL     1       2.869  12.702  17.427  0.00  0.00    +0.000 OA
ATOM     42  H   UNL     1       3.659  12.196  17.165  0.00  0.00    +0.000 HD
ENDBRANCH  40  41
ENDBRANCH  32  40
ENDBRANCH  30  31
ENDBRANCH  27  29
ENDBRANCH   4  27
TORSDOF 12
ENDMDL
MODEL 9
REMARK VINA RESULT:      -7.6      2.281      9.718
REMARK  Name = 
REMARK  14 active torsions:
REMARK  status: ('A' for Active; 'I' for Inactive)
REMARK    1  A    between atoms: C_1  and  C_2
REMARK    2  A    between atoms: C_5  and  C_6
REMARK    3  A    between atoms: C_6  and  O_7
REMARK    4  A    between atoms: C_8  and  C_9
REMARK    5  A    between atoms: N_10  and  N_11
REMARK    6  A    between atoms: N_11  and  C_12
REMARK    7  A    between atoms: C_15  and  N_16
REMARK    8  A    between atoms: N_16  and  N_17
REMARK    9  A    between atoms: C_18  and  C_19
REMARK   10  A    between atoms: C_20  and  C_21
REMARK   11  A    between atoms: C_21  and  O_22
REMARK   12  A    between atoms: C_25  and  C_26
REMARK   13  A    between atoms: C_27  and  O_28
REMARK   14  A    between atoms: C_35  and  O_36
REMARK                            x       y       z     vdW  Elec       q    Type
REMARK                         _______ _______ _______ _____ _____    ______ ____
ROOT
ATOM      1  C   UNL     1       1.184   8.776  20.420  0.00  0.00    +0.000 A 
ATOM      2  N   UNL     1       1.585   9.115  19.180  0.00  0.00    +0.000 NA
ATOM      3  N   UNL     1       1.320  10.362  18.679  0.00  0.00    +0.000 NA
ATOM      4  C   UNL     1       0.593  11.255  19.386  0.00  0.00    +0.000 A 
ATOM      5  C   UNL     1       0.078  10.925  20.655  0.00  0.00    +0.000 A 
ATOM      6  C   UNL     1      -0.734  11.806  21.417  0.00  0.00    +0.000 A 
ATOM      7  C   UNL     1      -1.179  11.473  22.694  0.00  0.00    +0.000 A 
ATOM      8  C   UNL     1      -0.813  10.256  23.251  0.00  0.00    +0.000 A 
ATOM      9  C   UNL     1      -0.026   9.366  22.517  0.00  0.00    +0.000 A 
ATOM     10  C   UNL     1       0.423   9.670  21.207  0.00  0.00    +0.000 A 
ENDROOT
BRANCH   1  11
ATOM     11  N   UNL     1       1.541   7.499  20.959  0.00  0.00    +0.000 N 
ATOM     12  H   UNL     1       2.027   7.645  21.848  0.00  0.00    +0.000 HD
BRANCH  11  14
ATOM     13  C   UNL     1       2.311   5.424  20.550  0.00  0.00    +0.000 C 
ATOM     14  N   UNL     1       2.098   6.617  20.084  0.00  0.00    +0.000 NA
BRANCH  13  20
ATOM     15  C   UNL     1       4.878   3.868  16.527  0.00  0.00    +0.000 C 
ATOM     16  C   UNL     1       3.985   3.600  17.703  0.00  0.00    +0.000 A 
ATOM     17  N   UNL     1       3.505   2.339  17.827  0.00  0.00    +0.000 NA
ATOM     18  C   UNL     1       2.667   2.089  18.854  0.00  0.00    +0.000 A 
ATOM     19  C   UNL     1       2.255   3.032  19.791  0.00  0.00    +0.000 A 
ATOM     20  C   UNL     1       2.766   4.334  19.648  0.00  0.00    +0.000 A 
ATOM     21  C   UNL     1       3.652   4.618  18.595  0.00  0.00    +0.000 A 
BRANCH  21  22
ATOM     22  O   UNL     1       4.194   5.857  18.380  0.00  0.00    +0.000 OA
ATOM     23  H   UNL     1       4.489   6.232  19.243  0.00  0.00    +0.000 HD
ENDBRANCH  21  22
BRANCH  19  24
ATOM     24  C   UNL     1       1.283   2.610  20.849  0.00  0.00    +0.000 C 
BRANCH  24  25
ATOM     25  O   UNL     1       1.962   2.395  22.077  0.00  0.00    +0.000 OA
ATOM     26  H   UNL     1       2.090   1.433  22.170  0.00  0.00    +0.000 HD
ENDBRANCH  24  25
ENDBRANCH  19  24
ENDBRANCH  13  20
ENDBRANCH  11  14
ENDBRANCH   1  11
BRANCH   4  27
ATOM     27  N   UNL     1       0.437  12.600  18.915  0.00  0.00    +0.000 N 
ATOM     28  H   UNL     1       0.490  12.586  17.897  0.00  0.00    +0.000 HD
BRANCH  27  29
ATOM     29  N   UNL     1       1.144  13.631  19.471  0.00  0.00    +0.000 NA
ATOM     30  C   UNL     1       2.434  13.493  19.494  0.00  0.00    +0.000 C 
BRANCH  30  31
ATOM     31  C   UNL     1       3.350  14.472  20.124  0.00  0.00    +0.000 A 
ATOM     32  C   UNL     1       4.439  14.962  19.386  0.00  0.00    +0.000 A 
ATOM     33  C   UNL     1       5.280  15.858  20.036  0.00  0.00    +0.000 A 
ATOM     34  N   UNL     1       5.132  16.261  21.317  0.00  0.00    +0.000 NA
ATOM     35  C   UNL     1       4.071  15.782  22.008  0.00  0.00    +0.000 A 
ATOM     36  C   UNL     1       3.944  16.268  23.421  0.00  0.00    +0.000 C 
ATOM     37  C   UNL     1       3.150  14.897  21.448  0.00  0.00    +0.000 A 
BRANCH  37  38
ATOM     38  O   UNL     1       2.058  14.462  22.146  0.00  0.00    +0.000 OA
ATOM     39  H   UNL     1       1.343  15.114  22.137  0.00  0.00    +0.000 HD
ENDBRANCH  37  38
BRANCH  32  40
ATOM     40  C   UNL     1       4.756  14.594  17.968  0.00  0.00    +0.000 C 
BRANCH  40  41
ATOM     41  O   UNL     1       6.119  14.868  17.689  0.00  0.00    +0.000 OA
ATOM     42  H   UNL     1       6.572  15.022  18.536  0.00  0.00    +0.000 HD
ENDBRANCH  40  41
ENDBRANCH  32  40
ENDBRANCH  30  31
ENDBRANCH  27  29
ENDBRANCH   4  27
TORSDOF 12
ENDMDL
