MODEL 1
REMARK VINA RESULT:      -7.9      0.000      0.000
REMARK  Name = 
REMARK  4 active torsions:
REMARK  status: ('A' for Active; 'I' for Inactive)
REMARK    1  A    between atoms: C_1  and  O_2
REMARK    2  A    between atoms: O_2  and  C_3
REMARK    3  A    between atoms: C_13  and  C_14
REMARK    4  A    between atoms: C_15  and  C_16
REMARK                            x       y       z     vdW  Elec       q    Type
REMARK                         _______ _______ _______ _____ _____    ______ ____
ROOT
ATOM      1  C   UNL     1      -4.598  14.256  21.892  0.00  0.00    +0.000 C 
ATOM      2  C   UNL     1      -4.366  12.746  21.868  0.00  0.00    +0.000 C 
ATOM      3  C   UNL     1      -3.090  12.403  21.103  0.00  0.00    +0.000 C 
ATOM      4  C   UNL     1      -1.779  13.091  21.659  0.00  0.00    +0.000 C 
ATOM      5  C   UNL     1      -2.063  14.604  21.769  0.00  0.00    +0.000 C 
ATOM      6  C   UNL     1      -3.374  14.944  22.503  0.00  0.00    +0.000 C 
ATOM      7  C   UNL     1      -1.434  12.493  23.051  0.00  0.00    +0.000 C 
ATOM      8  C   UNL     1      -0.720  11.229  22.668  0.00  0.00    +0.000 A 
ATOM      9  C   UNL     1      -0.697  10.053  23.399  0.00  0.00    +0.000 A 
ATOM     10  C   UNL     1      -0.066   8.938  22.842  0.00  0.00    +0.000 A 
ATOM     11  C   UNL     1       0.553   9.001  21.580  0.00  0.00    +0.000 A 
ATOM     12  C   UNL     1       0.532  10.218  20.858  0.00  0.00    +0.000 A 
ATOM     13  C   UNL     1      -0.135  11.334  21.404  0.00  0.00    +0.000 A 
ATOM     14  C   UNL     1      -0.516  12.679  20.753  0.00  0.00    +0.000 C 
ATOM     15  N   UNL     1      -1.049  12.461  19.364  0.00  0.00    +0.000 NA
ATOM     16  C   UNL     1      -0.191  13.042  18.584  0.00  0.00    +0.000 C 
ATOM     17  N   UNL     1      -0.618  13.606  17.428  0.00  0.00    +0.000 N 
ATOM     18  C   UNL     1       1.067  13.384  19.220  0.00  0.00    +0.000 A 
ATOM     19  C   UNL     1       2.179  13.917  18.604  0.00  0.00    +0.000 A 
ATOM     20  F   UNL     1       2.596  13.483  17.410  0.00  0.00    +0.000 F 
ATOM     21  C   UNL     1       2.819  14.957  19.243  0.00  0.00    +0.000 A 
ATOM     22  C   UNL     1       2.268  15.440  20.439  0.00  0.00    +0.000 A 
ATOM     23  C   UNL     1       1.212  14.757  21.102  0.00  0.00    +0.000 A 
ATOM     24  C   UNL     1       0.661  13.623  20.523  0.00  0.00    +0.000 A 
ATOM     25  H   UNL     1      -1.637  13.561  17.421  0.00  0.00    +0.000 HD
ATOM     26  H   UNL     1      -0.363  14.594  17.395  0.00  0.00    +0.000 HD
ENDROOT
BRANCH   1  28
ATOM     27  C   UNL     1      -6.062  14.520  20.013  0.00  0.00    +0.000 C 
ATOM     28  O   UNL     1      -4.793  14.810  20.584  0.00  0.00    +0.000 OA
ENDBRANCH   1  28
BRANCH  11  29
ATOM     29  C   UNL     1       1.147   7.786  21.068  0.00  0.00    +0.000 C 
ATOM     30  C   UNL     1       1.532   6.725  20.652  0.00  0.00    +0.000 C 
BRANCH  30  31
ATOM     31  C   UNL     1       1.965   5.435  20.169  0.00  0.00    +0.000 C 
ATOM     32  C   UNL     1       2.329   4.363  21.168  0.00  0.00    +0.000 C 
ATOM     33  C   UNL     1       1.079   4.225  20.350  0.00  0.00    +0.000 C 
ENDBRANCH  30  31
ENDBRANCH  11  29
TORSDOF 3
ENDMDL
MODEL 2
REMARK VINA RESULT:      -7.6      3.979      6.172
REMARK  Name = 
REMARK  4 active torsions:
REMARK  status: ('A' for Active; 'I' for Inactive)
REMARK    1  A    between atoms: C_1  and  O_2
REMARK    2  A    between atoms: O_2  and  C_3
REMARK    3  A    between atoms: C_13  and  C_14
REMARK    4  A    between atoms: C_15  and  C_16
REMARK                            x       y       z     vdW  Elec       q    Type
REMARK                         _______ _______ _______ _____ _____    ______ ____
ROOT
ATOM      1  C   UNL     1      -0.601  15.198  21.650  0.00  0.00    +0.000 C 
ATOM      2  C   UNL     1      -1.421  15.176  20.361  0.00  0.00    +0.000 C 
ATOM      3  C   UNL     1      -0.989  14.020  19.461  0.00  0.00    +0.000 C 
ATOM      4  C   UNL     1      -1.088  12.589  20.128  0.00  0.00    +0.000 C 
ATOM      5  C   UNL     1      -0.338  12.656  21.476  0.00  0.00    +0.000 C 
ATOM      6  C   UNL     1      -0.744  13.848  22.361  0.00  0.00    +0.000 C 
ATOM      7  C   UNL     1      -2.583  12.224  20.347  0.00  0.00    +0.000 C 
ATOM      8  C   UNL     1      -2.972  11.720  18.988  0.00  0.00    +0.000 A 
ATOM      9  C   UNL     1      -4.232  11.802  18.420  0.00  0.00    +0.000 A 
ATOM     10  C   UNL     1      -4.395  11.372  17.101  0.00  0.00    +0.000 A 
ATOM     11  C   UNL     1      -3.316  10.848  16.364  0.00  0.00    +0.000 A 
ATOM     12  C   UNL     1      -2.041  10.758  16.970  0.00  0.00    +0.000 A 
ATOM     13  C   UNL     1      -1.870  11.224  18.290  0.00  0.00    +0.000 A 
ATOM     14  C   UNL     1      -0.578  11.466  19.096  0.00  0.00    +0.000 C 
ATOM     15  N   UNL     1       0.465  12.128  18.237  0.00  0.00    +0.000 NA
ATOM     16  C   UNL     1       1.425  11.260  18.154  0.00  0.00    +0.000 C 
ATOM     17  N   UNL     1       2.705  11.693  18.049  0.00  0.00    +0.000 N 
ATOM     18  C   UNL     1       1.069   9.923  18.588  0.00  0.00    +0.000 A 
ATOM     19  C   UNL     1       1.864   8.798  18.515  0.00  0.00    +0.000 A 
ATOM     20  F   UNL     1       2.613   8.536  17.438  0.00  0.00    +0.000 F 
ATOM     21  C   UNL     1       1.900   7.977  19.620  0.00  0.00    +0.000 A 
ATOM     22  C   UNL     1       1.179   8.364  20.759  0.00  0.00    +0.000 A 
ATOM     23  C   UNL     1       0.262   9.450  20.726  0.00  0.00    +0.000 A 
ATOM     24  C   UNL     1       0.122  10.193  19.563  0.00  0.00    +0.000 A 
ATOM     25  H   UNL     1       2.699  12.706  18.166  0.00  0.00    +0.000 HD
ATOM     26  H   UNL     1       3.277  11.309  18.801  0.00  0.00    +0.000 HD
ENDROOT
BRANCH   1  28
ATOM     27  C   UNL     1       1.448  16.154  22.442  0.00  0.00    +0.000 C 
ATOM     28  O   UNL     1       0.797  15.414  21.418  0.00  0.00    +0.000 OA
ENDBRANCH   1  28
BRANCH  11  29
ATOM     29  C   UNL     1      -3.570  10.465  14.992  0.00  0.00    +0.000 C 
ATOM     30  C   UNL     1      -3.854  10.060  13.895  0.00  0.00    +0.000 C 
BRANCH  30  31
ATOM     31  C   UNL     1      -4.203   9.541  12.594  0.00  0.00    +0.000 C 
ATOM     32  C   UNL     1      -5.645   9.205  12.302  0.00  0.00    +0.000 C 
ATOM     33  C   UNL     1      -5.006  10.386  11.634  0.00  0.00    +0.000 C 
ENDBRANCH  30  31
ENDBRANCH  11  29
TORSDOF 3
ENDMDL
MODEL 3
REMARK VINA RESULT:      -7.4      0.974      1.177
REMARK  Name = 
REMARK  4 active torsions:
REMARK  status: ('A' for Active; 'I' for Inactive)
REMARK    1  A    between atoms: C_1  and  O_2
REMARK    2  A    between atoms: O_2  and  C_3
REMARK    3  A    between atoms: C_13  and  C_14
REMARK    4  A    between atoms: C_15  and  C_16
REMARK                            x       y       z     vdW  Elec       q    Type
REMARK                         _______ _______ _______ _____ _____    ______ ____
ROOT
ATOM      1  C   UNL     1      -4.770  14.092  22.129  0.00  0.00    +0.000 C 
ATOM      2  C   UNL     1      -4.431  12.637  21.812  0.00  0.00    +0.000 C 
ATOM      3  C   UNL     1      -3.080  12.533  21.109  0.00  0.00    +0.000 C 
ATOM      4  C   UNL     1      -1.867  13.154  21.912  0.00  0.00    +0.000 C 
ATOM      5  C   UNL     1      -2.264  14.592  22.310  0.00  0.00    +0.000 C 
ATOM      6  C   UNL     1      -3.648  14.697  22.977  0.00  0.00    +0.000 C 
ATOM      7  C   UNL     1      -1.587  12.291  23.174  0.00  0.00    +0.000 C 
ATOM      8  C   UNL     1      -0.759  11.178  22.600  0.00  0.00    +0.000 A 
ATOM      9  C   UNL     1      -0.709   9.875  23.068  0.00  0.00    +0.000 A 
ATOM     10  C   UNL     1       0.039   8.940  22.350  0.00  0.00    +0.000 A 
ATOM     11  C   UNL     1       0.747   9.305  21.189  0.00  0.00    +0.000 A 
ATOM     12  C   UNL     1       0.695  10.645  20.738  0.00  0.00    +0.000 A 
ATOM     13  C   UNL     1      -0.088  11.581  21.444  0.00  0.00    +0.000 A 
ATOM     14  C   UNL     1      -0.512  13.012  21.056  0.00  0.00    +0.000 C 
ATOM     15  N   UNL     1      -0.921  13.069  19.610  0.00  0.00    +0.000 NA
ATOM     16  C   UNL     1      -0.049  13.848  19.049  0.00  0.00    +0.000 C 
ATOM     17  N   UNL     1      -0.426  14.623  18.003  0.00  0.00    +0.000 N 
ATOM     18  C   UNL     1       1.130  14.111  19.853  0.00  0.00    +0.000 A 
ATOM     19  C   UNL     1       2.245  14.822  19.463  0.00  0.00    +0.000 A 
ATOM     20  F   UNL     1       2.782  14.676  18.247  0.00  0.00    +0.000 F 
ATOM     21  C   UNL     1       2.760  15.733  20.359  0.00  0.00    +0.000 A 
ATOM     22  C   UNL     1       2.087  15.919  21.576  0.00  0.00    +0.000 A 
ATOM     23  C   UNL     1       1.034  15.056  21.984  0.00  0.00    +0.000 A 
ATOM     24  C   UNL     1       0.609  14.045  21.135  0.00  0.00    +0.000 A 
ATOM     25  H   UNL     1      -1.435  14.527  17.895  0.00  0.00    +0.000 HD
ATOM     26  H   UNL     1      -0.238  15.607  18.199  0.00  0.00    +0.000 HD
ENDROOT
BRANCH   1  28
ATOM     27  C   UNL     1      -6.092  14.661  20.214  0.00  0.00    +0.000 C 
ATOM     28  O   UNL     1      -4.904  14.903  20.954  0.00  0.00    +0.000 OA
ENDBRANCH   1  28
BRANCH  11  29
ATOM     29  C   UNL     1       1.462   8.261  20.490  0.00  0.00    +0.000 C 
ATOM     30  C   UNL     1       2.083   7.345  20.017  0.00  0.00    +0.000 C 
BRANCH  30  31
ATOM     31  C   UNL     1       2.845   6.241  19.481  0.00  0.00    +0.000 C 
ATOM     32  C   UNL     1       2.291   5.467  18.310  0.00  0.00    +0.000 C 
ATOM     33  C   UNL     1       3.485   6.356  18.118  0.00  0.00    +0.000 C 
ENDBRANCH  30  31
ENDBRANCH  11  29
TORSDOF 3
ENDMDL
MODEL 4
REMARK VINA RESULT:      -7.1      3.066      6.154
REMARK  Name = 
REMARK  4 active torsions:
REMARK  status: ('A' for Active; 'I' for Inactive)
REMARK    1  A    between atoms: C_1  and  O_2
REMARK    2  A    between atoms: O_2  and  C_3
REMARK    3  A    between atoms: C_13  and  C_14
REMARK    4  A    between atoms: C_15  and  C_16
REMARK                            x       y       z     vdW  Elec       q    Type
REMARK                         _______ _______ _______ _____ _____    ______ ____
ROOT
ATOM      1  C   UNL     1      -2.042  15.471  23.026  0.00  0.00    +0.000 C 
ATOM      2  C   UNL     1      -0.616  15.942  22.743  0.00  0.00    +0.000 C 
ATOM      3  C   UNL     1       0.155  14.894  21.945  0.00  0.00    +0.000 C 
ATOM      4  C   UNL     1      -0.508  14.490  20.567  0.00  0.00    +0.000 C 
ATOM      5  C   UNL     1      -1.977  14.111  20.856  0.00  0.00    +0.000 C 
ATOM      6  C   UNL     1      -2.738  15.150  21.700  0.00  0.00    +0.000 C 
ATOM      7  C   UNL     1      -0.433  15.693  19.586  0.00  0.00    +0.000 C 
ATOM      8  C   UNL     1       0.966  15.563  19.057  0.00  0.00    +0.000 A 
ATOM      9  C   UNL     1       1.775  16.604  18.632  0.00  0.00    +0.000 A 
ATOM     10  C   UNL     1       3.090  16.313  18.264  0.00  0.00    +0.000 A 
ATOM     11  C   UNL     1       3.587  14.997  18.301  0.00  0.00    +0.000 A 
ATOM     12  C   UNL     1       2.737  13.947  18.722  0.00  0.00    +0.000 A 
ATOM     13  C   UNL     1       1.420  14.245  19.126  0.00  0.00    +0.000 A 
ATOM     14  C   UNL     1       0.378  13.361  19.841  0.00  0.00    +0.000 C 
ATOM     15  N   UNL     1       1.025  12.564  20.939  0.00  0.00    +0.000 NA
ATOM     16  C   UNL     1       0.898  11.327  20.571  0.00  0.00    +0.000 C 
ATOM     17  N   UNL     1       0.755  10.365  21.515  0.00  0.00    +0.000 N 
ATOM     18  C   UNL     1       0.515  11.147  19.184  0.00  0.00    +0.000 A 
ATOM     19  C   UNL     1       0.405   9.948  18.513  0.00  0.00    +0.000 A 
ATOM     20  F   UNL     1       1.305   8.971  18.668  0.00  0.00    +0.000 F 
ATOM     21  C   UNL     1      -0.702   9.770  17.713  0.00  0.00    +0.000 A 
ATOM     22  C   UNL     1      -1.666  10.788  17.678  0.00  0.00    +0.000 A 
ATOM     23  C   UNL     1      -1.429  12.059  18.270  0.00  0.00    +0.000 A 
ATOM     24  C   UNL     1      -0.246  12.283  18.959  0.00  0.00    +0.000 A 
ATOM     25  H   UNL     1       0.662  10.828  22.418  0.00  0.00    +0.000 HD
ATOM     26  H   UNL     1      -0.105   9.836  21.361  0.00  0.00    +0.000 HD
ENDROOT
BRANCH   1  28
ATOM     27  C   UNL     1      -3.339  14.067  24.470  0.00  0.00    +0.000 C 
ATOM     28  O   UNL     1      -2.089  14.287  23.832  0.00  0.00    +0.000 OA
ENDBRANCH   1  28
BRANCH  11  29
ATOM     29  C   UNL     1       4.973  14.798  17.939  0.00  0.00    +0.000 C 
ATOM     30  C   UNL     1       6.148  14.612  17.756  0.00  0.00    +0.000 C 
BRANCH  30  31
ATOM     31  C   UNL     1       7.564  14.397  17.572  0.00  0.00    +0.000 C 
ATOM     32  C   UNL     1       8.388  13.907  18.737  0.00  0.00    +0.000 C 
ATOM     33  C   UNL     1       8.122  12.993  17.577  0.00  0.00    +0.000 C 
ENDBRANCH  30  31
ENDBRANCH  11  29
TORSDOF 3
ENDMDL
MODEL 5
REMARK VINA RESULT:      -6.6      2.663      5.054
REMARK  Name = 
REMARK  4 active torsions:
REMARK  status: ('A' for Active; 'I' for Inactive)
REMARK    1  A    between atoms: C_1  and  O_2
REMARK    2  A    between atoms: O_2  and  C_3
REMARK    3  A    between atoms: C_13  and  C_14
REMARK    4  A    between atoms: C_15  and  C_16
REMARK                            x       y       z     vdW  Elec       q    Type
REMARK                         _______ _______ _______ _____ _____    ______ ____
ROOT
ATOM      1  C   UNL     1       1.168  16.845  19.148  0.00  0.00    +0.000 C 
ATOM      2  C   UNL     1       1.982  15.553  19.191  0.00  0.00    +0.000 C 
ATOM      3  C   UNL     1       1.291  14.503  20.058  0.00  0.00    +0.000 C 
ATOM      4  C   UNL     1      -0.181  14.138  19.609  0.00  0.00    +0.000 C 
ATOM      5  C   UNL     1      -0.964  15.463  19.476  0.00  0.00    +0.000 C 
ATOM      6  C   UNL     1      -0.242  16.535  18.639  0.00  0.00    +0.000 C 
ATOM      7  C   UNL     1      -0.136  13.387  18.250  0.00  0.00    +0.000 C 
ATOM      8  C   UNL     1       0.175  11.986  18.691  0.00  0.00    +0.000 A 
ATOM      9  C   UNL     1       0.882  11.042  17.965  0.00  0.00    +0.000 A 
ATOM     10  C   UNL     1       1.170   9.817  18.571  0.00  0.00    +0.000 A 
ATOM     11  C   UNL     1       0.739   9.529  19.879  0.00  0.00    +0.000 A 
ATOM     12  C   UNL     1       0.004  10.502  20.597  0.00  0.00    +0.000 A 
ATOM     13  C   UNL     1      -0.256  11.752  19.998  0.00  0.00    +0.000 A 
ATOM     14  C   UNL     1      -0.809  13.052  20.616  0.00  0.00    +0.000 C 
ATOM     15  N   UNL     1      -0.179  13.309  21.957  0.00  0.00    +0.000 NA
ATOM     16  C   UNL     1      -1.159  13.231  22.804  0.00  0.00    +0.000 C 
ATOM     17  N   UNL     1      -1.134  13.998  23.921  0.00  0.00    +0.000 N 
ATOM     18  C   UNL     1      -2.369  12.636  22.272  0.00  0.00    +0.000 A 
ATOM     19  C   UNL     1      -3.519  12.347  22.977  0.00  0.00    +0.000 A 
ATOM     20  F   UNL     1      -3.477  11.811  24.201  0.00  0.00    +0.000 F 
ATOM     21  C   UNL     1      -4.721  12.683  22.392  0.00  0.00    +0.000 A 
ATOM     22  C   UNL     1      -4.694  13.343  21.155  0.00  0.00    +0.000 A 
ATOM     23  C   UNL     1      -3.492  13.480  20.408  0.00  0.00    +0.000 A 
ATOM     24  C   UNL     1      -2.300  13.012  20.940  0.00  0.00    +0.000 A 
ATOM     25  H   UNL     1      -0.336  14.628  23.845  0.00  0.00    +0.000 HD
ATOM     26  H   UNL     1      -1.970  14.580  23.975  0.00  0.00    +0.000 HD
ENDROOT
BRANCH   1  28
ATOM     27  C   UNL     1       2.165  18.220  20.838  0.00  0.00    +0.000 C 
ATOM     28  O   UNL     1       1.033  17.461  20.435  0.00  0.00    +0.000 OA
ENDBRANCH   1  28
BRANCH  11  29
ATOM     29  C   UNL     1       1.117   8.250  20.439  0.00  0.00    +0.000 C 
ATOM     30  C   UNL     1       1.456   7.151  20.791  0.00  0.00    +0.000 C 
BRANCH  30  31
ATOM     31  C   UNL     1       1.857   5.818  21.179  0.00  0.00    +0.000 C 
ATOM     32  C   UNL     1       1.202   4.633  20.513  0.00  0.00    +0.000 C 
ATOM     33  C   UNL     1       2.637   4.954  20.217  0.00  0.00    +0.000 C 
ENDBRANCH  30  31
ENDBRANCH  11  29
TORSDOF 3
ENDMDL
MODEL 6
REMARK VINA RESULT:      -6.6      3.350      5.623
REMARK  Name = 
REMARK  4 active torsions:
REMARK  status: ('A' for Active; 'I' for Inactive)
REMARK    1  A    between atoms: C_1  and  O_2
REMARK    2  A    between atoms: O_2  and  C_3
REMARK    3  A    between atoms: C_13  and  C_14
REMARK    4  A    between atoms: C_15  and  C_16
REMARK                            x       y       z     vdW  Elec       q    Type
REMARK                         _______ _______ _______ _____ _____    ______ ____
ROOT
ATOM      1  C   UNL     1      -2.148  16.643  22.571  0.00  0.00    +0.000 C 
ATOM      2  C   UNL     1      -2.672  16.371  21.162  0.00  0.00    +0.000 C 
ATOM      3  C   UNL     1      -2.073  15.085  20.598  0.00  0.00    +0.000 C 
ATOM      4  C   UNL     1      -2.334  13.794  21.474  0.00  0.00    +0.000 C 
ATOM      5  C   UNL     1      -1.890  14.118  22.916  0.00  0.00    +0.000 C 
ATOM      6  C   UNL     1      -2.459  15.439  23.465  0.00  0.00    +0.000 C 
ATOM      7  C   UNL     1      -3.845  13.436  21.430  0.00  0.00    +0.000 C 
ATOM      8  C   UNL     1      -3.941  12.688  20.132  0.00  0.00    +0.000 A 
ATOM      9  C   UNL     1      -5.048  12.636  19.302  0.00  0.00    +0.000 A 
ATOM     10  C   UNL     1      -4.929  11.974  18.078  0.00  0.00    +0.000 A 
ATOM     11  C   UNL     1      -3.725  11.354  17.695  0.00  0.00    +0.000 A 
ATOM     12  C   UNL     1      -2.612  11.405  18.566  0.00  0.00    +0.000 A 
ATOM     13  C   UNL     1      -2.721  12.103  19.787  0.00  0.00    +0.000 A 
ATOM     14  C   UNL     1      -1.630  12.517  20.794  0.00  0.00    +0.000 C 
ATOM     15  N   UNL     1      -0.418  13.041  20.074  0.00  0.00    +0.000 NA
ATOM     16  C   UNL     1       0.526  12.196  20.354  0.00  0.00    +0.000 C 
ATOM     17  N   UNL     1       1.805  12.635  20.449  0.00  0.00    +0.000 N 
ATOM     18  C   UNL     1       0.066  10.950  20.935  0.00  0.00    +0.000 A 
ATOM     19  C   UNL     1       0.841   9.850  21.238  0.00  0.00    +0.000 A 
ATOM     20  F   UNL     1       1.800   9.418  20.411  0.00  0.00    +0.000 F 
ATOM     21  C   UNL     1       0.628   9.240  22.454  0.00  0.00    +0.000 A 
ATOM     22  C   UNL     1      -0.316   9.807  23.323  0.00  0.00    +0.000 A 
ATOM     23  C   UNL     1      -1.189  10.846  22.900  0.00  0.00    +0.000 A 
ATOM     24  C   UNL     1      -1.064  11.365  21.620  0.00  0.00    +0.000 A 
ATOM     25  H   UNL     1       1.788  13.652  20.379  0.00  0.00    +0.000 HD
ATOM     26  H   UNL     1       2.196  12.406  21.364  0.00  0.00    +0.000 HD
ENDROOT
BRANCH   1  28
ATOM     27  C   UNL     1      -0.278  17.578  23.742  0.00  0.00    +0.000 C 
ATOM     28  O   UNL     1      -0.730  16.849  22.608  0.00  0.00    +0.000 OA
ENDBRANCH   1  28
BRANCH  11  29
ATOM     29  C   UNL     1      -3.684  10.726  16.393  0.00  0.00    +0.000 C 
ATOM     30  C   UNL     1      -3.742  10.135  15.346  0.00  0.00    +0.000 C 
BRANCH  30  31
ATOM     31  C   UNL     1      -3.828   9.396  14.108  0.00  0.00    +0.000 C 
ATOM     32  C   UNL     1      -4.310  10.104  12.865  0.00  0.00    +0.000 C 
ATOM     33  C   UNL     1      -2.870   9.698  12.981  0.00  0.00    +0.000 C 
ENDBRANCH  30  31
ENDBRANCH  11  29
TORSDOF 3
ENDMDL
MODEL 7
REMARK VINA RESULT:      -6.6      2.995      6.040
REMARK  Name = 
REMARK  4 active torsions:
REMARK  status: ('A' for Active; 'I' for Inactive)
REMARK    1  A    between atoms: C_1  and  O_2
REMARK    2  A    between atoms: O_2  and  C_3
REMARK    3  A    between atoms: C_13  and  C_14
REMARK    4  A    between atoms: C_15  and  C_16
REMARK                            x       y       z     vdW  Elec       q    Type
REMARK                         _______ _______ _______ _____ _____    ______ ____
ROOT
ATOM      1  C   UNL     1      -3.654  14.157  23.730  0.00  0.00    +0.000 C 
ATOM      2  C   UNL     1      -2.337  14.918  23.581  0.00  0.00    +0.000 C 
ATOM      3  C   UNL     1      -1.397  14.196  22.619  0.00  0.00    +0.000 C 
ATOM      4  C   UNL     1      -1.989  13.956  21.171  0.00  0.00    +0.000 C 
ATOM      5  C   UNL     1      -3.363  13.274  21.343  0.00  0.00    +0.000 C 
ATOM      6  C   UNL     1      -4.291  13.979  22.349  0.00  0.00    +0.000 C 
ATOM      7  C   UNL     1      -2.137  15.319  20.441  0.00  0.00    +0.000 C 
ATOM      8  C   UNL     1      -0.741  15.543  19.934  0.00  0.00    +0.000 A 
ATOM      9  C   UNL     1      -0.134  16.772  19.739  0.00  0.00    +0.000 A 
ATOM     10  C   UNL     1       1.209  16.795  19.358  0.00  0.00    +0.000 A 
ATOM     11  C   UNL     1       1.933  15.605  19.155  0.00  0.00    +0.000 A 
ATOM     12  C   UNL     1       1.287  14.360  19.344  0.00  0.00    +0.000 A 
ATOM     13  C   UNL     1      -0.059  14.337  19.763  0.00  0.00    +0.000 A 
ATOM     14  C   UNL     1      -0.921  13.163  20.267  0.00  0.00    +0.000 C 
ATOM     15  N   UNL     1      -0.133  12.295  21.210  0.00  0.00    +0.000 NA
ATOM     16  C   UNL     1      -0.041  11.150  20.609  0.00  0.00    +0.000 C 
ATOM     17  N   UNL     1      -0.002  10.014  21.346  0.00  0.00    +0.000 N 
ATOM     18  C   UNL     1      -0.396  11.177  19.203  0.00  0.00    +0.000 A 
ATOM     19  C   UNL     1      -0.296  10.129  18.312  0.00  0.00    +0.000 A 
ATOM     20  F   UNL     1       0.766   9.315  18.301  0.00  0.00    +0.000 F 
ATOM     21  C   UNL     1      -1.360   9.916  17.463  0.00  0.00    +0.000 A 
ATOM     22  C   UNL     1      -2.490  10.735  17.598  0.00  0.00    +0.000 A 
ATOM     23  C   UNL     1      -2.478  11.890  18.428  0.00  0.00    +0.000 A 
ATOM     24  C   UNL     1      -1.349  12.182  19.178  0.00  0.00    +0.000 A 
ATOM     25  H   UNL     1      -0.169  10.270  22.319  0.00  0.00    +0.000 HD
ATOM     26  H   UNL     1      -0.755   9.382  21.071  0.00  0.00    +0.000 HD
ENDROOT
BRANCH   1  28
ATOM     27  C   UNL     1      -4.673  12.283  24.821  0.00  0.00    +0.000 C 
ATOM     28  O   UNL     1      -3.482  12.850  24.294  0.00  0.00    +0.000 OA
ENDBRANCH   1  28
BRANCH  11  29
ATOM     29  C   UNL     1       3.329  15.727  18.799  0.00  0.00    +0.000 C 
ATOM     30  C   UNL     1       4.503  15.712  18.532  0.00  0.00    +0.000 C 
BRANCH  30  31
ATOM     31  C   UNL     1       5.915  15.663  18.233  0.00  0.00    +0.000 C 
ATOM     32  C   UNL     1       6.830  14.880  19.143  0.00  0.00    +0.000 C 
ATOM     33  C   UNL     1       6.542  14.374  17.760  0.00  0.00    +0.000 C 
ENDBRANCH  30  31
ENDBRANCH  11  29
TORSDOF 3
ENDMDL
MODEL 8
REMARK VINA RESULT:      -6.5      2.854      6.096
REMARK  Name = 
REMARK  4 active torsions:
REMARK  status: ('A' for Active; 'I' for Inactive)
REMARK    1  A    between atoms: C_1  and  O_2
REMARK    2  A    between atoms: O_2  and  C_3
REMARK    3  A    between atoms: C_13  and  C_14
REMARK    4  A    between atoms: C_15  and  C_16
REMARK                            x       y       z     vdW  Elec       q    Type
REMARK                         _______ _______ _______ _____ _____    ______ ____
ROOT
ATOM      1  C   UNL     1      -3.022  14.680  23.396  0.00  0.00    +0.000 C 
ATOM      2  C   UNL     1      -1.639  15.327  23.329  0.00  0.00    +0.000 C 
ATOM      3  C   UNL     1      -0.665  14.448  22.550  0.00  0.00    +0.000 C 
ATOM      4  C   UNL     1      -1.116  14.107  21.073  0.00  0.00    +0.000 C 
ATOM      5  C   UNL     1      -2.553  13.545  21.148  0.00  0.00    +0.000 C 
ATOM      6  C   UNL     1      -3.522  14.412  21.973  0.00  0.00    +0.000 C 
ATOM      7  C   UNL     1      -1.074  15.398  20.209  0.00  0.00    +0.000 C 
ATOM      8  C   UNL     1       0.381  15.470  19.846  0.00  0.00    +0.000 A 
ATOM      9  C   UNL     1       1.104  16.627  19.609  0.00  0.00    +0.000 A 
ATOM     10  C   UNL     1       2.477  16.516  19.383  0.00  0.00    +0.000 A 
ATOM     11  C   UNL     1       3.119  15.264  19.373  0.00  0.00    +0.000 A 
ATOM     12  C   UNL     1       2.358  14.093  19.601  0.00  0.00    +0.000 A 
ATOM     13  C   UNL     1       0.977  14.208  19.864  0.00  0.00    +0.000 A 
ATOM     14  C   UNL     1      -0.027  13.154  20.372  0.00  0.00    +0.000 C 
ATOM     15  N   UNL     1       0.582  12.331  21.473  0.00  0.00    +0.000 NA
ATOM     16  C   UNL     1       0.645  11.127  20.994  0.00  0.00    +0.000 C 
ATOM     17  N   UNL     1       0.512  10.071  21.831  0.00  0.00    +0.000 N 
ATOM     18  C   UNL     1       0.445  11.039  19.560  0.00  0.00    +0.000 A 
ATOM     19  C   UNL     1       0.553   9.903  18.786  0.00  0.00    +0.000 A 
ATOM     20  F   UNL     1       1.539   9.019  18.970  0.00  0.00    +0.000 F 
ATOM     21  C   UNL     1      -0.428   9.683  17.844  0.00  0.00    +0.000 A 
ATOM     22  C   UNL     1      -1.496  10.590  17.775  0.00  0.00    +0.000 A 
ATOM     23  C   UNL     1      -1.478  11.818  18.491  0.00  0.00    +0.000 A 
ATOM     24  C   UNL     1      -0.415  12.102  19.336  0.00  0.00    +0.000 A 
ATOM     25  H   UNL     1       0.264  10.434  22.751  0.00  0.00    +0.000 HD
ATOM     26  H   UNL     1      -0.257   9.469  21.531  0.00  0.00    +0.000 HD
ENDROOT
BRANCH   1  28
ATOM     27  C   UNL     1      -4.314  12.906  24.358  0.00  0.00    +0.000 C 
ATOM     28  O   UNL     1      -3.019  13.427  24.093  0.00  0.00    +0.000 OA
ENDBRANCH   1  28
BRANCH  11  29
ATOM     29  C   UNL     1       4.551  15.250  19.169  0.00  0.00    +0.000 C 
ATOM     30  C   UNL     1       5.745  15.142  19.072  0.00  0.00    +0.000 C 
BRANCH  30  31
ATOM     31  C   UNL     1       7.179  14.992  18.987  0.00  0.00    +0.000 C 
ATOM     32  C   UNL     1       7.759  14.070  17.943  0.00  0.00    +0.000 C 
ATOM     33  C   UNL     1       7.928  15.553  17.801  0.00  0.00    +0.000 C 
ENDBRANCH  30  31
ENDBRANCH  11  29
TORSDOF 3
ENDMDL
MODEL 9
REMARK VINA RESULT:      -6.4      2.812      5.737
REMARK  Name = 
REMARK  4 active torsions:
REMARK  status: ('A' for Active; 'I' for Inactive)
REMARK    1  A    between atoms: C_1  and  O_2
REMARK    2  A    between atoms: O_2  and  C_3
REMARK    3  A    between atoms: C_13  and  C_14
REMARK    4  A    between atoms: C_15  and  C_16
REMARK                            x       y       z     vdW  Elec       q    Type
REMARK                         _______ _______ _______ _____ _____    ______ ____
ROOT
ATOM      1  C   UNL     1      -3.795  13.616  23.080  0.00  0.00    +0.000 C 
ATOM      2  C   UNL     1      -2.476  14.287  23.462  0.00  0.00    +0.000 C 
ATOM      3  C   UNL     1      -1.288  13.511  22.900  0.00  0.00    +0.000 C 
ATOM      4  C   UNL     1      -1.302  13.323  21.330  0.00  0.00    +0.000 C 
ATOM      5  C   UNL     1      -2.678  12.735  20.949  0.00  0.00    +0.000 C 
ATOM      6  C   UNL     1      -3.873  13.494  21.555  0.00  0.00    +0.000 C 
ATOM      7  C   UNL     1      -1.082  14.699  20.643  0.00  0.00    +0.000 C 
ATOM      8  C   UNL     1       0.413  14.831  20.706  0.00  0.00    +0.000 A 
ATOM      9  C   UNL     1       1.121  16.018  20.794  0.00  0.00    +0.000 A 
ATOM     10  C   UNL     1       2.508  15.952  20.947  0.00  0.00    +0.000 A 
ATOM     11  C   UNL     1       3.182  14.717  20.992  0.00  0.00    +0.000 A 
ATOM     12  C   UNL     1       2.439  13.518  20.884  0.00  0.00    +0.000 A 
ATOM     13  C   UNL     1       1.036  13.584  20.764  0.00  0.00    +0.000 A 
ATOM     14  C   UNL     1      -0.022  12.466  20.868  0.00  0.00    +0.000 C 
ATOM     15  N   UNL     1       0.298  11.540  22.008  0.00  0.00    +0.000 NA
ATOM     16  C   UNL     1       0.542  10.395  21.448  0.00  0.00    +0.000 C 
ATOM     17  N   UNL     1       0.231   9.253  22.108  0.00  0.00    +0.000 N 
ATOM     18  C   UNL     1       0.746  10.458  20.014  0.00  0.00    +0.000 A 
ATOM     19  C   UNL     1       1.111   9.413  19.192  0.00  0.00    +0.000 A 
ATOM     20  F   UNL     1       2.048   8.529  19.554  0.00  0.00    +0.000 F 
ATOM     21  C   UNL     1       0.436   9.280  17.999  0.00  0.00    +0.000 A 
ATOM     22  C   UNL     1      -0.610  10.173  17.726  0.00  0.00    +0.000 A 
ATOM     23  C   UNL     1      -0.843  11.317  18.537  0.00  0.00    +0.000 A 
ATOM     24  C   UNL     1      -0.065  11.526  19.666  0.00  0.00    +0.000 A 
ATOM     25  H   UNL     1      -0.275   9.513  22.954  0.00  0.00    +0.000 HD
ATOM     26  H   UNL     1      -0.399   8.676  21.549  0.00  0.00    +0.000 HD
ENDROOT
BRANCH   1  28
ATOM     27  C   UNL     1      -4.649  12.241  24.845  0.00  0.00    +0.000 C 
ATOM     28  O   UNL     1      -3.927  12.297  23.623  0.00  0.00    +0.000 OA
ENDBRANCH   1  28
BRANCH  11  29
ATOM     29  C   UNL     1       4.614  14.747  21.193  0.00  0.00    +0.000 C 
ATOM     30  C   UNL     1       5.788  14.695  21.451  0.00  0.00    +0.000 C 
BRANCH  30  31
ATOM     31  C   UNL     1       7.188  14.621  21.796  0.00  0.00    +0.000 C 
ATOM     32  C   UNL     1       7.790  13.280  22.137  0.00  0.00    +0.000 C 
ATOM     33  C   UNL     1       8.165  13.960  20.853  0.00  0.00    +0.000 C 
ENDBRANCH  30  31
ENDBRANCH  11  29
TORSDOF 3
ENDMDL
