MODEL 1
REMARK VINA RESULT:      -7.5      0.000      0.000
REMARK  Name = 
REMARK  8 active torsions:
REMARK  status: ('A' for Active; 'I' for Inactive)
REMARK    1  A    between atoms: C_1  and  C_2
REMARK    2  A    between atoms: C_5  and  C_6
REMARK    3  A    between atoms: N_7  and  O_8
REMARK    4  A    between atoms: N_9  and  C_10
REMARK    5  A    between atoms: N_9  and  C_11
REMARK    6  A    between atoms: C_11  and  C_12
REMARK    7  A    between atoms: C_14  and  O_15
REMARK    8  A    between atoms: O_15  and  C_16
REMARK                            x       y       z     vdW  Elec       q    Type
REMARK                         _______ _______ _______ _____ _____    ______ ____
ROOT
ATOM      1  C   UNL     1       0.380   2.275  18.960  0.00  0.00    +0.000 C 
ATOM      2  C   UNL     1       1.660   2.928  18.536  0.00  0.00    +0.000 A 
ATOM      3  C   UNL     1       2.582   2.303  17.717  0.00  0.00    +0.000 A 
ATOM      4  C   UNL     1       3.798   2.948  17.456  0.00  0.00    +0.000 A 
ATOM      5  C   UNL     1       4.106   4.210  18.012  0.00  0.00    +0.000 A 
ATOM      6  C   UNL     1       3.102   4.756  18.805  0.00  0.00    +0.000 A 
ATOM      7  N   UNL     1       1.910   4.138  19.070  0.00  0.00    +0.000 NA
ENDROOT
BRANCH   5   8
ATOM      8  C   UNL     1       5.548   4.719  17.806  0.00  0.00    +0.000 C 
ATOM      9  N   UNL     1       6.314   4.447  18.836  0.00  0.00    +0.000 NA
ATOM     10  N   UNL     1       6.030   5.383  16.660  0.00  0.00    +0.000 N 
ATOM     11  C   UNL     1       5.293   6.405  15.939  0.00  0.00    +0.000 C 
BRANCH   9  12
ATOM     12  O   UNL     1       7.596   4.995  18.733  0.00  0.00    +0.000 OA
ATOM     13  H   UNL     1       8.137   4.195  18.575  0.00  0.00    +0.000 HD
ENDBRANCH   9  12
BRANCH  10  14
ATOM     14  C   UNL     1       7.142   4.801  15.849  0.00  0.00    +0.000 C 
BRANCH  14  15
ATOM     15  C   UNL     1       6.537   4.233  14.575  0.00  0.00    +0.000 C 
ATOM     16  N   UNL     1       6.036   3.762  13.519  0.00  0.00    +0.000 NA
ENDBRANCH  14  15
ENDBRANCH  10  14
ENDBRANCH   5   8
BRANCH   6  17
ATOM     17  O   UNL     1       3.316   5.900  19.536  0.00  0.00    +0.000 OA
BRANCH  17  18
ATOM     18  C   UNL     1       2.596   7.032  19.230  0.00  0.00    +0.000 A 
ATOM     19  C   UNL     1       2.569   7.668  17.992  0.00  0.00    +0.000 A 
ATOM     20  C   UNL     1       1.856   8.856  17.846  0.00  0.00    +0.000 A 
ATOM     21  C   UNL     1       1.219   9.382  18.959  0.00  0.00    +0.000 A 
ATOM     22  N   UNL     1       1.247   8.809  20.182  0.00  0.00    +0.000 NA
ATOM     23  C   UNL     1       1.932   7.646  20.285  0.00  0.00    +0.000 A 
ENDBRANCH  17  18
ENDBRANCH   6  17
TORSDOF 6
ENDMDL
MODEL 2
REMARK VINA RESULT:      -7.1      0.692      1.059
REMARK  Name = 
REMARK  8 active torsions:
REMARK  status: ('A' for Active; 'I' for Inactive)
REMARK    1  A    between atoms: C_1  and  C_2
REMARK    2  A    between atoms: C_5  and  C_6
REMARK    3  A    between atoms: N_7  and  O_8
REMARK    4  A    between atoms: N_9  and  C_10
REMARK    5  A    between atoms: N_9  and  C_11
REMARK    6  A    between atoms: C_11  and  C_12
REMARK    7  A    between atoms: C_14  and  O_15
REMARK    8  A    between atoms: O_15  and  C_16
REMARK                            x       y       z     vdW  Elec       q    Type
REMARK                         _______ _______ _______ _____ _____    ______ ____
ROOT
ATOM      1  C   UNL     1       0.284   2.702  19.075  0.00  0.00    +0.000 C 
ATOM      2  C   UNL     1       1.608   3.251  18.640  0.00  0.00    +0.000 A 
ATOM      3  C   UNL     1       2.499   2.531  17.866  0.00  0.00    +0.000 A 
ATOM      4  C   UNL     1       3.756   3.085  17.593  0.00  0.00    +0.000 A 
ATOM      5  C   UNL     1       4.138   4.350  18.095  0.00  0.00    +0.000 A 
ATOM      6  C   UNL     1       3.161   4.995  18.845  0.00  0.00    +0.000 A 
ATOM      7  N   UNL     1       1.928   4.468  19.121  0.00  0.00    +0.000 NA
ENDROOT
BRANCH   5   8
ATOM      8  C   UNL     1       5.612   4.756  17.887  0.00  0.00    +0.000 C 
ATOM      9  N   UNL     1       6.360   4.421  18.911  0.00  0.00    +0.000 NA
ATOM     10  N   UNL     1       6.136   5.394  16.744  0.00  0.00    +0.000 N 
ATOM     11  C   UNL     1       5.472   6.471  16.035  0.00  0.00    +0.000 C 
BRANCH   9  12
ATOM     12  O   UNL     1       7.678   4.876  18.807  0.00  0.00    +0.000 OA
ATOM     13  H   UNL     1       8.104   4.132  18.337  0.00  0.00    +0.000 HD
ENDBRANCH   9  12
BRANCH  10  14
ATOM     14  C   UNL     1       7.201   4.740  15.924  0.00  0.00    +0.000 C 
BRANCH  14  15
ATOM     15  C   UNL     1       6.552   4.227  14.649  0.00  0.00    +0.000 C 
ATOM     16  N   UNL     1       6.014   3.802  13.591  0.00  0.00    +0.000 NA
ENDBRANCH  14  15
ENDBRANCH  10  14
ENDBRANCH   5   8
BRANCH   6  17
ATOM     17  O   UNL     1       3.439   6.158  19.525  0.00  0.00    +0.000 OA
BRANCH  17  18
ATOM     18  C   UNL     1       2.708   7.288  19.240  0.00  0.00    +0.000 A 
ATOM     19  C   UNL     1       1.817   7.918  20.105  0.00  0.00    +0.000 A 
ATOM     20  C   UNL     1       1.082   9.012  19.654  0.00  0.00    +0.000 A 
ATOM     21  C   UNL     1       1.243   9.417  18.338  0.00  0.00    +0.000 A 
ATOM     22  N   UNL     1       2.076   8.812  17.462  0.00  0.00    +0.000 NA
ATOM     23  C   UNL     1       2.790   7.765  17.937  0.00  0.00    +0.000 A 
ENDBRANCH  17  18
ENDBRANCH   6  17
TORSDOF 6
ENDMDL
MODEL 3
REMARK VINA RESULT:      -6.5      0.793      1.234
REMARK  Name = 
REMARK  8 active torsions:
REMARK  status: ('A' for Active; 'I' for Inactive)
REMARK    1  A    between atoms: C_1  and  C_2
REMARK    2  A    between atoms: C_5  and  C_6
REMARK    3  A    between atoms: N_7  and  O_8
REMARK    4  A    between atoms: N_9  and  C_10
REMARK    5  A    between atoms: N_9  and  C_11
REMARK    6  A    between atoms: C_11  and  C_12
REMARK    7  A    between atoms: C_14  and  O_15
REMARK    8  A    between atoms: O_15  and  C_16
REMARK                            x       y       z     vdW  Elec       q    Type
REMARK                         _______ _______ _______ _____ _____    ______ ____
ROOT
ATOM      1  C   UNL     1       0.364   2.469  18.952  0.00  0.00    +0.000 C 
ATOM      2  C   UNL     1       1.692   2.944  18.449  0.00  0.00    +0.000 A 
ATOM      3  C   UNL     1       2.804   2.125  18.382  0.00  0.00    +0.000 A 
ATOM      4  C   UNL     1       4.030   2.681  17.996  0.00  0.00    +0.000 A 
ATOM      5  C   UNL     1       4.160   4.054  17.684  0.00  0.00    +0.000 A 
ATOM      6  C   UNL     1       2.978   4.781  17.765  0.00  0.00    +0.000 A 
ATOM      7  N   UNL     1       1.772   4.253  18.141  0.00  0.00    +0.000 NA
ENDROOT
BRANCH   5   8
ATOM      8  C   UNL     1       5.594   4.576  17.465  0.00  0.00    +0.000 C 
ATOM      9  N   UNL     1       6.373   4.307  18.486  0.00  0.00    +0.000 NA
ATOM     10  N   UNL     1       6.059   5.249  16.316  0.00  0.00    +0.000 N 
ATOM     11  C   UNL     1       5.306   6.265  15.606  0.00  0.00    +0.000 C 
BRANCH   9  12
ATOM     12  O   UNL     1       7.649   4.867  18.372  0.00  0.00    +0.000 OA
ATOM     13  H   UNL     1       7.437   5.818  18.287  0.00  0.00    +0.000 HD
ENDBRANCH   9  12
BRANCH  10  14
ATOM     14  C   UNL     1       7.168   4.679  15.492  0.00  0.00    +0.000 C 
BRANCH  14  15
ATOM     15  C   UNL     1       6.558   4.122  14.217  0.00  0.00    +0.000 C 
ATOM     16  N   UNL     1       6.051   3.660  13.158  0.00  0.00    +0.000 NA
ENDBRANCH  14  15
ENDBRANCH  10  14
ENDBRANCH   5   8
BRANCH   6  17
ATOM     17  O   UNL     1       2.976   6.151  17.642  0.00  0.00    +0.000 OA
BRANCH  17  18
ATOM     18  C   UNL     1       2.473   6.913  18.671  0.00  0.00    +0.000 A 
ATOM     19  C   UNL     1       2.231   6.468  19.968  0.00  0.00    +0.000 A 
ATOM     20  C   UNL     1       1.642   7.330  20.890  0.00  0.00    +0.000 A 
ATOM     21  C   UNL     1       1.285   8.601  20.468  0.00  0.00    +0.000 A 
ATOM     22  N   UNL     1       1.476   9.057  19.211  0.00  0.00    +0.000 NA
ATOM     23  C   UNL     1       2.069   8.202  18.345  0.00  0.00    +0.000 A 
ENDBRANCH  17  18
ENDBRANCH   6  17
TORSDOF 6
ENDMDL
MODEL 4
REMARK VINA RESULT:      -6.4      1.919      4.652
REMARK  Name = 
REMARK  8 active torsions:
REMARK  status: ('A' for Active; 'I' for Inactive)
REMARK    1  A    between atoms: C_1  and  C_2
REMARK    2  A    between atoms: C_5  and  C_6
REMARK    3  A    between atoms: N_7  and  O_8
REMARK    4  A    between atoms: N_9  and  C_10
REMARK    5  A    between atoms: N_9  and  C_11
REMARK    6  A    between atoms: C_11  and  C_12
REMARK    7  A    between atoms: C_14  and  O_15
REMARK    8  A    between atoms: O_15  and  C_16
REMARK                            x       y       z     vdW  Elec       q    Type
REMARK                         _______ _______ _______ _____ _____    ______ ____
ROOT
ATOM      1  C   UNL     1       0.520   9.264  20.032  0.00  0.00    +0.000 C 
ATOM      2  C   UNL     1       1.638   8.439  19.472  0.00  0.00    +0.000 A 
ATOM      3  C   UNL     1       2.256   8.733  18.271  0.00  0.00    +0.000 A 
ATOM      4  C   UNL     1       3.222   7.848  17.775  0.00  0.00    +0.000 A 
ATOM      5  C   UNL     1       3.570   6.664  18.463  0.00  0.00    +0.000 A 
ATOM      6  C   UNL     1       2.902   6.474  19.667  0.00  0.00    +0.000 A 
ATOM      7  N   UNL     1       1.956   7.329  20.166  0.00  0.00    +0.000 NA
ENDROOT
BRANCH   5   8
ATOM      8  C   UNL     1       4.499   5.683  17.717  0.00  0.00    +0.000 C 
ATOM      9  N   UNL     1       3.868   5.047  16.758  0.00  0.00    +0.000 NA
ATOM     10  N   UNL     1       5.867   5.478  17.987  0.00  0.00    +0.000 N 
ATOM     11  C   UNL     1       6.431   5.398  19.322  0.00  0.00    +0.000 C 
BRANCH   9  12
ATOM     12  O   UNL     1       4.648   4.067  16.136  0.00  0.00    +0.000 OA
ATOM     13  H   UNL     1       4.440   3.281  16.679  0.00  0.00    +0.000 HD
ENDBRANCH   9  12
BRANCH  10  14
ATOM     14  C   UNL     1       6.902   5.749  16.944  0.00  0.00    +0.000 C 
BRANCH  14  15
ATOM     15  C   UNL     1       7.445   7.147  17.184  0.00  0.00    +0.000 C 
ATOM     16  N   UNL     1       7.896   8.308  17.383  0.00  0.00    +0.000 NA
ENDBRANCH  14  15
ENDBRANCH  10  14
ENDBRANCH   5   8
BRANCH   6  17
ATOM     17  O   UNL     1       3.021   5.298  20.369  0.00  0.00    +0.000 OA
BRANCH  17  18
ATOM     18  C   UNL     1       2.524   4.139  19.819  0.00  0.00    +0.000 A 
ATOM     19  C   UNL     1       1.193   3.903  19.488  0.00  0.00    +0.000 A 
ATOM     20  C   UNL     1       0.816   2.650  19.010  0.00  0.00    +0.000 A 
ATOM     21  C   UNL     1       1.787   1.664  18.913  0.00  0.00    +0.000 A 
ATOM     22  N   UNL     1       3.081   1.847  19.252  0.00  0.00    +0.000 NA
ATOM     23  C   UNL     1       3.418   3.082  19.693  0.00  0.00    +0.000 A 
ENDBRANCH  17  18
ENDBRANCH   6  17
TORSDOF 6
ENDMDL
MODEL 5
REMARK VINA RESULT:      -6.4      1.864      5.708
REMARK  Name = 
REMARK  8 active torsions:
REMARK  status: ('A' for Active; 'I' for Inactive)
REMARK    1  A    between atoms: C_1  and  C_2
REMARK    2  A    between atoms: C_5  and  C_6
REMARK    3  A    between atoms: N_7  and  O_8
REMARK    4  A    between atoms: N_9  and  C_10
REMARK    5  A    between atoms: N_9  and  C_11
REMARK    6  A    between atoms: C_11  and  C_12
REMARK    7  A    between atoms: C_14  and  O_15
REMARK    8  A    between atoms: O_15  and  C_16
REMARK                            x       y       z     vdW  Elec       q    Type
REMARK                         _______ _______ _______ _____ _____    ______ ____
ROOT
ATOM      1  C   UNL     1       2.384   9.249  17.910  0.00  0.00    +0.000 C 
ATOM      2  C   UNL     1       2.659   7.783  18.043  0.00  0.00    +0.000 A 
ATOM      3  C   UNL     1       1.760   6.902  18.615  0.00  0.00    +0.000 A 
ATOM      4  C   UNL     1       2.143   5.566  18.792  0.00  0.00    +0.000 A 
ATOM      5  C   UNL     1       3.423   5.102  18.410  0.00  0.00    +0.000 A 
ATOM      6  C   UNL     1       4.240   6.065  17.829  0.00  0.00    +0.000 A 
ATOM      7  N   UNL     1       3.880   7.374  17.650  0.00  0.00    +0.000 NA
ENDROOT
BRANCH   5   8
ATOM      8  C   UNL     1       3.788   3.665  18.836  0.00  0.00    +0.000 C 
ATOM      9  N   UNL     1       4.872   3.635  19.574  0.00  0.00    +0.000 NA
ATOM     10  N   UNL     1       3.063   2.500  18.509  0.00  0.00    +0.000 N 
ATOM     11  C   UNL     1       2.482   2.241  17.205  0.00  0.00    +0.000 C 
BRANCH   9  12
ATOM     12  O   UNL     1       5.297   2.338  19.882  0.00  0.00    +0.000 OA
ATOM     13  H   UNL     1       4.458   1.919  20.157  0.00  0.00    +0.000 HD
ENDBRANCH   9  12
BRANCH  10  14
ATOM     14  C   UNL     1       2.471   1.642  19.579  0.00  0.00    +0.000 C 
BRANCH  14  15
ATOM     15  C   UNL     1       1.769   2.556  20.570  0.00  0.00    +0.000 C 
ATOM     16  N   UNL     1       1.186   3.314  21.392  0.00  0.00    +0.000 NA
ENDBRANCH  14  15
ENDBRANCH  10  14
ENDBRANCH   5   8
BRANCH   6  17
ATOM     17  O   UNL     1       5.560   5.803  17.550  0.00  0.00    +0.000 OA
BRANCH  17  18
ATOM     18  C   UNL     1       5.905   5.390  16.284  0.00  0.00    +0.000 A 
ATOM     19  C   UNL     1       5.113   4.619  15.437  0.00  0.00    +0.000 A 
ATOM     20  C   UNL     1       5.624   4.206  14.208  0.00  0.00    +0.000 A 
ATOM     21  C   UNL     1       6.926   4.554  13.886  0.00  0.00    +0.000 A 
ATOM     22  N   UNL     1       7.734   5.275  14.694  0.00  0.00    +0.000 NA
ATOM     23  C   UNL     1       7.201   5.678  15.871  0.00  0.00    +0.000 A 
ENDBRANCH  17  18
ENDBRANCH   6  17
TORSDOF 6
ENDMDL
MODEL 6
REMARK VINA RESULT:      -6.3      1.510      2.301
REMARK  Name = 
REMARK  8 active torsions:
REMARK  status: ('A' for Active; 'I' for Inactive)
REMARK    1  A    between atoms: C_1  and  C_2
REMARK    2  A    between atoms: C_5  and  C_6
REMARK    3  A    between atoms: N_7  and  O_8
REMARK    4  A    between atoms: N_9  and  C_10
REMARK    5  A    between atoms: N_9  and  C_11
REMARK    6  A    between atoms: C_11  and  C_12
REMARK    7  A    between atoms: C_14  and  O_15
REMARK    8  A    between atoms: O_15  and  C_16
REMARK                            x       y       z     vdW  Elec       q    Type
REMARK                         _______ _______ _______ _____ _____    ______ ____
ROOT
ATOM      1  C   UNL     1       0.770   2.750  20.142  0.00  0.00    +0.000 C 
ATOM      2  C   UNL     1       1.680   3.455  19.185  0.00  0.00    +0.000 A 
ATOM      3  C   UNL     1       2.267   2.822  18.105  0.00  0.00    +0.000 A 
ATOM      4  C   UNL     1       3.186   3.533  17.323  0.00  0.00    +0.000 A 
ATOM      5  C   UNL     1       3.532   4.872  17.613  0.00  0.00    +0.000 A 
ATOM      6  C   UNL     1       2.871   5.417  18.708  0.00  0.00    +0.000 A 
ATOM      7  N   UNL     1       1.971   4.736  19.483  0.00  0.00    +0.000 NA
ENDROOT
BRANCH   5   8
ATOM      8  C   UNL     1       4.695   5.474  16.798  0.00  0.00    +0.000 C 
ATOM      9  N   UNL     1       4.449   6.711  16.438  0.00  0.00    +0.000 NA
ATOM     10  N   UNL     1       5.899   4.816  16.472  0.00  0.00    +0.000 N 
ATOM     11  C   UNL     1       5.983   3.430  16.052  0.00  0.00    +0.000 C 
BRANCH   9  12
ATOM     12  O   UNL     1       5.431   7.249  15.599  0.00  0.00    +0.000 OA
ATOM     13  H   UNL     1       4.901   7.501  14.817  0.00  0.00    +0.000 HD
ENDBRANCH   9  12
BRANCH  10  14
ATOM     14  C   UNL     1       7.214   5.354  16.937  0.00  0.00    +0.000 C 
BRANCH  14  15
ATOM     15  C   UNL     1       7.198   5.366  18.456  0.00  0.00    +0.000 C 
ATOM     16  N   UNL     1       7.185   5.377  19.717  0.00  0.00    +0.000 NA
ENDBRANCH  14  15
ENDBRANCH  10  14
ENDBRANCH   5   8
BRANCH   6  17
ATOM     17  O   UNL     1       3.217   6.652  19.204  0.00  0.00    +0.000 OA
BRANCH  17  18
ATOM     18  C   UNL     1       2.317   7.688  19.101  0.00  0.00    +0.000 A 
ATOM     19  C   UNL     1       1.997   8.372  17.932  0.00  0.00    +0.000 A 
ATOM     20  C   UNL     1       1.125   9.457  17.988  0.00  0.00    +0.000 A 
ATOM     21  C   UNL     1       0.630   9.840  19.225  0.00  0.00    +0.000 A 
ATOM     22  N   UNL     1       0.941   9.220  20.384  0.00  0.00    +0.000 NA
ATOM     23  C   UNL     1       1.774   8.157  20.292  0.00  0.00    +0.000 A 
ENDBRANCH  17  18
ENDBRANCH   6  17
TORSDOF 6
ENDMDL
MODEL 7
REMARK VINA RESULT:      -6.3      1.692      2.395
REMARK  Name = 
REMARK  8 active torsions:
REMARK  status: ('A' for Active; 'I' for Inactive)
REMARK    1  A    between atoms: C_1  and  C_2
REMARK    2  A    between atoms: C_5  and  C_6
REMARK    3  A    between atoms: N_7  and  O_8
REMARK    4  A    between atoms: N_9  and  C_10
REMARK    5  A    between atoms: N_9  and  C_11
REMARK    6  A    between atoms: C_11  and  C_12
REMARK    7  A    between atoms: C_14  and  O_15
REMARK    8  A    between atoms: O_15  and  C_16
REMARK                            x       y       z     vdW  Elec       q    Type
REMARK                         _______ _______ _______ _____ _____    ______ ____
ROOT
ATOM      1  C   UNL     1       1.110   2.826  21.184  0.00  0.00    +0.000 C 
ATOM      2  C   UNL     1       2.003   3.284  20.072  0.00  0.00    +0.000 A 
ATOM      3  C   UNL     1       2.549   2.416  19.145  0.00  0.00    +0.000 A 
ATOM      4  C   UNL     1       3.455   2.919  18.202  0.00  0.00    +0.000 A 
ATOM      5  C   UNL     1       3.830   4.281  18.181  0.00  0.00    +0.000 A 
ATOM      6  C   UNL     1       3.208   5.068  19.144  0.00  0.00    +0.000 A 
ATOM      7  N   UNL     1       2.321   4.593  20.072  0.00  0.00    +0.000 NA
ENDROOT
BRANCH   5   8
ATOM      8  C   UNL     1       4.977   4.665  17.224  0.00  0.00    +0.000 C 
ATOM      9  N   UNL     1       4.797   4.170  16.022  0.00  0.00    +0.000 NA
ATOM     10  N   UNL     1       6.092   5.462  17.554  0.00  0.00    +0.000 N 
ATOM     11  C   UNL     1       6.824   5.364  18.803  0.00  0.00    +0.000 C 
BRANCH   9  12
ATOM     12  O   UNL     1       5.874   4.401  15.161  0.00  0.00    +0.000 OA
ATOM     13  H   UNL     1       6.544   3.787  15.521  0.00  0.00    +0.000 HD
ENDBRANCH   9  12
BRANCH  10  14
ATOM     14  C   UNL     1       6.351   6.749  16.840  0.00  0.00    +0.000 C 
BRANCH  14  15
ATOM     15  C   UNL     1       7.411   7.507  17.621  0.00  0.00    +0.000 C 
ATOM     16  N   UNL     1       8.291   8.136  18.269  0.00  0.00    +0.000 NA
ENDBRANCH  14  15
ENDBRANCH  10  14
ENDBRANCH   5   8
BRANCH   6  17
ATOM     17  O   UNL     1       3.585   6.375  19.347  0.00  0.00    +0.000 OA
BRANCH  17  18
ATOM     18  C   UNL     1       2.687   7.379  19.071  0.00  0.00    +0.000 A 
ATOM     19  C   UNL     1       2.554   8.037  17.851  0.00  0.00    +0.000 A 
ATOM     20  C   UNL     1       1.653   9.094  17.736  0.00  0.00    +0.000 A 
ATOM     21  C   UNL     1       0.940   9.476  18.861  0.00  0.00    +0.000 A 
ATOM     22  N   UNL     1       1.064   8.881  20.068  0.00  0.00    +0.000 NA
ATOM     23  C   UNL     1       1.932   7.845  20.141  0.00  0.00    +0.000 A 
ENDBRANCH  17  18
ENDBRANCH   6  17
TORSDOF 6
ENDMDL
MODEL 8
REMARK VINA RESULT:      -6.2      2.319      4.705
REMARK  Name = 
REMARK  8 active torsions:
REMARK  status: ('A' for Active; 'I' for Inactive)
REMARK    1  A    between atoms: C_1  and  C_2
REMARK    2  A    between atoms: C_5  and  C_6
REMARK    3  A    between atoms: N_7  and  O_8
REMARK    4  A    between atoms: N_9  and  C_10
REMARK    5  A    between atoms: N_9  and  C_11
REMARK    6  A    between atoms: C_11  and  C_12
REMARK    7  A    between atoms: C_14  and  O_15
REMARK    8  A    between atoms: O_15  and  C_16
REMARK                            x       y       z     vdW  Elec       q    Type
REMARK                         _______ _______ _______ _____ _____    ______ ____
ROOT
ATOM      1  C   UNL     1       7.496   7.527  17.321  0.00  0.00    +0.000 C 
ATOM      2  C   UNL     1       6.432   6.569  17.763  0.00  0.00    +0.000 A 
ATOM      3  C   UNL     1       6.713   5.285  18.191  0.00  0.00    +0.000 A 
ATOM      4  C   UNL     1       5.649   4.424  18.487  0.00  0.00    +0.000 A 
ATOM      5  C   UNL     1       4.302   4.831  18.351  0.00  0.00    +0.000 A 
ATOM      6  C   UNL     1       4.133   6.146  17.931  0.00  0.00    +0.000 A 
ATOM      7  N   UNL     1       5.163   6.999  17.638  0.00  0.00    +0.000 NA
ENDROOT
BRANCH   5   8
ATOM      8  C   UNL     1       3.232   3.733  18.519  0.00  0.00    +0.000 C 
ATOM      9  N   UNL     1       3.105   3.005  17.434  0.00  0.00    +0.000 NA
ATOM     10  N   UNL     1       2.474   3.494  19.683  0.00  0.00    +0.000 N 
ATOM     11  C   UNL     1       1.900   4.538  20.511  0.00  0.00    +0.000 C 
BRANCH   9  12
ATOM     12  O   UNL     1       2.063   2.075  17.510  0.00  0.00    +0.000 OA
ATOM     13  H   UNL     1       2.399   1.463  18.195  0.00  0.00    +0.000 HD
ENDBRANCH   9  12
BRANCH  10  14
ATOM     14  C   UNL     1       2.555   2.181  20.393  0.00  0.00    +0.000 C 
BRANCH  14  15
ATOM     15  C   UNL     1       4.012   1.938  20.750  0.00  0.00    +0.000 C 
ATOM     16  N   UNL     1       5.221   1.735  21.046  0.00  0.00    +0.000 NA
ENDBRANCH  14  15
ENDBRANCH  10  14
ENDBRANCH   5   8
BRANCH   6  17
ATOM     17  O   UNL     1       2.890   6.634  17.606  0.00  0.00    +0.000 OA
BRANCH  17  18
ATOM     18  C   UNL     1       2.343   7.634  18.376  0.00  0.00    +0.000 A 
ATOM     19  C   UNL     1       2.094   7.560  19.744  0.00  0.00    +0.000 A 
ATOM     20  C   UNL     1       1.459   8.623  20.384  0.00  0.00    +0.000 A 
ATOM     21  C   UNL     1       1.066   9.711  19.620  0.00  0.00    +0.000 A 
ATOM     22  N   UNL     1       1.264   9.804  18.287  0.00  0.00    +0.000 NA
ATOM     23  C   UNL     1       1.901   8.764  17.700  0.00  0.00    +0.000 A 
ENDBRANCH  17  18
ENDBRANCH   6  17
TORSDOF 6
ENDMDL
MODEL 9
REMARK VINA RESULT:      -6.2      1.997      4.581
REMARK  Name = 
REMARK  8 active torsions:
REMARK  status: ('A' for Active; 'I' for Inactive)
REMARK    1  A    between atoms: C_1  and  C_2
REMARK    2  A    between atoms: C_5  and  C_6
REMARK    3  A    between atoms: N_7  and  O_8
REMARK    4  A    between atoms: N_9  and  C_10
REMARK    5  A    between atoms: N_9  and  C_11
REMARK    6  A    between atoms: C_11  and  C_12
REMARK    7  A    between atoms: C_14  and  O_15
REMARK    8  A    between atoms: O_15  and  C_16
REMARK                            x       y       z     vdW  Elec       q    Type
REMARK                         _______ _______ _______ _____ _____    ______ ____
ROOT
ATOM      1  C   UNL     1       7.117   7.313  17.330  0.00  0.00    +0.000 C 
ATOM      2  C   UNL     1       6.213   6.176  17.697  0.00  0.00    +0.000 A 
ATOM      3  C   UNL     1       6.287   4.936  17.089  0.00  0.00    +0.000 A 
ATOM      4  C   UNL     1       5.335   3.964  17.422  0.00  0.00    +0.000 A 
ATOM      5  C   UNL     1       4.302   4.221  18.352  0.00  0.00    +0.000 A 
ATOM      6  C   UNL     1       4.333   5.491  18.917  0.00  0.00    +0.000 A 
ATOM      7  N   UNL     1       5.255   6.452  18.602  0.00  0.00    +0.000 NA
ENDROOT
BRANCH   5   8
ATOM      8  C   UNL     1       3.211   3.139  18.483  0.00  0.00    +0.000 C 
ATOM      9  N   UNL     1       3.724   1.949  18.687  0.00  0.00    +0.000 NA
ATOM     10  N   UNL     1       1.820   3.361  18.417  0.00  0.00    +0.000 N 
ATOM     11  C   UNL     1       1.182   4.255  17.469  0.00  0.00    +0.000 C 
BRANCH   9  12
ATOM     12  O   UNL     1       2.769   0.927  18.695  0.00  0.00    +0.000 OA
ATOM     13  H   UNL     1       3.334   0.134  18.784  0.00  0.00    +0.000 HD
ENDBRANCH   9  12
BRANCH  10  14
ATOM     14  C   UNL     1       0.936   3.031  19.576  0.00  0.00    +0.000 C 
BRANCH  14  15
ATOM     15  C   UNL     1       1.721   3.305  20.848  0.00  0.00    +0.000 C 
ATOM     16  N   UNL     1       2.372   3.533  21.904  0.00  0.00    +0.000 NA
ENDBRANCH  14  15
ENDBRANCH  10  14
ENDBRANCH   5   8
BRANCH   6  17
ATOM     17  O   UNL     1       3.309   5.938  19.718  0.00  0.00    +0.000 OA
BRANCH  17  18
ATOM     18  C   UNL     1       2.595   7.049  19.331  0.00  0.00    +0.000 A 
ATOM     19  C   UNL     1       2.587   7.605  18.055  0.00  0.00    +0.000 A 
ATOM     20  C   UNL     1       1.879   8.782  17.824  0.00  0.00    +0.000 A 
ATOM     21  C   UNL     1       1.228   9.379  18.893  0.00  0.00    +0.000 A 
ATOM     22  N   UNL     1       1.238   8.885  20.150  0.00  0.00    +0.000 NA
ATOM     23  C   UNL     1       1.918   7.730  20.336  0.00  0.00    +0.000 A 
ENDBRANCH  17  18
ENDBRANCH   6  17
TORSDOF 6
ENDMDL
