MODEL 1
REMARK VINA RESULT:      -6.9      0.000      0.000
REMARK  Name = 
REMARK  6 active torsions:
REMARK  status: ('A' for Active; 'I' for Inactive)
REMARK    1  A    between atoms: C_1  and  C_2
REMARK    2  A    between atoms: C_3  and  C_4
REMARK    3  A    between atoms: C_13  and  C_14
REMARK    4  A    between atoms: N_16  and  C_17
REMARK    5  A    between atoms: C_19  and  C_20
REMARK    6  A    between atoms: C_22  and  O_23
REMARK                            x       y       z     vdW  Elec       q    Type
REMARK                         _______ _______ _______ _____ _____    ______ ____
ROOT
ATOM      1  C   UNL     1      -0.311   9.351  23.214  0.00  0.00    +0.000 C 
ATOM      2  C   UNL     1      -0.844  10.621  22.604  0.00  0.00    +0.000 C 
ATOM      3  C   UNL     1      -0.556  11.114  21.370  0.00  0.00    +0.000 C 
ATOM      4  C   UNL     1      -0.834  12.593  21.112  0.00  0.00    +0.000 C 
ATOM      5  C   UNL     1      -1.133  13.355  22.386  0.00  0.00    +0.000 C 
ATOM      6  C   UNL     1      -1.514  14.645  22.433  0.00  0.00    +0.000 C 
ATOM      7  C   UNL     1      -2.909  14.892  21.934  0.00  0.00    +0.000 C 
ATOM      8  C   UNL     1      -3.879  14.276  22.948  0.00  0.00    +0.000 C 
ATOM      9  C   UNL     1      -3.264  13.165  23.842  0.00  0.00    +0.000 C 
ATOM     10  C   UNL     1      -2.018  12.510  23.235  0.00  0.00    +0.000 C 
ATOM     11  N   UNL     1      -1.807  11.239  23.402  0.00  0.00    +0.000 NA
ENDROOT
BRANCH   3  12
ATOM     12  C   UNL     1      -0.090  10.228  20.227  0.00  0.00    +0.000 C 
ATOM     13  O   UNL     1      -0.684  10.167  19.156  0.00  0.00    +0.000 OA
ATOM     14  N   UNL     1       1.070   9.529  20.471  0.00  0.00    +0.000 N 
ATOM     15  C   UNL     1       1.666   8.627  19.599  0.00  0.00    +0.000 A 
ATOM     16  C   UNL     1       1.923   8.924  18.272  0.00  0.00    +0.000 A 
ATOM     17  C   UNL     1       2.591   7.968  17.511  0.00  0.00    +0.000 A 
ATOM     18  C   UNL     1       2.930   6.746  18.087  0.00  0.00    +0.000 A 
ATOM     19  C   UNL     1       2.639   6.551  19.423  0.00  0.00    +0.000 A 
ATOM     20  N   UNL     1       2.057   7.485  20.200  0.00  0.00    +0.000 NA
ATOM     21  H   UNL     1       1.277   9.236  21.408  0.00  0.00    +0.000 HD
ENDBRANCH   3  12
BRANCH   4  22
ATOM     22  C   UNL     1       0.338  13.293  20.472  0.00  0.00    +0.000 A 
ATOM     23  C   UNL     1       1.524  13.684  21.069  0.00  0.00    +0.000 A 
ATOM     24  N   UNL     1       2.320  14.128  20.064  0.00  0.00    +0.000 N 
ATOM     25  C   UNL     1       3.727  14.420  20.164  0.00  0.00    +0.000 C 
ATOM     26  N   UNL     1       1.711  14.158  18.862  0.00  0.00    +0.000 NA
ATOM     27  C   UNL     1       0.497  13.649  19.103  0.00  0.00    +0.000 A 
ATOM     28  C   UNL     1      -0.460  13.430  17.987  0.00  0.00    +0.000 C 
ENDBRANCH   4  22
BRANCH   6  29
ATOM     29  O   UNL     1      -1.185  15.376  23.571  0.00  0.00    +0.000 OA
ATOM     30  H   UNL     1      -0.503  14.899  24.076  0.00  0.00    +0.000 HD
ENDBRANCH   6  29
TORSDOF 3
ENDMDL
MODEL 2
REMARK VINA RESULT:      -6.8      2.863      3.603
REMARK  Name = 
REMARK  6 active torsions:
REMARK  status: ('A' for Active; 'I' for Inactive)
REMARK    1  A    between atoms: C_1  and  C_2
REMARK    2  A    between atoms: C_3  and  C_4
REMARK    3  A    between atoms: C_13  and  C_14
REMARK    4  A    between atoms: N_16  and  C_17
REMARK    5  A    between atoms: C_19  and  C_20
REMARK    6  A    between atoms: C_22  and  O_23
REMARK                            x       y       z     vdW  Elec       q    Type
REMARK                         _______ _______ _______ _____ _____    ______ ____
ROOT
ATOM      1  C   UNL     1      -0.439  10.404  22.045  0.00  0.00    +0.000 C 
ATOM      2  C   UNL     1      -0.675  11.886  21.916  0.00  0.00    +0.000 C 
ATOM      3  C   UNL     1      -0.597  12.626  20.778  0.00  0.00    +0.000 C 
ATOM      4  C   UNL     1      -0.436  14.137  20.922  0.00  0.00    +0.000 C 
ATOM      5  C   UNL     1      -0.102  14.551  22.340  0.00  0.00    +0.000 C 
ATOM      6  C   UNL     1      -0.011  15.824  22.764  0.00  0.00    +0.000 C 
ATOM      7  C   UNL     1      -1.328  16.541  22.844  0.00  0.00    +0.000 C 
ATOM      8  C   UNL     1      -2.124  15.918  23.997  0.00  0.00    +0.000 C 
ATOM      9  C   UNL     1      -1.683  14.481  24.387  0.00  0.00    +0.000 C 
ATOM     10  C   UNL     1      -0.941  13.742  23.268  0.00  0.00    +0.000 C 
ATOM     11  N   UNL     1      -1.120  12.466  23.104  0.00  0.00    +0.000 NA
ENDROOT
BRANCH   3  12
ATOM     12  C   UNL     1      -0.784  12.020  19.397  0.00  0.00    +0.000 C 
ATOM     13  O   UNL     1       0.153  11.826  18.630  0.00  0.00    +0.000 OA
ATOM     14  N   UNL     1      -2.079  11.671  19.087  0.00  0.00    +0.000 N 
ATOM     15  C   UNL     1      -2.503  11.143  17.875  0.00  0.00    +0.000 A 
ATOM     16  C   UNL     1      -1.887  10.061  17.271  0.00  0.00    +0.000 A 
ATOM     17  C   UNL     1      -2.444   9.571  16.093  0.00  0.00    +0.000 A 
ATOM     18  C   UNL     1      -3.556  10.206  15.544  0.00  0.00    +0.000 A 
ATOM     19  C   UNL     1      -4.103  11.273  16.229  0.00  0.00    +0.000 A 
ATOM     20  N   UNL     1      -3.627  11.722  17.406  0.00  0.00    +0.000 NA
ATOM     21  H   UNL     1      -2.835  12.206  19.474  0.00  0.00    +0.000 HD
ENDBRANCH   3  12
BRANCH   4  22
ATOM     22  C   UNL     1       0.673  14.680  20.057  0.00  0.00    +0.000 A 
ATOM     23  C   UNL     1       1.992  14.262  20.004  0.00  0.00    +0.000 A 
ATOM     24  N   UNL     1       2.559  14.941  18.975  0.00  0.00    +0.000 N 
ATOM     25  C   UNL     1       3.847  14.673  18.389  0.00  0.00    +0.000 C 
ATOM     26  N   UNL     1       1.742  15.855  18.412  0.00  0.00    +0.000 NA
ATOM     27  C   UNL     1       0.586  15.702  19.069  0.00  0.00    +0.000 A 
ATOM     28  C   UNL     1      -0.613  16.484  18.670  0.00  0.00    +0.000 C 
ENDBRANCH   4  22
BRANCH   6  29
ATOM     29  O   UNL     1       0.842  16.093  23.831  0.00  0.00    +0.000 OA
ATOM     30  H   UNL     1       0.416  16.730  24.432  0.00  0.00    +0.000 HD
ENDBRANCH   6  29
TORSDOF 3
ENDMDL
MODEL 3
REMARK VINA RESULT:      -6.7      3.075      6.878
REMARK  Name = 
REMARK  6 active torsions:
REMARK  status: ('A' for Active; 'I' for Inactive)
REMARK    1  A    between atoms: C_1  and  C_2
REMARK    2  A    between atoms: C_3  and  C_4
REMARK    3  A    between atoms: C_13  and  C_14
REMARK    4  A    between atoms: N_16  and  C_17
REMARK    5  A    between atoms: C_19  and  C_20
REMARK    6  A    between atoms: C_22  and  O_23
REMARK                            x       y       z     vdW  Elec       q    Type
REMARK                         _______ _______ _______ _____ _____    ______ ____
ROOT
ATOM      1  C   UNL     1      -5.460  14.251  20.792  0.00  0.00    +0.000 C 
ATOM      2  C   UNL     1      -4.423  13.248  20.357  0.00  0.00    +0.000 C 
ATOM      3  C   UNL     1      -3.187  13.072  20.895  0.00  0.00    +0.000 C 
ATOM      4  C   UNL     1      -2.145  12.335  20.058  0.00  0.00    +0.000 C 
ATOM      5  C   UNL     1      -2.581  12.157  18.618  0.00  0.00    +0.000 C 
ATOM      6  C   UNL     1      -1.902  11.452  17.695  0.00  0.00    +0.000 C 
ATOM      7  C   UNL     1      -1.935   9.966  17.910  0.00  0.00    +0.000 C 
ATOM      8  C   UNL     1      -3.364   9.490  17.629  0.00  0.00    +0.000 C 
ATOM      9  C   UNL     1      -4.450  10.594  17.748  0.00  0.00    +0.000 C 
ATOM     10  C   UNL     1      -4.023  11.784  18.614  0.00  0.00    +0.000 C 
ATOM     11  N   UNL     1      -4.893  12.379  19.374  0.00  0.00    +0.000 NA
ENDROOT
BRANCH   3  12
ATOM     12  C   UNL     1      -2.854  13.472  22.323  0.00  0.00    +0.000 C 
ATOM     13  O   UNL     1      -2.814  12.661  23.243  0.00  0.00    +0.000 OA
ATOM     14  N   UNL     1      -2.565  14.806  22.500  0.00  0.00    +0.000 N 
ATOM     15  C   UNL     1      -2.275  15.414  23.714  0.00  0.00    +0.000 A 
ATOM     16  C   UNL     1      -1.331  14.917  24.596  0.00  0.00    +0.000 A 
ATOM     17  C   UNL     1      -1.073  15.651  25.751  0.00  0.00    +0.000 A 
ATOM     18  C   UNL     1      -1.795  16.815  26.001  0.00  0.00    +0.000 A 
ATOM     19  C   UNL     1      -2.710  17.232  25.053  0.00  0.00    +0.000 A 
ATOM     20  N   UNL     1      -2.928  16.579  23.895  0.00  0.00    +0.000 NA
ATOM     21  H   UNL     1      -3.013  15.485  21.913  0.00  0.00    +0.000 HD
ENDBRANCH   3  12
BRANCH   4  22
ATOM     22  C   UNL     1      -0.828  13.066  20.008  0.00  0.00    +0.000 A 
ATOM     23  C   UNL     1      -0.595  14.370  19.606  0.00  0.00    +0.000 A 
ATOM     24  N   UNL     1       0.710  14.619  19.882  0.00  0.00    +0.000 N 
ATOM     25  C   UNL     1       1.352  15.908  19.854  0.00  0.00    +0.000 C 
ATOM     26  N   UNL     1       1.384  13.543  20.338  0.00  0.00    +0.000 NA
ATOM     27  C   UNL     1       0.449  12.589  20.418  0.00  0.00    +0.000 A 
ATOM     28  C   UNL     1       0.787  11.253  20.975  0.00  0.00    +0.000 C 
ENDBRANCH   4  22
BRANCH   6  29
ATOM     29  O   UNL     1      -2.035  11.832  16.363  0.00  0.00    +0.000 OA
ATOM     30  H   UNL     1      -1.645  12.715  16.238  0.00  0.00    +0.000 HD
ENDBRANCH   6  29
TORSDOF 3
ENDMDL
MODEL 4
REMARK VINA RESULT:      -6.6      2.836      3.775
REMARK  Name = 
REMARK  6 active torsions:
REMARK  status: ('A' for Active; 'I' for Inactive)
REMARK    1  A    between atoms: C_1  and  C_2
REMARK    2  A    between atoms: C_3  and  C_4
REMARK    3  A    between atoms: C_13  and  C_14
REMARK    4  A    between atoms: N_16  and  C_17
REMARK    5  A    between atoms: C_19  and  C_20
REMARK    6  A    between atoms: C_22  and  O_23
REMARK                            x       y       z     vdW  Elec       q    Type
REMARK                         _______ _______ _______ _____ _____    ______ ____
ROOT
ATOM      1  C   UNL     1      -0.326  10.350  21.914  0.00  0.00    +0.000 C 
ATOM      2  C   UNL     1      -0.690  11.810  21.837  0.00  0.00    +0.000 C 
ATOM      3  C   UNL     1      -0.717  12.584  20.720  0.00  0.00    +0.000 C 
ATOM      4  C   UNL     1      -0.679  14.099  20.903  0.00  0.00    +0.000 C 
ATOM      5  C   UNL     1      -0.328  14.501  22.321  0.00  0.00    +0.000 C 
ATOM      6  C   UNL     1      -0.330  15.766  22.779  0.00  0.00    +0.000 C 
ATOM      7  C   UNL     1      -1.699  16.365  22.927  0.00  0.00    +0.000 C 
ATOM      8  C   UNL     1      -2.396  15.646  24.087  0.00  0.00    +0.000 C 
ATOM      9  C   UNL     1      -1.821  14.242  24.419  0.00  0.00    +0.000 C 
ATOM     10  C   UNL     1      -1.062  13.599  23.253  0.00  0.00    +0.000 C 
ATOM     11  N   UNL     1      -1.138  12.318  23.057  0.00  0.00    +0.000 NA
ENDROOT
BRANCH   3  12
ATOM     12  C   UNL     1      -0.904  12.002  19.329  0.00  0.00    +0.000 C 
ATOM     13  O   UNL     1       0.031  11.834  18.553  0.00  0.00    +0.000 OA
ATOM     14  N   UNL     1      -2.196  11.641  19.019  0.00  0.00    +0.000 N 
ATOM     15  C   UNL     1      -2.620  11.129  17.800  0.00  0.00    +0.000 A 
ATOM     16  C   UNL     1      -1.992  10.068  17.173  0.00  0.00    +0.000 A 
ATOM     17  C   UNL     1      -2.549   9.593  15.988  0.00  0.00    +0.000 A 
ATOM     18  C   UNL     1      -3.672  10.222  15.457  0.00  0.00    +0.000 A 
ATOM     19  C   UNL     1      -4.231  11.268  16.166  0.00  0.00    +0.000 A 
ATOM     20  N   UNL     1      -3.754  11.701  17.348  0.00  0.00    +0.000 NA
ATOM     21  H   UNL     1      -2.957  12.158  19.420  0.00  0.00    +0.000 HD
ENDBRANCH   3  12
BRANCH   4  22
ATOM     22  C   UNL     1       0.347  14.758  20.017  0.00  0.00    +0.000 A 
ATOM     23  C   UNL     1       0.150  15.776  19.100  0.00  0.00    +0.000 A 
ATOM     24  N   UNL     1       1.385  16.133  18.666  0.00  0.00    +0.000 N 
ATOM     25  C   UNL     1       1.704  17.299  17.883  0.00  0.00    +0.000 C 
ATOM     26  N   UNL     1       2.376  15.356  19.148  0.00  0.00    +0.000 NA
ATOM     27  C   UNL     1       1.749  14.511  19.975  0.00  0.00    +0.000 A 
ATOM     28  C   UNL     1       2.527  13.536  20.784  0.00  0.00    +0.000 C 
ENDBRANCH   4  22
BRANCH   6  29
ATOM     29  O   UNL     1       0.537  16.078  23.823  0.00  0.00    +0.000 OA
ATOM     30  H   UNL     1       1.383  15.615  23.689  0.00  0.00    +0.000 HD
ENDBRANCH   6  29
TORSDOF 3
ENDMDL
MODEL 5
REMARK VINA RESULT:      -6.6      3.762      5.994
REMARK  Name = 
REMARK  6 active torsions:
REMARK  status: ('A' for Active; 'I' for Inactive)
REMARK    1  A    between atoms: C_1  and  C_2
REMARK    2  A    between atoms: C_3  and  C_4
REMARK    3  A    between atoms: C_13  and  C_14
REMARK    4  A    between atoms: N_16  and  C_17
REMARK    5  A    between atoms: C_19  and  C_20
REMARK    6  A    between atoms: C_22  and  O_23
REMARK                            x       y       z     vdW  Elec       q    Type
REMARK                         _______ _______ _______ _____ _____    ______ ____
ROOT
ATOM      1  C   UNL     1      -3.141   9.822  17.831  0.00  0.00    +0.000 C 
ATOM      2  C   UNL     1      -3.749  11.161  18.159  0.00  0.00    +0.000 C 
ATOM      3  C   UNL     1      -3.223  12.116  18.971  0.00  0.00    +0.000 C 
ATOM      4  C   UNL     1      -4.167  13.184  19.517  0.00  0.00    +0.000 C 
ATOM      5  C   UNL     1      -5.624  12.842  19.285  0.00  0.00    +0.000 C 
ATOM      6  C   UNL     1      -6.656  13.656  19.570  0.00  0.00    +0.000 C 
ATOM      7  C   UNL     1      -6.770  14.846  18.660  0.00  0.00    +0.000 C 
ATOM      8  C   UNL     1      -7.192  14.333  17.279  0.00  0.00    +0.000 C 
ATOM      9  C   UNL     1      -6.872  12.836  17.018  0.00  0.00    +0.000 C 
ATOM     10  C   UNL     1      -5.755  12.283  17.910  0.00  0.00    +0.000 C 
ATOM     11  N   UNL     1      -4.912  11.416  17.433  0.00  0.00    +0.000 NA
ENDROOT
BRANCH   3  12
ATOM     12  C   UNL     1      -1.733  12.219  19.249  0.00  0.00    +0.000 C 
ATOM     13  O   UNL     1      -1.148  11.453  20.006  0.00  0.00    +0.000 OA
ATOM     14  N   UNL     1      -1.082  13.215  18.556  0.00  0.00    +0.000 N 
ATOM     15  C   UNL     1       0.265  13.531  18.674  0.00  0.00    +0.000 A 
ATOM     16  C   UNL     1       1.269  12.583  18.591  0.00  0.00    +0.000 A 
ATOM     17  C   UNL     1       2.588  13.025  18.652  0.00  0.00    +0.000 A 
ATOM     18  C   UNL     1       2.848  14.381  18.840  0.00  0.00    +0.000 A 
ATOM     19  C   UNL     1       1.776  15.250  18.902  0.00  0.00    +0.000 A 
ATOM     20  N   UNL     1       0.494  14.856  18.775  0.00  0.00    +0.000 NA
ATOM     21  H   UNL     1      -1.578  14.057  18.327  0.00  0.00    +0.000 HD
ENDBRANCH   3  12
BRANCH   4  22
ATOM     22  C   UNL     1      -4.016  13.377  21.004  0.00  0.00    +0.000 A 
ATOM     23  C   UNL     1      -4.531  12.590  22.020  0.00  0.00    +0.000 A 
ATOM     24  N   UNL     1      -4.001  13.073  23.172  0.00  0.00    +0.000 N 
ATOM     25  C   UNL     1      -4.061  12.438  24.464  0.00  0.00    +0.000 C 
ATOM     26  N   UNL     1      -3.258  14.186  23.004  0.00  0.00    +0.000 NA
ATOM     27  C   UNL     1      -3.262  14.379  21.680  0.00  0.00    +0.000 A 
ATOM     28  C   UNL     1      -2.462  15.478  21.079  0.00  0.00    +0.000 C 
ENDBRANCH   4  22
BRANCH   6  29
ATOM     29  O   UNL     1      -7.878  13.069  19.884  0.00  0.00    +0.000 OA
ATOM     30  H   UNL     1      -7.885  12.824  20.826  0.00  0.00    +0.000 HD
ENDBRANCH   6  29
TORSDOF 3
ENDMDL
MODEL 6
REMARK VINA RESULT:      -6.5      3.137      5.871
REMARK  Name = 
REMARK  6 active torsions:
REMARK  status: ('A' for Active; 'I' for Inactive)
REMARK    1  A    between atoms: C_1  and  C_2
REMARK    2  A    between atoms: C_3  and  C_4
REMARK    3  A    between atoms: C_13  and  C_14
REMARK    4  A    between atoms: N_16  and  C_17
REMARK    5  A    between atoms: C_19  and  C_20
REMARK    6  A    between atoms: C_22  and  O_23
REMARK                            x       y       z     vdW  Elec       q    Type
REMARK                         _______ _______ _______ _____ _____    ______ ____
ROOT
ATOM      1  C   UNL     1      -3.076  14.424  24.584  0.00  0.00    +0.000 C 
ATOM      2  C   UNL     1      -2.192  14.454  23.365  0.00  0.00    +0.000 C 
ATOM      3  C   UNL     1      -2.262  13.627  22.289  0.00  0.00    +0.000 C 
ATOM      4  C   UNL     1      -1.036  13.529  21.385  0.00  0.00    +0.000 C 
ATOM      5  C   UNL     1       0.189  14.172  22.001  0.00  0.00    +0.000 C 
ATOM      6  C   UNL     1       1.371  14.320  21.376  0.00  0.00    +0.000 C 
ATOM      7  C   UNL     1       1.361  15.344  20.277  0.00  0.00    +0.000 C 
ATOM      8  C   UNL     1       1.216  16.722  20.930  0.00  0.00    +0.000 C 
ATOM      9  C   UNL     1       0.597  16.703  22.355  0.00  0.00    +0.000 C 
ATOM     10  C   UNL     1      -0.233  15.448  22.645  0.00  0.00    +0.000 C 
ATOM     11  N   UNL     1      -1.310  15.534  23.366  0.00  0.00    +0.000 NA
ENDROOT
BRANCH   3  12
ATOM     12  C   UNL     1      -3.541  12.904  21.899  0.00  0.00    +0.000 C 
ATOM     13  O   UNL     1      -4.211  12.266  22.704  0.00  0.00    +0.000 OA
ATOM     14  N   UNL     1      -3.911  13.050  20.581  0.00  0.00    +0.000 N 
ATOM     15  C   UNL     1      -5.012  12.453  19.982  0.00  0.00    +0.000 A 
ATOM     16  C   UNL     1      -6.284  12.510  20.522  0.00  0.00    +0.000 A 
ATOM     17  C   UNL     1      -7.324  11.935  19.796  0.00  0.00    +0.000 A 
ATOM     18  C   UNL     1      -7.047  11.291  18.593  0.00  0.00    +0.000 A 
ATOM     19  C   UNL     1      -5.745  11.297  18.134  0.00  0.00    +0.000 A 
ATOM     20  N   UNL     1      -4.733  11.906  18.781  0.00  0.00    +0.000 NA
ATOM     21  H   UNL     1      -3.199  13.159  19.882  0.00  0.00    +0.000 HD
ENDBRANCH   3  12
BRANCH   4  22
ATOM     22  C   UNL     1      -0.654  12.101  21.090  0.00  0.00    +0.000 A 
ATOM     23  C   UNL     1      -0.339  11.101  21.995  0.00  0.00    +0.000 A 
ATOM     24  N   UNL     1      -0.218   9.963  21.267  0.00  0.00    +0.000 N 
ATOM     25  C   UNL     1      -0.126   8.625  21.794  0.00  0.00    +0.000 C 
ATOM     26  N   UNL     1      -0.324  10.155  19.936  0.00  0.00    +0.000 NA
ATOM     27  C   UNL     1      -0.591  11.461  19.820  0.00  0.00    +0.000 A 
ATOM     28  C   UNL     1      -0.871  12.053  18.486  0.00  0.00    +0.000 C 
ENDBRANCH   4  22
BRANCH   6  29
ATOM     29  O   UNL     1       2.520  14.347  22.161  0.00  0.00    +0.000 OA
ATOM     30  H   UNL     1       3.277  14.627  21.615  0.00  0.00    +0.000 HD
ENDBRANCH   6  29
TORSDOF 3
ENDMDL
MODEL 7
REMARK VINA RESULT:      -6.4      2.888      5.657
REMARK  Name = 
REMARK  6 active torsions:
REMARK  status: ('A' for Active; 'I' for Inactive)
REMARK    1  A    between atoms: C_1  and  C_2
REMARK    2  A    between atoms: C_3  and  C_4
REMARK    3  A    between atoms: C_13  and  C_14
REMARK    4  A    between atoms: N_16  and  C_17
REMARK    5  A    between atoms: C_19  and  C_20
REMARK    6  A    between atoms: C_22  and  O_23
REMARK                            x       y       z     vdW  Elec       q    Type
REMARK                         _______ _______ _______ _____ _____    ______ ____
ROOT
ATOM      1  C   UNL     1      -0.919  15.763  19.675  0.00  0.00    +0.000 C 
ATOM      2  C   UNL     1      -1.651  15.667  20.989  0.00  0.00    +0.000 C 
ATOM      3  C   UNL     1      -2.214  14.553  21.526  0.00  0.00    +0.000 C 
ATOM      4  C   UNL     1      -3.265  14.742  22.617  0.00  0.00    +0.000 C 
ATOM      5  C   UNL     1      -3.724  16.181  22.734  0.00  0.00    +0.000 C 
ATOM      6  C   UNL     1      -4.561  16.642  23.681  0.00  0.00    +0.000 C 
ATOM      7  C   UNL     1      -3.961  16.700  25.057  0.00  0.00    +0.000 C 
ATOM      8  C   UNL     1      -2.904  17.810  25.054  0.00  0.00    +0.000 C 
ATOM      9  C   UNL     1      -2.351  18.175  23.649  0.00  0.00    +0.000 C 
ATOM     10  C   UNL     1      -2.527  17.060  22.612  0.00  0.00    +0.000 C 
ATOM     11  N   UNL     1      -1.608  16.856  21.717  0.00  0.00    +0.000 NA
ENDROOT
BRANCH   3  12
ATOM     12  C   UNL     1      -1.751  13.151  21.167  0.00  0.00    +0.000 C 
ATOM     13  O   UNL     1      -2.127  12.572  20.153  0.00  0.00    +0.000 OA
ATOM     14  N   UNL     1      -0.850  12.594  22.046  0.00  0.00    +0.000 N 
ATOM     15  C   UNL     1      -0.319  11.315  21.953  0.00  0.00    +0.000 A 
ATOM     16  C   UNL     1       0.248  10.819  20.792  0.00  0.00    +0.000 A 
ATOM     17  C   UNL     1       0.814   9.547  20.837  0.00  0.00    +0.000 A 
ATOM     18  C   UNL     1       0.749   8.809  22.017  0.00  0.00    +0.000 A 
ATOM     19  C   UNL     1       0.170   9.397  23.125  0.00  0.00    +0.000 A 
ATOM     20  N   UNL     1      -0.321  10.651  23.127  0.00  0.00    +0.000 NA
ATOM     21  H   UNL     1      -0.899  12.840  23.017  0.00  0.00    +0.000 HD
ENDBRANCH   3  12
BRANCH   4  22
ATOM     22  C   UNL     1      -4.507  13.927  22.364  0.00  0.00    +0.000 A 
ATOM     23  C   UNL     1      -5.307  13.926  21.234  0.00  0.00    +0.000 A 
ATOM     24  N   UNL     1      -6.206  12.926  21.413  0.00  0.00    +0.000 N 
ATOM     25  C   UNL     1      -7.093  12.393  20.411  0.00  0.00    +0.000 C 
ATOM     26  N   UNL     1      -6.128  12.335  22.623  0.00  0.00    +0.000 NA
ATOM     27  C   UNL     1      -5.091  12.943  23.211  0.00  0.00    +0.000 A 
ATOM     28  C   UNL     1      -4.622  12.499  24.550  0.00  0.00    +0.000 C 
ENDBRANCH   4  22
BRANCH   6  29
ATOM     29  O   UNL     1      -5.354  17.741  23.365  0.00  0.00    +0.000 OA
ATOM     30  H   UNL     1      -4.935  18.245  22.645  0.00  0.00    +0.000 HD
ENDBRANCH   6  29
TORSDOF 3
ENDMDL
MODEL 8
REMARK VINA RESULT:      -6.4      6.094     10.511
REMARK  Name = 
REMARK  6 active torsions:
REMARK  status: ('A' for Active; 'I' for Inactive)
REMARK    1  A    between atoms: C_1  and  C_2
REMARK    2  A    between atoms: C_3  and  C_4
REMARK    3  A    between atoms: C_13  and  C_14
REMARK    4  A    between atoms: N_16  and  C_17
REMARK    5  A    between atoms: C_19  and  C_20
REMARK    6  A    between atoms: C_22  and  O_23
REMARK                            x       y       z     vdW  Elec       q    Type
REMARK                         _______ _______ _______ _____ _____    ______ ____
ROOT
ATOM      1  C   UNL     1       8.771  16.967  18.182  0.00  0.00    +0.000 C 
ATOM      2  C   UNL     1       8.809  15.520  18.598  0.00  0.00    +0.000 C 
ATOM      3  C   UNL     1       8.020  14.921  19.529  0.00  0.00    +0.000 C 
ATOM      4  C   UNL     1       8.494  13.593  20.114  0.00  0.00    +0.000 C 
ATOM      5  C   UNL     1       9.935  13.286  19.760  0.00  0.00    +0.000 C 
ATOM      6  C   UNL     1      10.567  12.137  20.057  0.00  0.00    +0.000 C 
ATOM      7  C   UNL     1      10.098  10.953  19.260  0.00  0.00    +0.000 C 
ATOM      8  C   UNL     1      10.558  11.160  17.813  0.00  0.00    +0.000 C 
ATOM      9  C   UNL     1      10.852  12.636  17.430  0.00  0.00    +0.000 C 
ATOM     10  C   UNL     1      10.149  13.655  18.333  0.00  0.00    +0.000 C 
ATOM     11  N   UNL     1       9.691  14.762  17.829  0.00  0.00    +0.000 NA
ENDROOT
BRANCH   3  12
ATOM     12  C   UNL     1       6.651  15.460  19.907  0.00  0.00    +0.000 C 
ATOM     13  O   UNL     1       6.487  16.257  20.825  0.00  0.00    +0.000 OA
ATOM     14  N   UNL     1       5.614  15.017  19.118  0.00  0.00    +0.000 N 
ATOM     15  C   UNL     1       4.274  15.336  19.293  0.00  0.00    +0.000 A 
ATOM     16  C   UNL     1       3.826  16.636  19.448  0.00  0.00    +0.000 A 
ATOM     17  C   UNL     1       2.452  16.841  19.544  0.00  0.00    +0.000 A 
ATOM     18  C   UNL     1       1.591  15.746  19.529  0.00  0.00    +0.000 A 
ATOM     19  C   UNL     1       2.138  14.488  19.360  0.00  0.00    +0.000 A 
ATOM     20  N   UNL     1       3.456  14.269  19.195  0.00  0.00    +0.000 NA
ATOM     21  H   UNL     1       5.664  14.099  18.715  0.00  0.00    +0.000 HD
ENDBRANCH   3  12
BRANCH   4  22
ATOM     22  C   UNL     1       8.421  13.571  21.620  0.00  0.00    +0.000 A 
ATOM     23  C   UNL     1       7.754  12.664  22.425  0.00  0.00    +0.000 A 
ATOM     24  N   UNL     1       8.107  12.966  23.700  0.00  0.00    +0.000 N 
ATOM     25  C   UNL     1       7.849  12.158  24.865  0.00  0.00    +0.000 C 
ATOM     26  N   UNL     1       8.873  14.070  23.805  0.00  0.00    +0.000 NA
ATOM     27  C   UNL     1       9.069  14.447  22.536  0.00  0.00    +0.000 A 
ATOM     28  C   UNL     1       9.958  15.597  22.224  0.00  0.00    +0.000 C 
ENDBRANCH   4  22
BRANCH   6  29
ATOM     29  O   UNL     1      11.946  12.183  20.238  0.00  0.00    +0.000 OA
ATOM     30  H   UNL     1      12.379  11.640  19.555  0.00  0.00    +0.000 HD
ENDBRANCH   6  29
TORSDOF 3
ENDMDL
MODEL 9
REMARK VINA RESULT:      -6.3      3.002      4.754
REMARK  Name = 
REMARK  6 active torsions:
REMARK  status: ('A' for Active; 'I' for Inactive)
REMARK    1  A    between atoms: C_1  and  C_2
REMARK    2  A    between atoms: C_3  and  C_4
REMARK    3  A    between atoms: C_13  and  C_14
REMARK    4  A    between atoms: N_16  and  C_17
REMARK    5  A    between atoms: C_19  and  C_20
REMARK    6  A    between atoms: C_22  and  O_23
REMARK                            x       y       z     vdW  Elec       q    Type
REMARK                         _______ _______ _______ _____ _____    ______ ____
ROOT
ATOM      1  C   UNL     1      -6.072  13.516  22.762  0.00  0.00    +0.000 C 
ATOM      2  C   UNL     1      -4.669  14.032  22.573  0.00  0.00    +0.000 C 
ATOM      3  C   UNL     1      -3.694  13.474  21.808  0.00  0.00    +0.000 C 
ATOM      4  C   UNL     1      -2.250  13.883  22.087  0.00  0.00    +0.000 C 
ATOM      5  C   UNL     1      -2.107  14.651  23.385  0.00  0.00    +0.000 C 
ATOM      6  C   UNL     1      -0.966  15.218  23.816  0.00  0.00    +0.000 C 
ATOM      7  C   UNL     1      -0.546  16.428  23.031  0.00  0.00    +0.000 C 
ATOM      8  C   UNL     1      -1.547  17.547  23.335  0.00  0.00    +0.000 C 
ATOM      9  C   UNL     1      -2.926  17.060  23.857  0.00  0.00    +0.000 C 
ATOM     10  C   UNL     1      -3.245  15.608  23.484  0.00  0.00    +0.000 C 
ATOM     11  N   UNL     1      -4.463  15.267  23.188  0.00  0.00    +0.000 NA
ENDROOT
BRANCH   3  12
ATOM     12  C   UNL     1      -4.002  12.568  20.628  0.00  0.00    +0.000 C 
ATOM     13  O   UNL     1      -5.075  11.988  20.504  0.00  0.00    +0.000 OA
ATOM     14  N   UNL     1      -2.999  12.478  19.689  0.00  0.00    +0.000 N 
ATOM     15  C   UNL     1      -3.030  11.683  18.551  0.00  0.00    +0.000 A 
ATOM     16  C   UNL     1      -4.092  11.681  17.664  0.00  0.00    +0.000 A 
ATOM     17  C   UNL     1      -3.981  10.897  16.519  0.00  0.00    +0.000 A 
ATOM     18  C   UNL     1      -2.844  10.116  16.330  0.00  0.00    +0.000 A 
ATOM     19  C   UNL     1      -1.833  10.195  17.269  0.00  0.00    +0.000 A 
ATOM     20  N   UNL     1      -1.886  10.999  18.348  0.00  0.00    +0.000 NA
ATOM     21  H   UNL     1      -2.043  12.558  19.984  0.00  0.00    +0.000 HD
ENDBRANCH   3  12
BRANCH   4  22
ATOM     22  C   UNL     1      -1.330  12.695  22.202  0.00  0.00    +0.000 A 
ATOM     23  C   UNL     1      -1.499  11.562  22.980  0.00  0.00    +0.000 A 
ATOM     24  N   UNL     1      -0.496  10.716  22.632  0.00  0.00    +0.000 N 
ATOM     25  C   UNL     1      -0.391   9.328  23.002  0.00  0.00    +0.000 C 
ATOM     26  N   UNL     1       0.384  11.248  21.759  0.00  0.00    +0.000 NA
ATOM     27  C   UNL     1      -0.119  12.458  21.492  0.00  0.00    +0.000 A 
ATOM     28  C   UNL     1       0.531  13.335  20.483  0.00  0.00    +0.000 C 
ENDBRANCH   4  22
BRANCH   6  29
ATOM     29  O   UNL     1      -0.786  15.349  25.190  0.00  0.00    +0.000 OA
ATOM     30  H   UNL     1       0.059  14.938  25.445  0.00  0.00    +0.000 HD
ENDBRANCH   6  29
TORSDOF 3
ENDMDL
