MODEL 1
REMARK VINA RESULT:      -6.4      0.000      0.000
REMARK  Name = 
REMARK  4 active torsions:
REMARK  status: ('A' for Active; 'I' for Inactive)
REMARK    1  A    between atoms: N_1  and  C_2
REMARK    2  A    between atoms: C_2  and  C_3
REMARK    3  A    between atoms: C_4  and  O_5
REMARK    4  A    between atoms: C_6  and  C_7
REMARK                            x       y       z     vdW  Elec       q    Type
REMARK                         _______ _______ _______ _____ _____    ______ ____
ROOT
ATOM      1  C   UNL     1       3.741   3.929  18.777  0.00  0.00    +0.000 A 
ATOM      2  C   UNL     1       4.497   4.166  17.596  0.00  0.00    +0.000 A 
ATOM      3  C   UNL     1       4.532   5.460  17.025  0.00  0.00    +0.000 A 
ATOM      4  C   UNL     1       3.812   6.496  17.632  0.00  0.00    +0.000 A 
ATOM      5  C   UNL     1       3.065   6.276  18.786  0.00  0.00    +0.000 A 
ATOM      6 CL   UNL     1       2.186   7.635  19.482  0.00  0.00    +0.000 Cl
ATOM      7  C   UNL     1       3.020   5.000  19.366  0.00  0.00    +0.000 A 
ATOM      8 CL   UNL     1       2.057   4.782  20.836  0.00  0.00    +0.000 Cl
ENDROOT
BRANCH   3   9
ATOM      9  C   UNL     1       5.314   5.797  15.769  0.00  0.00    +0.000 C 
ATOM     10  F   UNL     1       5.153   4.867  14.760  0.00  0.00    +0.000 F 
ATOM     11  F   UNL     1       4.901   7.028  15.292  0.00  0.00    +0.000 F 
ATOM     12  F   UNL     1       6.661   5.867  16.078  0.00  0.00    +0.000 F 
ENDBRANCH   3   9
BRANCH   2  13
ATOM     13  O   UNL     1       5.185   3.165  16.997  0.00  0.00    +0.000 OA
ATOM     14  H   UNL     1       6.133   3.177  16.812  0.00  0.00    +0.000 HD
ENDBRANCH   2  13
BRANCH   1  15
ATOM     15  C   UNL     1       3.706   2.541  19.389  0.00  0.00    +0.000 C 
BRANCH  15  16
ATOM     16  N   UNL     1       5.028   2.158  19.874  0.00  0.00    +0.000 NA
ATOM     17  H   UNL     1       5.694   2.941  19.680  0.00  0.00    +0.000 HD
ATOM     18  H   UNL     1       5.356   1.316  19.346  0.00  0.00    +0.000 HD
ENDBRANCH  15  16
ENDBRANCH   1  15
TORSDOF 4
ENDMDL
MODEL 2
REMARK VINA RESULT:      -6.3      0.073      1.002
REMARK  Name = 
REMARK  4 active torsions:
REMARK  status: ('A' for Active; 'I' for Inactive)
REMARK    1  A    between atoms: N_1  and  C_2
REMARK    2  A    between atoms: C_2  and  C_3
REMARK    3  A    between atoms: C_4  and  O_5
REMARK    4  A    between atoms: C_6  and  C_7
REMARK                            x       y       z     vdW  Elec       q    Type
REMARK                         _______ _______ _______ _____ _____    ______ ____
ROOT
ATOM      1  C   UNL     1       3.745   3.956  18.845  0.00  0.00    +0.000 A 
ATOM      2  C   UNL     1       4.493   4.192  17.658  0.00  0.00    +0.000 A 
ATOM      3  C   UNL     1       4.513   5.482  17.078  0.00  0.00    +0.000 A 
ATOM      4  C   UNL     1       3.787   6.516  17.682  0.00  0.00    +0.000 A 
ATOM      5  C   UNL     1       3.048   6.297  18.841  0.00  0.00    +0.000 A 
ATOM      6 CL   UNL     1       2.160   7.653  19.531  0.00  0.00    +0.000 Cl
ATOM      7  C   UNL     1       3.017   5.025  19.430  0.00  0.00    +0.000 A 
ATOM      8 CL   UNL     1       2.063   4.808  20.906  0.00  0.00    +0.000 Cl
ENDROOT
BRANCH   3   9
ATOM      9  C   UNL     1       5.286   5.817  15.816  0.00  0.00    +0.000 C 
ATOM     10  F   UNL     1       4.917   7.023  15.252  0.00  0.00    +0.000 F 
ATOM     11  F   UNL     1       6.637   5.874  16.112  0.00  0.00    +0.000 F 
ATOM     12  F   UNL     1       5.077   4.822  14.877  0.00  0.00    +0.000 F 
ENDBRANCH   3   9
BRANCH   2  13
ATOM     13  O   UNL     1       5.187   3.193  17.062  0.00  0.00    +0.000 OA
ATOM     14  H   UNL     1       6.150   3.121  17.044  0.00  0.00    +0.000 HD
ENDBRANCH   2  13
BRANCH   1  15
ATOM     15  C   UNL     1       3.725   2.572  19.466  0.00  0.00    +0.000 C 
BRANCH  15  16
ATOM     16  N   UNL     1       5.058   2.194  19.924  0.00  0.00    +0.000 NA
ATOM     17  H   UNL     1       5.151   2.452  20.934  0.00  0.00    +0.000 HD
ATOM     18  H   UNL     1       5.772   2.738  19.386  0.00  0.00    +0.000 HD
ENDBRANCH  15  16
ENDBRANCH   1  15
TORSDOF 4
ENDMDL
MODEL 3
REMARK VINA RESULT:      -6.3      3.663      4.440
REMARK  Name = 
REMARK  4 active torsions:
REMARK  status: ('A' for Active; 'I' for Inactive)
REMARK    1  A    between atoms: N_1  and  C_2
REMARK    2  A    between atoms: C_2  and  C_3
REMARK    3  A    between atoms: C_4  and  O_5
REMARK    4  A    between atoms: C_6  and  C_7
REMARK                            x       y       z     vdW  Elec       q    Type
REMARK                         _______ _______ _______ _____ _____    ______ ____
ROOT
ATOM      1  C   UNL     1       4.839   4.601  18.052  0.00  0.00    +0.000 A 
ATOM      2  C   UNL     1       4.236   3.701  18.974  0.00  0.00    +0.000 A 
ATOM      3  C   UNL     1       2.993   4.023  19.568  0.00  0.00    +0.000 A 
ATOM      4  C   UNL     1       2.371   5.234  19.241  0.00  0.00    +0.000 A 
ATOM      5  C   UNL     1       2.953   6.125  18.343  0.00  0.00    +0.000 A 
ATOM      6 CL   UNL     1       2.104   7.628  17.993  0.00  0.00    +0.000 Cl
ATOM      7  C   UNL     1       4.184   5.822  17.744  0.00  0.00    +0.000 A 
ATOM      8 CL   UNL     1       4.873   6.992  16.607  0.00  0.00    +0.000 Cl
ENDROOT
BRANCH   3   9
ATOM      9  C   UNL     1       2.283   3.118  20.558  0.00  0.00    +0.000 C 
ATOM     10  F   UNL     1       3.070   2.767  21.638  0.00  0.00    +0.000 F 
ATOM     11  F   UNL     1       1.156   3.763  21.036  0.00  0.00    +0.000 F 
ATOM     12  F   UNL     1       1.893   1.957  19.914  0.00  0.00    +0.000 F 
ENDBRANCH   3   9
BRANCH   2  13
ATOM     13  O   UNL     1       4.839   2.534  19.304  0.00  0.00    +0.000 OA
ATOM     14  H   UNL     1       5.792   2.383  19.303  0.00  0.00    +0.000 HD
ENDBRANCH   2  13
BRANCH   1  15
ATOM     15  C   UNL     1       6.172   4.254  17.415  0.00  0.00    +0.000 C 
BRANCH  15  16
ATOM     16  N   UNL     1       7.249   4.339  18.396  0.00  0.00    +0.000 NA
ATOM     17  H   UNL     1       6.871   4.770  19.271  0.00  0.00    +0.000 HD
ATOM     18  H   UNL     1       8.001   4.966  18.027  0.00  0.00    +0.000 HD
ENDBRANCH  15  16
ENDBRANCH   1  15
TORSDOF 4
ENDMDL
MODEL 4
REMARK VINA RESULT:      -6.3      1.785      2.220
REMARK  Name = 
REMARK  4 active torsions:
REMARK  status: ('A' for Active; 'I' for Inactive)
REMARK    1  A    between atoms: N_1  and  C_2
REMARK    2  A    between atoms: C_2  and  C_3
REMARK    3  A    between atoms: C_4  and  O_5
REMARK    4  A    between atoms: C_6  and  C_7
REMARK                            x       y       z     vdW  Elec       q    Type
REMARK                         _______ _______ _______ _____ _____    ______ ____
ROOT
ATOM      1  C   UNL     1       4.340   4.289  18.275  0.00  0.00    +0.000 A 
ATOM      2  C   UNL     1       5.650   4.801  18.064  0.00  0.00    +0.000 A 
ATOM      3  C   UNL     1       5.837   6.174  17.777  0.00  0.00    +0.000 A 
ATOM      4  C   UNL     1       4.721   7.015  17.700  0.00  0.00    +0.000 A 
ATOM      5  C   UNL     1       3.433   6.526  17.901  0.00  0.00    +0.000 A 
ATOM      6 CL   UNL     1       2.086   7.655  17.781  0.00  0.00    +0.000 Cl
ATOM      7  C   UNL     1       3.229   5.169  18.187  0.00  0.00    +0.000 A 
ATOM      8 CL   UNL     1       1.569   4.606  18.437  0.00  0.00    +0.000 Cl
ENDROOT
BRANCH   3   9
ATOM      9  C   UNL     1       7.200   6.798  17.542  0.00  0.00    +0.000 C 
ATOM     10  F   UNL     1       8.100   6.546  18.560  0.00  0.00    +0.000 F 
ATOM     11  F   UNL     1       7.731   6.299  16.365  0.00  0.00    +0.000 F 
ATOM     12  F   UNL     1       7.058   8.169  17.422  0.00  0.00    +0.000 F 
ENDBRANCH   3   9
BRANCH   2  13
ATOM     13  O   UNL     1       6.733   3.989  18.124  0.00  0.00    +0.000 OA
ATOM     14  H   UNL     1       6.879   3.308  18.793  0.00  0.00    +0.000 HD
ENDBRANCH   2  13
BRANCH   1  15
ATOM     15  C   UNL     1       4.141   2.817  18.583  0.00  0.00    +0.000 C 
BRANCH  15  16
ATOM     16  N   UNL     1       4.933   2.422  19.743  0.00  0.00    +0.000 NA
ATOM     17  H   UNL     1       4.480   2.806  20.604  0.00  0.00    +0.000 HD
ATOM     18  H   UNL     1       5.888   2.843  19.666  0.00  0.00    +0.000 HD
ENDBRANCH  15  16
ENDBRANCH   1  15
TORSDOF 4
ENDMDL
MODEL 5
REMARK VINA RESULT:      -6.3      1.783      2.236
REMARK  Name = 
REMARK  4 active torsions:
REMARK  status: ('A' for Active; 'I' for Inactive)
REMARK    1  A    between atoms: N_1  and  C_2
REMARK    2  A    between atoms: C_2  and  C_3
REMARK    3  A    between atoms: C_4  and  O_5
REMARK    4  A    between atoms: C_6  and  C_7
REMARK                            x       y       z     vdW  Elec       q    Type
REMARK                         _______ _______ _______ _____ _____    ______ ____
ROOT
ATOM      1  C   UNL     1       4.357   4.291  18.252  0.00  0.00    +0.000 A 
ATOM      2  C   UNL     1       5.664   4.807  18.031  0.00  0.00    +0.000 A 
ATOM      3  C   UNL     1       5.845   6.183  17.753  0.00  0.00    +0.000 A 
ATOM      4  C   UNL     1       4.726   7.022  17.694  0.00  0.00    +0.000 A 
ATOM      5  C   UNL     1       3.442   6.528  17.904  0.00  0.00    +0.000 A 
ATOM      6 CL   UNL     1       2.091   7.654  17.807  0.00  0.00    +0.000 Cl
ATOM      7  C   UNL     1       3.244   5.169  18.182  0.00  0.00    +0.000 A 
ATOM      8 CL   UNL     1       1.587   4.599  18.446  0.00  0.00    +0.000 Cl
ENDROOT
BRANCH   3   9
ATOM      9  C   UNL     1       7.204   6.812  17.507  0.00  0.00    +0.000 C 
ATOM     10  F   UNL     1       7.153   8.185  17.367  0.00  0.00    +0.000 F 
ATOM     11  F   UNL     1       8.039   6.518  18.570  0.00  0.00    +0.000 F 
ATOM     12  F   UNL     1       7.748   6.281  16.351  0.00  0.00    +0.000 F 
ENDBRANCH   3   9
BRANCH   2  13
ATOM     13  O   UNL     1       6.749   3.998  18.075  0.00  0.00    +0.000 OA
ATOM     14  H   UNL     1       6.966   3.399  18.800  0.00  0.00    +0.000 HD
ENDBRANCH   2  13
BRANCH   1  15
ATOM     15  C   UNL     1       4.165   2.816  18.552  0.00  0.00    +0.000 C 
BRANCH  15  16
ATOM     16  N   UNL     1       4.936   2.424  19.728  0.00  0.00    +0.000 NA
ATOM     17  H   UNL     1       5.707   3.117  19.867  0.00  0.00    +0.000 HD
ATOM     18  H   UNL     1       5.370   1.488  19.557  0.00  0.00    +0.000 HD
ENDBRANCH  15  16
ENDBRANCH   1  15
TORSDOF 4
ENDMDL
MODEL 6
REMARK VINA RESULT:      -6.2      3.595      4.365
REMARK  Name = 
REMARK  4 active torsions:
REMARK  status: ('A' for Active; 'I' for Inactive)
REMARK    1  A    between atoms: N_1  and  C_2
REMARK    2  A    between atoms: C_2  and  C_3
REMARK    3  A    between atoms: C_4  and  O_5
REMARK    4  A    between atoms: C_6  and  C_7
REMARK                            x       y       z     vdW  Elec       q    Type
REMARK                         _______ _______ _______ _____ _____    ______ ____
ROOT
ATOM      1  C   UNL     1       4.348   4.292  17.165  0.00  0.00    +0.000 A 
ATOM      2  C   UNL     1       3.543   3.341  17.851  0.00  0.00    +0.000 A 
ATOM      3  C   UNL     1       2.424   3.771  18.603  0.00  0.00    +0.000 A 
ATOM      4  C   UNL     1       2.125   5.137  18.665  0.00  0.00    +0.000 A 
ATOM      5  C   UNL     1       2.908   6.078  18.001  0.00  0.00    +0.000 A 
ATOM      6 CL   UNL     1       2.462   7.777  18.136  0.00  0.00    +0.000 Cl
ATOM      7  C   UNL     1       4.020   5.670  17.251  0.00  0.00    +0.000 A 
ATOM      8 CL   UNL     1       4.975   6.912  16.424  0.00  0.00    +0.000 Cl
ENDROOT
BRANCH   3   9
ATOM      9  C   UNL     1       1.515   2.822  19.361  0.00  0.00    +0.000 C 
ATOM     10  F   UNL     1       0.892   1.895  18.547  0.00  0.00    +0.000 F 
ATOM     11  F   UNL     1       2.259   2.136  20.305  0.00  0.00    +0.000 F 
ATOM     12  F   UNL     1       0.535   3.552  20.010  0.00  0.00    +0.000 F 
ENDBRANCH   3   9
BRANCH   2  13
ATOM     13  O   UNL     1       3.835   2.019  17.806  0.00  0.00    +0.000 OA
ATOM     14  H   UNL     1       4.710   1.639  17.953  0.00  0.00    +0.000 HD
ENDBRANCH   2  13
BRANCH   1  15
ATOM     15  C   UNL     1       5.548   3.829  16.359  0.00  0.00    +0.000 C 
BRANCH  15  16
ATOM     16  N   UNL     1       6.787   4.086  17.086  0.00  0.00    +0.000 NA
ATOM     17  H   UNL     1       7.431   3.274  16.947  0.00  0.00    +0.000 HD
ATOM     18  H   UNL     1       6.576   4.158  18.108  0.00  0.00    +0.000 HD
ENDBRANCH  15  16
ENDBRANCH   1  15
TORSDOF 4
ENDMDL
MODEL 7
REMARK VINA RESULT:      -6.2      3.671      4.427
REMARK  Name = 
REMARK  4 active torsions:
REMARK  status: ('A' for Active; 'I' for Inactive)
REMARK    1  A    between atoms: N_1  and  C_2
REMARK    2  A    between atoms: C_2  and  C_3
REMARK    3  A    between atoms: C_4  and  O_5
REMARK    4  A    between atoms: C_6  and  C_7
REMARK                            x       y       z     vdW  Elec       q    Type
REMARK                         _______ _______ _______ _____ _____    ______ ____
ROOT
ATOM      1  C   UNL     1       4.614   4.564  17.886  0.00  0.00    +0.000 A 
ATOM      2  C   UNL     1       3.973   3.678  18.795  0.00  0.00    +0.000 A 
ATOM      3  C   UNL     1       2.770   4.065  19.432  0.00  0.00    +0.000 A 
ATOM      4  C   UNL     1       2.226   5.326  19.159  0.00  0.00    +0.000 A 
ATOM      5  C   UNL     1       2.847   6.204  18.274  0.00  0.00    +0.000 A 
ATOM      6 CL   UNL     1       2.096   7.772  17.993  0.00  0.00    +0.000 Cl
ATOM      7  C   UNL     1       4.038   5.837  17.634  0.00  0.00    +0.000 A 
ATOM      8 CL   UNL     1       4.779   6.993  16.515  0.00  0.00    +0.000 Cl
ENDROOT
BRANCH   3   9
ATOM      9  C   UNL     1       2.023   3.180  20.412  0.00  0.00    +0.000 C 
ATOM     10  F   UNL     1       1.702   1.940  19.892  0.00  0.00    +0.000 F 
ATOM     11  F   UNL     1       2.805   2.987  21.537  0.00  0.00    +0.000 F 
ATOM     12  F   UNL     1       0.848   3.806  20.787  0.00  0.00    +0.000 F 
ENDBRANCH   3   9
BRANCH   2  13
ATOM     13  O   UNL     1       4.501   2.462  19.072  0.00  0.00    +0.000 OA
ATOM     14  H   UNL     1       5.357   2.144  18.759  0.00  0.00    +0.000 HD
ENDBRANCH   2  13
BRANCH   1  15
ATOM     15  C   UNL     1       5.904   4.147  17.203  0.00  0.00    +0.000 C 
BRANCH  15  16
ATOM     16  N   UNL     1       7.027   4.226  18.132  0.00  0.00    +0.000 NA
ATOM     17  H   UNL     1       7.917   4.224  17.581  0.00  0.00    +0.000 HD
ATOM     18  H   UNL     1       7.025   3.378  18.745  0.00  0.00    +0.000 HD
ENDBRANCH  15  16
ENDBRANCH   1  15
TORSDOF 4
ENDMDL
MODEL 8
REMARK VINA RESULT:      -6.2      0.317      1.017
REMARK  Name = 
REMARK  4 active torsions:
REMARK  status: ('A' for Active; 'I' for Inactive)
REMARK    1  A    between atoms: N_1  and  C_2
REMARK    2  A    between atoms: C_2  and  C_3
REMARK    3  A    between atoms: C_4  and  O_5
REMARK    4  A    between atoms: C_6  and  C_7
REMARK                            x       y       z     vdW  Elec       q    Type
REMARK                         _______ _______ _______ _____ _____    ______ ____
ROOT
ATOM      1  C   UNL     1       3.771   3.816  19.021  0.00  0.00    +0.000 A 
ATOM      2  C   UNL     1       4.504   4.106  17.837  0.00  0.00    +0.000 A 
ATOM      3  C   UNL     1       4.519   5.423  17.318  0.00  0.00    +0.000 A 
ATOM      4  C   UNL     1       3.804   6.428  17.981  0.00  0.00    +0.000 A 
ATOM      5  C   UNL     1       3.080   6.155  19.138  0.00  0.00    +0.000 A 
ATOM      6 CL   UNL     1       2.206   7.479  19.904  0.00  0.00    +0.000 Cl
ATOM      7  C   UNL     1       3.055   4.857  19.667  0.00  0.00    +0.000 A 
ATOM      8 CL   UNL     1       2.120   4.572  21.144  0.00  0.00    +0.000 Cl
ENDROOT
BRANCH   3   9
ATOM      9  C   UNL     1       5.276   5.815  16.063  0.00  0.00    +0.000 C 
ATOM     10  F   UNL     1       6.649   5.785  16.221  0.00  0.00    +0.000 F 
ATOM     11  F   UNL     1       4.941   4.947  15.040  0.00  0.00    +0.000 F 
ATOM     12  F   UNL     1       4.913   7.099  15.696  0.00  0.00    +0.000 F 
ENDBRANCH   3   9
BRANCH   2  13
ATOM     13  O   UNL     1       5.187   3.135  17.185  0.00  0.00    +0.000 OA
ATOM     14  H   UNL     1       5.784   2.502  17.601  0.00  0.00    +0.000 HD
ENDBRANCH   2  13
BRANCH   1  15
ATOM     15  C   UNL     1       3.756   2.403  19.576  0.00  0.00    +0.000 C 
BRANCH  15  16
ATOM     16  N   UNL     1       5.079   2.030  20.068  0.00  0.00    +0.000 NA
ATOM     17  H   UNL     1       5.496   2.852  20.562  0.00  0.00    +0.000 HD
ATOM     18  H   UNL     1       5.693   1.795  19.255  0.00  0.00    +0.000 HD
ENDBRANCH  15  16
ENDBRANCH   1  15
TORSDOF 4
ENDMDL
MODEL 9
REMARK VINA RESULT:      -6.2      3.647      4.423
REMARK  Name = 
REMARK  4 active torsions:
REMARK  status: ('A' for Active; 'I' for Inactive)
REMARK    1  A    between atoms: N_1  and  C_2
REMARK    2  A    between atoms: C_2  and  C_3
REMARK    3  A    between atoms: C_4  and  O_5
REMARK    4  A    between atoms: C_6  and  C_7
REMARK                            x       y       z     vdW  Elec       q    Type
REMARK                         _______ _______ _______ _____ _____    ______ ____
ROOT
ATOM      1  C   UNL     1       4.650   4.566  17.918  0.00  0.00    +0.000 A 
ATOM      2  C   UNL     1       4.022   3.671  18.827  0.00  0.00    +0.000 A 
ATOM      3  C   UNL     1       2.811   4.039  19.460  0.00  0.00    +0.000 A 
ATOM      4  C   UNL     1       2.246   5.290  19.184  0.00  0.00    +0.000 A 
ATOM      5  C   UNL     1       2.854   6.176  18.299  0.00  0.00    +0.000 A 
ATOM      6 CL   UNL     1       2.077   7.731  18.013  0.00  0.00    +0.000 Cl
ATOM      7  C   UNL     1       4.054   5.828  17.662  0.00  0.00    +0.000 A 
ATOM      8 CL   UNL     1       4.778   6.994  16.543  0.00  0.00    +0.000 Cl
ENDROOT
BRANCH   3   9
ATOM      9  C   UNL     1       2.077   3.143  20.440  0.00  0.00    +0.000 C 
ATOM     10  F   UNL     1       0.906   3.699  20.918  0.00  0.00    +0.000 F 
ATOM     11  F   UNL     1       1.763   1.948  19.816  0.00  0.00    +0.000 F 
ATOM     12  F   UNL     1       2.900   2.879  21.520  0.00  0.00    +0.000 F 
ENDBRANCH   3   9
BRANCH   2  13
ATOM     13  O   UNL     1       4.569   2.464  19.108  0.00  0.00    +0.000 OA
ATOM     14  H   UNL     1       4.663   2.091  19.993  0.00  0.00    +0.000 HD
ENDBRANCH   2  13
BRANCH   1  15
ATOM     15  C   UNL     1       5.949   4.169  17.239  0.00  0.00    +0.000 C 
BRANCH  15  16
ATOM     16  N   UNL     1       7.062   4.234  18.181  0.00  0.00    +0.000 NA
ATOM     17  H   UNL     1       7.234   5.236  18.426  0.00  0.00    +0.000 HD
ATOM     18  H   UNL     1       7.924   3.863  17.718  0.00  0.00    +0.000 HD
ENDBRANCH  15  16
ENDBRANCH   1  15
TORSDOF 4
ENDMDL
