MODEL 1
REMARK VINA RESULT:      -7.6      0.000      0.000
REMARK  Name = 
REMARK  9 active torsions:
REMARK  status: ('A' for Active; 'I' for Inactive)
REMARK    1  A    between atoms: C_1  and  C_2
REMARK    2  A    between atoms: C_2  and  C_3
REMARK    3  A    between atoms: C_3  and  N_4
REMARK    4  A    between atoms: N_4  and  C_5
REMARK    5  A    between atoms: N_4  and  C_21
REMARK    6  A    between atoms: C_5  and  C_6
REMARK    7  A    between atoms: C_6  and  N_7
REMARK    8  A    between atoms: N_10  and  C_11
REMARK    9  A    between atoms: C_27  and  O_28
REMARK                            x       y       z     vdW  Elec       q    Type
REMARK                         _______ _______ _______ _____ _____    ______ ____
ROOT
ATOM      1  N   UNL     1       2.485   4.077  18.546  0.00  0.00    +0.000 NA
ENDROOT
BRANCH   1   2
ATOM      2  C   UNL     1       3.637   3.131  18.636  0.00  0.00    +0.000 C 
ATOM      3  C   UNL     1       4.108   2.625  17.252  0.00  0.00    +0.000 C 
ATOM      4  C   UNL     1       4.574   3.783  16.368  0.00  0.00    +0.000 C 
ATOM      5  C   UNL     1       5.564   4.683  17.065  0.00  0.00    +0.000 A 
ATOM      6  C   UNL     1       6.321   5.587  16.304  0.00  0.00    +0.000 A 
ATOM      7  C   UNL     1       7.261   6.418  16.913  0.00  0.00    +0.000 A 
ATOM      8  C   UNL     1       7.442   6.347  18.290  0.00  0.00    +0.000 A 
ATOM      9  C   UNL     1       6.679   5.480  19.064  0.00  0.00    +0.000 A 
ATOM     10  C   UNL     1       5.717   4.654  18.464  0.00  0.00    +0.000 A 
ATOM     11  C   UNL     1       4.922   3.692  19.321  0.00  0.00    +0.000 C 
BRANCH   8  12
ATOM     12  O   UNL     1       8.372   7.117  18.922  0.00  0.00    +0.000 OA
ATOM     13  H   UNL     1       7.923   7.647  19.600  0.00  0.00    +0.000 HD
ENDBRANCH   8  12
ENDBRANCH   1   2
BRANCH   1  14
ATOM     14  C   UNL     1       1.231   3.511  19.077  0.00  0.00    +0.000 C 
BRANCH  14  16
ATOM     15  C   UNL     1       1.444   2.773  21.529  0.00  0.00    +0.000 C 
ATOM     16  C   UNL     1       0.897   3.808  20.551  0.00  0.00    +0.000 C 
ENDBRANCH  14  16
ENDBRANCH   1  14
BRANCH   1  17
ATOM     17  C   UNL     1       2.776   5.435  19.045  0.00  0.00    +0.000 C 
BRANCH  17  18
ATOM     18  C   UNL     1       2.136   6.656  18.320  0.00  0.00    +0.000 C 
BRANCH  18  19
ATOM     19  N   UNL     1       2.588   7.942  18.890  0.00  0.00    +0.000 NA
ATOM     20  C   UNL     1       2.216   9.125  18.080  0.00  0.00    +0.000 C 
ATOM     21  C   UNL     1       0.723   9.530  18.117  0.00  0.00    +0.000 C 
ATOM     22  N   UNL     1       0.260   9.673  19.509  0.00  0.00    +0.000 N 
ATOM     23  C   UNL     1       0.580   8.520  20.376  0.00  0.00    +0.000 C 
ATOM     24  C   UNL     1       2.083   8.153  20.265  0.00  0.00    +0.000 C 
BRANCH  22  25
ATOM     25  C   UNL     1      -0.644  10.650  19.914  0.00  0.00    +0.000 A 
ATOM     26  C   UNL     1      -1.410  11.284  18.904  0.00  0.00    +0.000 A 
ATOM     27  C   UNL     1      -2.370  12.265  19.167  0.00  0.00    +0.000 A 
ATOM     28  C   UNL     1      -2.641  12.628  20.472  0.00  0.00    +0.000 A 
ATOM     29  C   UNL     1      -1.928  12.021  21.512  0.00  0.00    +0.000 A 
ATOM     30 CL   UNL     1      -2.363  12.517  23.117  0.00  0.00    +0.000 Cl
ATOM     31  C   UNL     1      -0.920  11.068  21.250  0.00  0.00    +0.000 A 
ATOM     32 CL   UNL     1       0.013  10.489  22.602  0.00  0.00    +0.000 Cl
ENDBRANCH  22  25
ENDBRANCH  18  19
ENDBRANCH  17  18
ENDBRANCH   1  17
TORSDOF 8
ENDMDL
MODEL 2
REMARK VINA RESULT:      -7.6      1.434      1.628
REMARK  Name = 
REMARK  9 active torsions:
REMARK  status: ('A' for Active; 'I' for Inactive)
REMARK    1  A    between atoms: C_1  and  C_2
REMARK    2  A    between atoms: C_2  and  C_3
REMARK    3  A    between atoms: C_3  and  N_4
REMARK    4  A    between atoms: N_4  and  C_5
REMARK    5  A    between atoms: N_4  and  C_21
REMARK    6  A    between atoms: C_5  and  C_6
REMARK    7  A    between atoms: C_6  and  N_7
REMARK    8  A    between atoms: N_10  and  C_11
REMARK    9  A    between atoms: C_27  and  O_28
REMARK                            x       y       z     vdW  Elec       q    Type
REMARK                         _______ _______ _______ _____ _____    ______ ____
ROOT
ATOM      1  N   UNL     1       2.586   4.392  18.201  0.00  0.00    +0.000 NA
ENDROOT
BRANCH   1   2
ATOM      2  C   UNL     1       3.703   3.427  18.422  0.00  0.00    +0.000 C 
ATOM      3  C   UNL     1       4.283   2.868  17.101  0.00  0.00    +0.000 C 
ATOM      4  C   UNL     1       4.853   3.988  16.228  0.00  0.00    +0.000 C 
ATOM      5  C   UNL     1       5.798   4.888  16.985  0.00  0.00    +0.000 A 
ATOM      6  C   UNL     1       6.641   5.752  16.269  0.00  0.00    +0.000 A 
ATOM      7  C   UNL     1       7.542   6.582  16.935  0.00  0.00    +0.000 A 
ATOM      8  C   UNL     1       7.598   6.550  18.323  0.00  0.00    +0.000 A 
ATOM      9  C   UNL     1       6.750   5.723  19.052  0.00  0.00    +0.000 A 
ATOM     10  C   UNL     1       5.826   4.900  18.392  0.00  0.00    +0.000 A 
ATOM     11  C   UNL     1       4.935   3.981  19.202  0.00  0.00    +0.000 C 
BRANCH   8  12
ATOM     12  O   UNL     1       8.487   7.320  19.013  0.00  0.00    +0.000 OA
ATOM     13  H   UNL     1       9.249   7.498  18.439  0.00  0.00    +0.000 HD
ENDBRANCH   8  12
ENDBRANCH   1   2
BRANCH   1  14
ATOM     14  C   UNL     1       1.258   3.813  18.478  0.00  0.00    +0.000 C 
BRANCH  14  16
ATOM     15  C   UNL     1       1.226   3.080  20.940  0.00  0.00    +0.000 C 
ATOM     16  C   UNL     1       1.197   2.644  19.478  0.00  0.00    +0.000 C 
ENDBRANCH  14  16
ENDBRANCH   1  14
BRANCH   1  17
ATOM     17  C   UNL     1       2.795   5.712  18.828  0.00  0.00    +0.000 C 
BRANCH  17  18
ATOM     18  C   UNL     1       2.052   6.949  18.241  0.00  0.00    +0.000 C 
BRANCH  18  19
ATOM     19  N   UNL     1       2.420   8.201  18.935  0.00  0.00    +0.000 NA
ATOM     20  C   UNL     1       2.179   9.426  18.138  0.00  0.00    +0.000 C 
ATOM     21  C   UNL     1       0.699   9.847  17.971  0.00  0.00    +0.000 C 
ATOM     22  N   UNL     1       0.033   9.929  19.284  0.00  0.00    +0.000 N 
ATOM     23  C   UNL     1       0.214   8.732  20.130  0.00  0.00    +0.000 C 
ATOM     24  C   UNL     1       1.715   8.352  20.228  0.00  0.00    +0.000 C 
BRANCH  22  25
ATOM     25  C   UNL     1      -0.916  10.897  19.597  0.00  0.00    +0.000 A 
ATOM     26  C   UNL     1      -0.550  11.879  20.550  0.00  0.00    +0.000 A 
ATOM     27  C   UNL     1      -1.392  12.922  20.944  0.00  0.00    +0.000 A 
ATOM     28  C   UNL     1      -2.637  13.057  20.360  0.00  0.00    +0.000 A 
ATOM     29  C   UNL     1      -3.045  12.127  19.398  0.00  0.00    +0.000 A 
ATOM     30 CL   UNL     1      -4.607  12.398  18.697  0.00  0.00    +0.000 Cl
ATOM     31  C   UNL     1      -2.219  11.040  19.035  0.00  0.00    +0.000 A 
ATOM     32 CL   UNL     1      -2.882   9.854  17.944  0.00  0.00    +0.000 Cl
ENDBRANCH  22  25
ENDBRANCH  18  19
ENDBRANCH  17  18
ENDBRANCH   1  17
TORSDOF 8
ENDMDL
MODEL 3
REMARK VINA RESULT:      -7.5      2.748      3.277
REMARK  Name = 
REMARK  9 active torsions:
REMARK  status: ('A' for Active; 'I' for Inactive)
REMARK    1  A    between atoms: C_1  and  C_2
REMARK    2  A    between atoms: C_2  and  C_3
REMARK    3  A    between atoms: C_3  and  N_4
REMARK    4  A    between atoms: N_4  and  C_5
REMARK    5  A    between atoms: N_4  and  C_21
REMARK    6  A    between atoms: C_5  and  C_6
REMARK    7  A    between atoms: C_6  and  N_7
REMARK    8  A    between atoms: N_10  and  C_11
REMARK    9  A    between atoms: C_27  and  O_28
REMARK                            x       y       z     vdW  Elec       q    Type
REMARK                         _______ _______ _______ _____ _____    ______ ____
ROOT
ATOM      1  N   UNL     1       2.827   5.541  18.801  0.00  0.00    +0.000 NA
ENDROOT
BRANCH   1   2
ATOM      2  C   UNL     1       4.083   4.930  19.328  0.00  0.00    +0.000 C 
ATOM      3  C   UNL     1       4.119   3.392  19.158  0.00  0.00    +0.000 C 
ATOM      4  C   UNL     1       4.036   2.995  17.684  0.00  0.00    +0.000 C 
ATOM      5  C   UNL     1       5.036   3.734  16.827  0.00  0.00    +0.000 A 
ATOM      6  C   UNL     1       5.308   3.263  15.534  0.00  0.00    +0.000 A 
ATOM      7  C   UNL     1       6.241   3.908  14.723  0.00  0.00    +0.000 A 
ATOM      8  C   UNL     1       6.903   5.030  15.208  0.00  0.00    +0.000 A 
ATOM      9  C   UNL     1       6.624   5.530  16.475  0.00  0.00    +0.000 A 
ATOM     10  C   UNL     1       5.672   4.901  17.290  0.00  0.00    +0.000 A 
ATOM     11  C   UNL     1       5.408   5.439  18.680  0.00  0.00    +0.000 C 
BRANCH   8  12
ATOM     12  O   UNL     1       7.847   5.672  14.462  0.00  0.00    +0.000 OA
ATOM     13  H   UNL     1       8.721   5.336  14.718  0.00  0.00    +0.000 HD
ENDBRANCH   8  12
ENDBRANCH   1   2
BRANCH   1  14
ATOM     14  C   UNL     1       1.621   5.103  19.530  0.00  0.00    +0.000 C 
BRANCH  14  16
ATOM     15  C   UNL     1       1.286   3.178  21.199  0.00  0.00    +0.000 C 
ATOM     16  C   UNL     1       1.819   4.589  20.968  0.00  0.00    +0.000 C 
ENDBRANCH  14  16
ENDBRANCH   1  14
BRANCH   1  17
ATOM     17  C   UNL     1       2.899   7.003  18.611  0.00  0.00    +0.000 C 
BRANCH  17  18
ATOM     18  C   UNL     1       2.152   7.930  19.615  0.00  0.00    +0.000 C 
BRANCH  18  19
ATOM     19  N   UNL     1       1.045   8.671  18.973  0.00  0.00    +0.000 NA
ATOM     20  C   UNL     1       0.331   9.597  19.882  0.00  0.00    +0.000 C 
ATOM     21  C   UNL     1       1.092  10.888  20.269  0.00  0.00    +0.000 C 
ATOM     22  N   UNL     1       1.567  11.590  19.063  0.00  0.00    +0.000 N 
ATOM     23  C   UNL     1       2.307  10.732  18.115  0.00  0.00    +0.000 C 
ATOM     24  C   UNL     1       1.500   9.445  17.796  0.00  0.00    +0.000 C 
BRANCH  22  25
ATOM     25  C   UNL     1       1.586  12.976  18.946  0.00  0.00    +0.000 A 
ATOM     26  C   UNL     1       2.837  13.587  18.679  0.00  0.00    +0.000 A 
ATOM     27  C   UNL     1       3.002  14.965  18.515  0.00  0.00    +0.000 A 
ATOM     28  C   UNL     1       1.902  15.799  18.566  0.00  0.00    +0.000 A 
ATOM     29  C   UNL     1       0.638  15.249  18.808  0.00  0.00    +0.000 A 
ATOM     30 CL   UNL     1      -0.685  16.369  18.820  0.00  0.00    +0.000 Cl
ATOM     31  C   UNL     1       0.473  13.863  19.027  0.00  0.00    +0.000 A 
ATOM     32 CL   UNL     1      -1.115  13.302  19.473  0.00  0.00    +0.000 Cl
ENDBRANCH  22  25
ENDBRANCH  18  19
ENDBRANCH  17  18
ENDBRANCH   1  17
TORSDOF 8
ENDMDL
MODEL 4
REMARK VINA RESULT:      -7.4      2.090      2.772
REMARK  Name = 
REMARK  9 active torsions:
REMARK  status: ('A' for Active; 'I' for Inactive)
REMARK    1  A    between atoms: C_1  and  C_2
REMARK    2  A    between atoms: C_2  and  C_3
REMARK    3  A    between atoms: C_3  and  N_4
REMARK    4  A    between atoms: N_4  and  C_5
REMARK    5  A    between atoms: N_4  and  C_21
REMARK    6  A    between atoms: C_5  and  C_6
REMARK    7  A    between atoms: C_6  and  N_7
REMARK    8  A    between atoms: N_10  and  C_11
REMARK    9  A    between atoms: C_27  and  O_28
REMARK                            x       y       z     vdW  Elec       q    Type
REMARK                         _______ _______ _______ _____ _____    ______ ____
ROOT
ATOM      1  N   UNL     1       2.848   5.647  19.149  0.00  0.00    +0.000 NA
ENDROOT
BRANCH   1   2
ATOM      2  C   UNL     1       4.175   5.143  19.612  0.00  0.00    +0.000 C 
ATOM      3  C   UNL     1       4.287   3.601  19.546  0.00  0.00    +0.000 C 
ATOM      4  C   UNL     1       4.114   3.094  18.113  0.00  0.00    +0.000 C 
ATOM      5  C   UNL     1       5.000   3.821  17.130  0.00  0.00    +0.000 A 
ATOM      6  C   UNL     1       5.199   3.273  15.854  0.00  0.00    +0.000 A 
ATOM      7  C   UNL     1       6.028   3.906  14.928  0.00  0.00    +0.000 A 
ATOM      8  C   UNL     1       6.658   5.094  15.280  0.00  0.00    +0.000 A 
ATOM      9  C   UNL     1       6.449   5.669  16.529  0.00  0.00    +0.000 A 
ATOM     10  C   UNL     1       5.601   5.050  17.460  0.00  0.00    +0.000 A 
ATOM     11  C   UNL     1       5.414   5.673  18.827  0.00  0.00    +0.000 C 
BRANCH   8  12
ATOM     12  O   UNL     1       7.503   5.730  14.419  0.00  0.00    +0.000 OA
ATOM     13  H   UNL     1       7.593   6.653  14.703  0.00  0.00    +0.000 HD
ENDBRANCH   8  12
ENDBRANCH   1   2
BRANCH   1  14
ATOM     14  C   UNL     1       1.730   5.201  20.002  0.00  0.00    +0.000 C 
BRANCH  14  16
ATOM     15  C   UNL     1       1.048   2.865  20.827  0.00  0.00    +0.000 C 
ATOM     16  C   UNL     1       1.082   3.847  19.659  0.00  0.00    +0.000 C 
ENDBRANCH  14  16
ENDBRANCH   1  14
BRANCH   1  17
ATOM     17  C   UNL     1       2.820   7.092  18.851  0.00  0.00    +0.000 C 
BRANCH  17  18
ATOM     18  C   UNL     1       2.003   8.036  19.783  0.00  0.00    +0.000 C 
BRANCH  18  19
ATOM     19  N   UNL     1       1.920   9.412  19.248  0.00  0.00    +0.000 NA
ATOM     20  C   UNL     1       1.566   9.480  17.812  0.00  0.00    +0.000 C 
ATOM     21  C   UNL     1       0.094   9.157  17.459  0.00  0.00    +0.000 C 
ATOM     22  N   UNL     1      -0.824   9.976  18.271  0.00  0.00    +0.000 N 
ATOM     23  C   UNL     1      -0.544   9.943  19.721  0.00  0.00    +0.000 C 
ATOM     24  C   UNL     1       0.953  10.245  19.997  0.00  0.00    +0.000 C 
BRANCH  22  25
ATOM     25  C   UNL     1      -2.016  10.498  17.779  0.00  0.00    +0.000 A 
ATOM     26  C   UNL     1      -2.411  10.098  16.479  0.00  0.00    +0.000 A 
ATOM     27  C   UNL     1      -3.593  10.524  15.867  0.00  0.00    +0.000 A 
ATOM     28  C   UNL     1      -4.466  11.343  16.557  0.00  0.00    +0.000 A 
ATOM     29  C   UNL     1      -4.137  11.754  17.854  0.00  0.00    +0.000 A 
ATOM     30 CL   UNL     1      -5.310  12.751  18.651  0.00  0.00    +0.000 Cl
ATOM     31  C   UNL     1      -2.919  11.369  18.456  0.00  0.00    +0.000 A 
ATOM     32 CL   UNL     1      -2.536  12.061  20.009  0.00  0.00    +0.000 Cl
ENDBRANCH  22  25
ENDBRANCH  18  19
ENDBRANCH  17  18
ENDBRANCH   1  17
TORSDOF 8
ENDMDL
MODEL 5
REMARK VINA RESULT:      -7.4      1.840      2.520
REMARK  Name = 
REMARK  9 active torsions:
REMARK  status: ('A' for Active; 'I' for Inactive)
REMARK    1  A    between atoms: C_1  and  C_2
REMARK    2  A    between atoms: C_2  and  C_3
REMARK    3  A    between atoms: C_3  and  N_4
REMARK    4  A    between atoms: N_4  and  C_5
REMARK    5  A    between atoms: N_4  and  C_21
REMARK    6  A    between atoms: C_5  and  C_6
REMARK    7  A    between atoms: C_6  and  N_7
REMARK    8  A    between atoms: N_10  and  C_11
REMARK    9  A    between atoms: C_27  and  O_28
REMARK                            x       y       z     vdW  Elec       q    Type
REMARK                         _______ _______ _______ _____ _____    ______ ____
ROOT
ATOM      1  N   UNL     1       3.171   5.684  18.622  0.00  0.00    +0.000 NA
ENDROOT
BRANCH   1   2
ATOM      2  C   UNL     1       4.478   5.154  19.112  0.00  0.00    +0.000 C 
ATOM      3  C   UNL     1       4.559   3.610  19.055  0.00  0.00    +0.000 C 
ATOM      4  C   UNL     1       4.402   3.099  17.622  0.00  0.00    +0.000 C 
ATOM      5  C   UNL     1       5.321   3.802  16.653  0.00  0.00    +0.000 A 
ATOM      6  C   UNL     1       5.532   3.243  15.383  0.00  0.00    +0.000 A 
ATOM      7  C   UNL     1       6.391   3.854  14.470  0.00  0.00    +0.000 A 
ATOM      8  C   UNL     1       7.040   5.030  14.828  0.00  0.00    +0.000 A 
ATOM      9  C   UNL     1       6.820   5.615  16.070  0.00  0.00    +0.000 A 
ATOM     10  C   UNL     1       5.942   5.020  16.987  0.00  0.00    +0.000 A 
ATOM     11  C   UNL     1       5.743   5.654  18.347  0.00  0.00    +0.000 C 
BRANCH   8  12
ATOM     12  O   UNL     1       7.914   5.643  13.979  0.00  0.00    +0.000 OA
ATOM     13  H   UNL     1       8.817   5.435  14.267  0.00  0.00    +0.000 HD
ENDBRANCH   8  12
ENDBRANCH   1   2
BRANCH   1  14
ATOM     14  C   UNL     1       2.009   4.994  19.213  0.00  0.00    +0.000 C 
BRANCH  14  16
ATOM     15  C   UNL     1       0.921   2.685  18.915  0.00  0.00    +0.000 C 
ATOM     16  C   UNL     1       1.213   4.048  18.295  0.00  0.00    +0.000 C 
ENDBRANCH  14  16
ENDBRANCH   1  14
BRANCH   1  17
ATOM     17  C   UNL     1       3.062   7.155  18.659  0.00  0.00    +0.000 C 
BRANCH  17  18
ATOM     18  C   UNL     1       1.923   7.804  19.501  0.00  0.00    +0.000 C 
BRANCH  18  19
ATOM     19  N   UNL     1       1.856   9.268  19.313  0.00  0.00    +0.000 NA
ATOM     20  C   UNL     1       1.302   9.683  18.004  0.00  0.00    +0.000 C 
ATOM     21  C   UNL     1      -0.224   9.499  17.822  0.00  0.00    +0.000 C 
ATOM     22  N   UNL     1      -0.957  10.132  18.934  0.00  0.00    +0.000 N 
ATOM     23  C   UNL     1      -0.472   9.751  20.276  0.00  0.00    +0.000 C 
ATOM     24  C   UNL     1       1.066   9.933  20.374  0.00  0.00    +0.000 C 
BRANCH  22  25
ATOM     25  C   UNL     1      -2.170  10.792  18.767  0.00  0.00    +0.000 A 
ATOM     26  C   UNL     1      -3.035  10.312  17.752  0.00  0.00    +0.000 A 
ATOM     27  C   UNL     1      -4.292  10.863  17.488  0.00  0.00    +0.000 A 
ATOM     28  C   UNL     1      -4.765  11.901  18.267  0.00  0.00    +0.000 A 
ATOM     29  C   UNL     1      -3.961  12.403  19.296  0.00  0.00    +0.000 A 
ATOM     30 CL   UNL     1      -4.653  13.683  20.241  0.00  0.00    +0.000 Cl
ATOM     31  C   UNL     1      -2.668  11.886  19.534  0.00  0.00    +0.000 A 
ATOM     32 CL   UNL     1      -1.690  12.684  20.736  0.00  0.00    +0.000 Cl
ENDBRANCH  22  25
ENDBRANCH  18  19
ENDBRANCH  17  18
ENDBRANCH   1  17
TORSDOF 8
ENDMDL
MODEL 6
REMARK VINA RESULT:      -7.3      1.099      1.398
REMARK  Name = 
REMARK  9 active torsions:
REMARK  status: ('A' for Active; 'I' for Inactive)
REMARK    1  A    between atoms: C_1  and  C_2
REMARK    2  A    between atoms: C_2  and  C_3
REMARK    3  A    between atoms: C_3  and  N_4
REMARK    4  A    between atoms: N_4  and  C_5
REMARK    5  A    between atoms: N_4  and  C_21
REMARK    6  A    between atoms: C_5  and  C_6
REMARK    7  A    between atoms: C_6  and  N_7
REMARK    8  A    between atoms: N_10  and  C_11
REMARK    9  A    between atoms: C_27  and  O_28
REMARK                            x       y       z     vdW  Elec       q    Type
REMARK                         _______ _______ _______ _____ _____    ______ ____
ROOT
ATOM      1  N   UNL     1       2.511   4.514  19.692  0.00  0.00    +0.000 NA
ENDROOT
BRANCH   1   2
ATOM      2  C   UNL     1       3.759   3.707  19.838  0.00  0.00    +0.000 C 
ATOM      3  C   UNL     1       3.856   2.561  18.804  0.00  0.00    +0.000 C 
ATOM      4  C   UNL     1       3.864   3.104  17.374  0.00  0.00    +0.000 C 
ATOM      5  C   UNL     1       4.881   4.202  17.177  0.00  0.00    +0.000 A 
ATOM      6  C   UNL     1       5.236   4.579  15.872  0.00  0.00    +0.000 A 
ATOM      7  C   UNL     1       6.188   5.574  15.653  0.00  0.00    +0.000 A 
ATOM      8  C   UNL     1       6.784   6.197  16.743  0.00  0.00    +0.000 A 
ATOM      9  C   UNL     1       6.422   5.859  18.043  0.00  0.00    +0.000 A 
ATOM     10  C   UNL     1       5.452   4.874  18.274  0.00  0.00    +0.000 A 
ATOM     11  C   UNL     1       5.097   4.495  19.696  0.00  0.00    +0.000 C 
BRANCH   8  12
ATOM     12  O   UNL     1       7.743   7.152  16.575  0.00  0.00    +0.000 OA
ATOM     13  H   UNL     1       7.489   7.713  15.824  0.00  0.00    +0.000 HD
ENDBRANCH   8  12
ENDBRANCH   1   2
BRANCH   1  14
ATOM     14  C   UNL     1       1.392   3.999  20.503  0.00  0.00    +0.000 C 
BRANCH  14  16
ATOM     15  C   UNL     1       0.490   2.441  18.669  0.00  0.00    +0.000 C 
ATOM     16  C   UNL     1       0.848   2.604  20.143  0.00  0.00    +0.000 C 
ENDBRANCH  14  16
ENDBRANCH   1  14
BRANCH   1  17
ATOM     17  C   UNL     1       2.713   5.969  19.827  0.00  0.00    +0.000 C 
BRANCH  17  18
ATOM     18  C   UNL     1       2.263   6.902  18.662  0.00  0.00    +0.000 C 
BRANCH  18  19
ATOM     19  N   UNL     1       2.490   8.329  18.971  0.00  0.00    +0.000 NA
ATOM     20  C   UNL     1       2.040   9.256  17.908  0.00  0.00    +0.000 C 
ATOM     21  C   UNL     1       0.510   9.437  17.768  0.00  0.00    +0.000 C 
ATOM     22  N   UNL     1      -0.090   9.789  19.067  0.00  0.00    +0.000 N 
ATOM     23  C   UNL     1       0.299   8.895  20.177  0.00  0.00    +0.000 C 
ATOM     24  C   UNL     1       1.842   8.737  20.237  0.00  0.00    +0.000 C 
BRANCH  22  25
ATOM     25  C   UNL     1      -1.146  10.685  19.200  0.00  0.00    +0.000 A 
ATOM     26  C   UNL     1      -2.233  10.544  18.302  0.00  0.00    +0.000 A 
ATOM     27  C   UNL     1      -3.369  11.358  18.334  0.00  0.00    +0.000 A 
ATOM     28  C   UNL     1      -3.490  12.330  19.307  0.00  0.00    +0.000 A 
ATOM     29  C   UNL     1      -2.456  12.502  20.234  0.00  0.00    +0.000 A 
ATOM     30 CL   UNL     1      -2.713  13.723  21.438  0.00  0.00    +0.000 Cl
ATOM     31  C   UNL     1      -1.282  11.718  20.174  0.00  0.00    +0.000 A 
ATOM     32 CL   UNL     1       0.008  12.115  21.275  0.00  0.00    +0.000 Cl
ENDBRANCH  22  25
ENDBRANCH  18  19
ENDBRANCH  17  18
ENDBRANCH   1  17
TORSDOF 8
ENDMDL
MODEL 7
REMARK VINA RESULT:      -7.3      2.087      2.681
REMARK  Name = 
REMARK  9 active torsions:
REMARK  status: ('A' for Active; 'I' for Inactive)
REMARK    1  A    between atoms: C_1  and  C_2
REMARK    2  A    between atoms: C_2  and  C_3
REMARK    3  A    between atoms: C_3  and  N_4
REMARK    4  A    between atoms: N_4  and  C_5
REMARK    5  A    between atoms: N_4  and  C_21
REMARK    6  A    between atoms: C_5  and  C_6
REMARK    7  A    between atoms: C_6  and  N_7
REMARK    8  A    between atoms: N_10  and  C_11
REMARK    9  A    between atoms: C_27  and  O_28
REMARK                            x       y       z     vdW  Elec       q    Type
REMARK                         _______ _______ _______ _____ _____    ______ ____
ROOT
ATOM      1  N   UNL     1       3.022   6.014  18.217  0.00  0.00    +0.000 NA
ENDROOT
BRANCH   1   2
ATOM      2  C   UNL     1       4.257   5.410  18.800  0.00  0.00    +0.000 C 
ATOM      3  C   UNL     1       4.247   3.864  18.752  0.00  0.00    +0.000 C 
ATOM      4  C   UNL     1       4.160   3.354  17.312  0.00  0.00    +0.000 C 
ATOM      5  C   UNL     1       5.186   3.993  16.408  0.00  0.00    +0.000 A 
ATOM      6  C   UNL     1       5.451   3.415  15.158  0.00  0.00    +0.000 A 
ATOM      7  C   UNL     1       6.407   3.966  14.306  0.00  0.00    +0.000 A 
ATOM      8  C   UNL     1       7.100   5.103  14.706  0.00  0.00    +0.000 A 
ATOM      9  C   UNL     1       6.829   5.709  15.928  0.00  0.00    +0.000 A 
ATOM     10  C   UNL     1       5.855   5.174  16.783  0.00  0.00    +0.000 A 
ATOM     11  C   UNL     1       5.600   5.828  18.124  0.00  0.00    +0.000 C 
BRANCH   8  12
ATOM     12  O   UNL     1       8.066   5.656  13.919  0.00  0.00    +0.000 OA
ATOM     13  H   UNL     1       8.457   6.406  14.396  0.00  0.00    +0.000 HD
ENDBRANCH   8  12
ENDBRANCH   1   2
BRANCH   1  14
ATOM     14  C   UNL     1       1.793   5.618  18.930  0.00  0.00    +0.000 C 
BRANCH  14  16
ATOM     15  C   UNL     1       1.330   4.019  20.887  0.00  0.00    +0.000 C 
ATOM     16  C   UNL     1       1.912   5.357  20.443  0.00  0.00    +0.000 C 
ENDBRANCH  14  16
ENDBRANCH   1  14
BRANCH   1  17
ATOM     17  C   UNL     1       3.117   7.467  17.973  0.00  0.00    +0.000 C 
BRANCH  17  18
ATOM     18  C   UNL     1       1.828   8.334  18.086  0.00  0.00    +0.000 C 
BRANCH  18  19
ATOM     19  N   UNL     1       1.992   9.456  19.035  0.00  0.00    +0.000 NA
ATOM     20  C   UNL     1       1.637  10.779  18.471  0.00  0.00    +0.000 C 
ATOM     21  C   UNL     1       0.126  11.049  18.273  0.00  0.00    +0.000 C 
ATOM     22  N   UNL     1      -0.614  10.788  19.521  0.00  0.00    +0.000 N 
ATOM     23  C   UNL     1      -0.325   9.475  20.134  0.00  0.00    +0.000 C 
ATOM     24  C   UNL     1       1.206   9.261  20.273  0.00  0.00    +0.000 C 
BRANCH  22  25
ATOM     25  C   UNL     1      -1.696  11.556  19.939  0.00  0.00    +0.000 A 
ATOM     26  C   UNL     1      -1.526  12.330  21.114  0.00  0.00    +0.000 A 
ATOM     27  C   UNL     1      -2.518  13.163  21.638  0.00  0.00    +0.000 A 
ATOM     28  C   UNL     1      -3.723  13.297  20.974  0.00  0.00    +0.000 A 
ATOM     29  C   UNL     1      -3.939  12.572  19.798  0.00  0.00    +0.000 A 
ATOM     30 CL   UNL     1      -5.467  12.831  19.019  0.00  0.00    +0.000 Cl
ATOM     31  C   UNL     1      -2.960  11.687  19.293  0.00  0.00    +0.000 A 
ATOM     32 CL   UNL     1      -3.388  10.716  17.911  0.00  0.00    +0.000 Cl
ENDBRANCH  22  25
ENDBRANCH  18  19
ENDBRANCH  17  18
ENDBRANCH   1  17
TORSDOF 8
ENDMDL
MODEL 8
REMARK VINA RESULT:      -7.3      1.840      2.107
REMARK  Name = 
REMARK  9 active torsions:
REMARK  status: ('A' for Active; 'I' for Inactive)
REMARK    1  A    between atoms: C_1  and  C_2
REMARK    2  A    between atoms: C_2  and  C_3
REMARK    3  A    between atoms: C_3  and  N_4
REMARK    4  A    between atoms: N_4  and  C_5
REMARK    5  A    between atoms: N_4  and  C_21
REMARK    6  A    between atoms: C_5  and  C_6
REMARK    7  A    between atoms: C_6  and  N_7
REMARK    8  A    between atoms: N_10  and  C_11
REMARK    9  A    between atoms: C_27  and  O_28
REMARK                            x       y       z     vdW  Elec       q    Type
REMARK                         _______ _______ _______ _____ _____    ______ ____
ROOT
ATOM      1  N   UNL     1       2.497   4.632  19.014  0.00  0.00    +0.000 NA
ENDROOT
BRANCH   1   2
ATOM      2  C   UNL     1       3.561   3.590  18.906  0.00  0.00    +0.000 C 
ATOM      3  C   UNL     1       3.854   3.181  17.443  0.00  0.00    +0.000 C 
ATOM      4  C   UNL     1       4.341   4.376  16.622  0.00  0.00    +0.000 C 
ATOM      5  C   UNL     1       5.471   5.119  17.294  0.00  0.00    +0.000 A 
ATOM      6  C   UNL     1       6.235   6.026  16.543  0.00  0.00    +0.000 A 
ATOM      7  C   UNL     1       7.299   6.713  17.126  0.00  0.00    +0.000 A 
ATOM      8  C   UNL     1       7.598   6.495  18.466  0.00  0.00    +0.000 A 
ATOM      9  C   UNL     1       6.833   5.624  19.234  0.00  0.00    +0.000 A 
ATOM     10  C   UNL     1       5.748   4.943  18.662  0.00  0.00    +0.000 A 
ATOM     11  C   UNL     1       4.949   3.973  19.506  0.00  0.00    +0.000 C 
BRANCH   8  12
ATOM     12  O   UNL     1       8.649   7.121  19.067  0.00  0.00    +0.000 OA
ATOM     13  H   UNL     1       8.731   6.781  19.973  0.00  0.00    +0.000 HD
ENDBRANCH   8  12
ENDBRANCH   1   2
BRANCH   1  14
ATOM     14  C   UNL     1       1.193   4.086  19.435  0.00  0.00    +0.000 C 
BRANCH  14  16
ATOM     15  C   UNL     1       1.409   2.743  21.614  0.00  0.00    +0.000 C 
ATOM     16  C   UNL     1       1.196   2.699  20.104  0.00  0.00    +0.000 C 
ENDBRANCH  14  16
ENDBRANCH   1  14
BRANCH   1  17
ATOM     17  C   UNL     1       2.902   5.834  19.770  0.00  0.00    +0.000 C 
BRANCH  17  18
ATOM     18  C   UNL     1       2.881   7.216  19.051  0.00  0.00    +0.000 C 
BRANCH  18  19
ATOM     19  N   UNL     1       1.506   7.729  18.871  0.00  0.00    +0.000 NA
ATOM     20  C   UNL     1       0.949   8.395  20.071  0.00  0.00    +0.000 C 
ATOM     21  C   UNL     1       1.526   9.793  20.401  0.00  0.00    +0.000 C 
ATOM     22  N   UNL     1       1.450  10.675  19.222  0.00  0.00    +0.000 N 
ATOM     23  C   UNL     1       2.005  10.084  17.987  0.00  0.00    +0.000 C 
ATOM     24  C   UNL     1       1.406   8.675  17.737  0.00  0.00    +0.000 C 
BRANCH  22  25
ATOM     25  C   UNL     1       1.161  12.033  19.305  0.00  0.00    +0.000 A 
ATOM     26  C   UNL     1       2.118  12.933  18.772  0.00  0.00    +0.000 A 
ATOM     27  C   UNL     1       1.950  14.320  18.766  0.00  0.00    +0.000 A 
ATOM     28  C   UNL     1       0.783  14.873  19.256  0.00  0.00    +0.000 A 
ATOM     29  C   UNL     1      -0.206  14.031  19.777  0.00  0.00    +0.000 A 
ATOM     30 CL   UNL     1      -1.648  14.814  20.337  0.00  0.00    +0.000 Cl
ATOM     31  C   UNL     1      -0.020  12.632  19.835  0.00  0.00    +0.000 A 
ATOM     32 CL   UNL     1      -1.242  11.689  20.642  0.00  0.00    +0.000 Cl
ENDBRANCH  22  25
ENDBRANCH  18  19
ENDBRANCH  17  18
ENDBRANCH   1  17
TORSDOF 8
ENDMDL
MODEL 9
REMARK VINA RESULT:      -7.3      2.128      2.388
REMARK  Name = 
REMARK  9 active torsions:
REMARK  status: ('A' for Active; 'I' for Inactive)
REMARK    1  A    between atoms: C_1  and  C_2
REMARK    2  A    between atoms: C_2  and  C_3
REMARK    3  A    between atoms: C_3  and  N_4
REMARK    4  A    between atoms: N_4  and  C_5
REMARK    5  A    between atoms: N_4  and  C_21
REMARK    6  A    between atoms: C_5  and  C_6
REMARK    7  A    between atoms: C_6  and  N_7
REMARK    8  A    between atoms: N_10  and  C_11
REMARK    9  A    between atoms: C_27  and  O_28
REMARK                            x       y       z     vdW  Elec       q    Type
REMARK                         _______ _______ _______ _____ _____    ______ ____
ROOT
ATOM      1  N   UNL     1       2.718   4.627  18.809  0.00  0.00    +0.000 NA
ENDROOT
BRANCH   1   2
ATOM      2  C   UNL     1       3.823   3.648  18.587  0.00  0.00    +0.000 C 
ATOM      3  C   UNL     1       4.123   3.412  17.088  0.00  0.00    +0.000 C 
ATOM      4  C   UNL     1       4.555   4.707  16.399  0.00  0.00    +0.000 C 
ATOM      5  C   UNL     1       5.658   5.420  17.144  0.00  0.00    +0.000 A 
ATOM      6  C   UNL     1       6.379   6.433  16.494  0.00  0.00    +0.000 A 
ATOM      7  C   UNL     1       7.417   7.098  17.145  0.00  0.00    +0.000 A 
ATOM      8  C   UNL     1       7.734   6.749  18.453  0.00  0.00    +0.000 A 
ATOM      9  C   UNL     1       7.010   5.770  19.124  0.00  0.00    +0.000 A 
ATOM     10  C   UNL     1       5.951   5.110  18.485  0.00  0.00    +0.000 A 
ATOM     11  C   UNL     1       5.198   4.022  19.221  0.00  0.00    +0.000 C 
BRANCH   8  12
ATOM     12  O   UNL     1       8.763   7.350  19.116  0.00  0.00    +0.000 OA
ATOM     13  H   UNL     1       9.427   7.626  18.465  0.00  0.00    +0.000 HD
ENDBRANCH   8  12
ENDBRANCH   1   2
BRANCH   1  14
ATOM     14  C   UNL     1       1.427   3.983  19.114  0.00  0.00    +0.000 C 
BRANCH  14  16
ATOM     15  C   UNL     1       1.517   2.694  21.335  0.00  0.00    +0.000 C 
ATOM     16  C   UNL     1       1.004   3.925  20.593  0.00  0.00    +0.000 C 
ENDBRANCH  14  16
ENDBRANCH   1  14
BRANCH   1  17
ATOM     17  C   UNL     1       3.060   5.725  19.734  0.00  0.00    +0.000 C 
BRANCH  17  18
ATOM     18  C   UNL     1       2.933   7.196  19.234  0.00  0.00    +0.000 C 
BRANCH  18  19
ATOM     19  N   UNL     1       1.533   7.563  18.932  0.00  0.00    +0.000 NA
ATOM     20  C   UNL     1       0.820   8.204  20.061  0.00  0.00    +0.000 C 
ATOM     21  C   UNL     1       1.229   9.663  20.381  0.00  0.00    +0.000 C 
ATOM     22  N   UNL     1       1.161  10.497  19.167  0.00  0.00    +0.000 N 
ATOM     23  C   UNL     1       1.867   9.928  18.000  0.00  0.00    +0.000 C 
ATOM     24  C   UNL     1       1.431   8.459  17.759  0.00  0.00    +0.000 C 
BRANCH  22  25
ATOM     25  C   UNL     1       0.735  11.821  19.176  0.00  0.00    +0.000 A 
ATOM     26  C   UNL     1      -0.575  12.077  19.653  0.00  0.00    +0.000 A 
ATOM     27  C   UNL     1      -1.127  13.358  19.740  0.00  0.00    +0.000 A 
ATOM     28  C   UNL     1      -0.366  14.458  19.393  0.00  0.00    +0.000 A 
ATOM     29  C   UNL     1       0.942  14.267  18.933  0.00  0.00    +0.000 A 
ATOM     30 CL   UNL     1       1.829  15.708  18.555  0.00  0.00    +0.000 Cl
ATOM     31  C   UNL     1       1.486  12.971  18.793  0.00  0.00    +0.000 A 
ATOM     32 CL   UNL     1       3.064  12.834  18.067  0.00  0.00    +0.000 Cl
ENDBRANCH  22  25
ENDBRANCH  18  19
ENDBRANCH  17  18
ENDBRANCH   1  17
TORSDOF 8
ENDMDL
