MODEL 1
REMARK VINA RESULT:      -7.4      0.000      0.000
REMARK  Name = 
REMARK  5 active torsions:
REMARK  status: ('A' for Active; 'I' for Inactive)
REMARK    1  A    between atoms: C_2  and  O_3
REMARK    2  A    between atoms: C_2  and  C_4
REMARK    3  A    between atoms: C_4  and  C_5
REMARK    4  A    between atoms: C_5  and  N_6
REMARK    5  A    between atoms: C_10  and  C_11
REMARK                            x       y       z     vdW  Elec       q    Type
REMARK                         _______ _______ _______ _____ _____    ______ ____
ROOT
ATOM      1  N   UNL     1       2.673   5.909  19.751  0.00  0.00    +0.000 N 
ATOM      2  C   UNL     1       2.148   7.169  19.509  0.00  0.00    +0.000 C 
ATOM      3  O   UNL     1       1.346   7.742  20.232  0.00  0.00    +0.000 OA
ATOM      4  C   UNL     1       2.725   7.752  18.272  0.00  0.00    +0.000 C 
ATOM      5  C   UNL     1       2.342   8.880  17.657  0.00  0.00    +0.000 C 
ATOM      6  S   UNL     1       3.989   6.740  17.690  0.00  0.00    +0.000 S 
ATOM      7  C   UNL     1       3.754   5.551  18.971  0.00  0.00    +0.000 C 
ATOM      8  S   UNL     1       4.754   4.225  19.122  0.00  0.00    +0.000 S 
ENDROOT
BRANCH   5   9
ATOM      9  C   UNL     1       1.247   9.751  18.088  0.00  0.00    +0.000 A 
ATOM     10  C   UNL     1       1.496  10.802  18.973  0.00  0.00    +0.000 A 
ATOM     11  C   UNL     1       0.443  11.596  19.435  0.00  0.00    +0.000 A 
ATOM     12  C   UNL     1      -0.873  11.359  19.009  0.00  0.00    +0.000 A 
ATOM     13  C   UNL     1      -1.944  12.132  19.488  0.00  0.00    +0.000 A 
ATOM     14  C   UNL     1      -3.247  11.895  19.048  0.00  0.00    +0.000 A 
ATOM     15  C   UNL     1      -3.495  10.888  18.120  0.00  0.00    +0.000 A 
ATOM     16  C   UNL     1      -2.442  10.105  17.642  0.00  0.00    +0.000 A 
ATOM     17  C   UNL     1      -1.127  10.322  18.084  0.00  0.00    +0.000 A 
ATOM     18  C   UNL     1      -0.059   9.524  17.635  0.00  0.00    +0.000 A 
ENDBRANCH   5   9
BRANCH   1  19
ATOM     19  C   UNL     1       2.195   5.167  20.930  0.00  0.00    +0.000 C 
BRANCH  19  20
ATOM     20  C   UNL     1       1.086   4.159  20.592  0.00  0.00    +0.000 C 
BRANCH  20  22
ATOM     21  O   UNL     1       1.698   2.372  22.097  0.00  0.00    +0.000 OA
ATOM     22  C   UNL     1       1.506   2.761  20.954  0.00  0.00    +0.000 C 
BRANCH  22  23
ATOM     23  O   UNL     1       1.703   1.967  19.879  0.00  0.00    +0.000 OA
ATOM     24  H   UNL     1       1.226   1.116  19.903  0.00  0.00    +0.000 HD
ENDBRANCH  22  23
ENDBRANCH  20  22
ENDBRANCH  19  20
ENDBRANCH   1  19
TORSDOF 5
ENDMDL
MODEL 2
REMARK VINA RESULT:      -7.0      3.453      7.927
REMARK  Name = 
REMARK  5 active torsions:
REMARK  status: ('A' for Active; 'I' for Inactive)
REMARK    1  A    between atoms: C_2  and  O_3
REMARK    2  A    between atoms: C_2  and  C_4
REMARK    3  A    between atoms: C_4  and  C_5
REMARK    4  A    between atoms: C_5  and  N_6
REMARK    5  A    between atoms: C_10  and  C_11
REMARK                            x       y       z     vdW  Elec       q    Type
REMARK                         _______ _______ _______ _____ _____    ______ ____
ROOT
ATOM      1  N   UNL     1       0.739   9.502  19.239  0.00  0.00    +0.000 N 
ATOM      2  C   UNL     1       1.632   8.491  18.916  0.00  0.00    +0.000 C 
ATOM      3  O   UNL     1       2.145   8.337  17.817  0.00  0.00    +0.000 OA
ATOM      4  C   UNL     1       1.917   7.642  20.100  0.00  0.00    +0.000 C 
ATOM      5  C   UNL     1       2.611   6.496  20.122  0.00  0.00    +0.000 C 
ATOM      6  S   UNL     1       1.195   8.338  21.499  0.00  0.00    +0.000 S 
ATOM      7  C   UNL     1       0.482   9.667  20.585  0.00  0.00    +0.000 C 
ATOM      8  S   UNL     1      -0.359  10.891  21.343  0.00  0.00    +0.000 S 
ENDROOT
BRANCH   5   9
ATOM      9  C   UNL     1       3.208   5.844  18.955  0.00  0.00    +0.000 A 
ATOM     10  C   UNL     1       2.509   4.840  18.279  0.00  0.00    +0.000 A 
ATOM     11  C   UNL     1       3.102   4.174  17.204  0.00  0.00    +0.000 A 
ATOM     12  C   UNL     1       4.397   4.509  16.778  0.00  0.00    +0.000 A 
ATOM     13  C   UNL     1       5.014   3.827  15.717  0.00  0.00    +0.000 A 
ATOM     14  C   UNL     1       6.298   4.177  15.296  0.00  0.00    +0.000 A 
ATOM     15  C   UNL     1       6.977   5.216  15.925  0.00  0.00    +0.000 A 
ATOM     16  C   UNL     1       6.380   5.898  16.988  0.00  0.00    +0.000 A 
ATOM     17  C   UNL     1       5.094   5.549  17.433  0.00  0.00    +0.000 A 
ATOM     18  C   UNL     1       4.490   6.206  18.521  0.00  0.00    +0.000 A 
ENDBRANCH   5   9
BRANCH   1  19
ATOM     19  C   UNL     1       0.321  10.431  18.175  0.00  0.00    +0.000 C 
BRANCH  19  20
ATOM     20  C   UNL     1      -1.137  10.223  17.740  0.00  0.00    +0.000 C 
BRANCH  20  22
ATOM     21  O   UNL     1      -3.027  11.590  18.367  0.00  0.00    +0.000 OA
ATOM     22  C   UNL     1      -1.918  11.503  17.860  0.00  0.00    +0.000 C 
BRANCH  22  23
ATOM     23  O   UNL     1      -1.294  12.564  17.304  0.00  0.00    +0.000 OA
ATOM     24  H   UNL     1      -0.585  12.339  16.671  0.00  0.00    +0.000 HD
ENDBRANCH  22  23
ENDBRANCH  20  22
ENDBRANCH  19  20
ENDBRANCH   1  19
TORSDOF 5
ENDMDL
MODEL 3
REMARK VINA RESULT:      -7.0      0.767      1.885
REMARK  Name = 
REMARK  5 active torsions:
REMARK  status: ('A' for Active; 'I' for Inactive)
REMARK    1  A    between atoms: C_2  and  O_3
REMARK    2  A    between atoms: C_2  and  C_4
REMARK    3  A    between atoms: C_4  and  C_5
REMARK    4  A    between atoms: C_5  and  N_6
REMARK    5  A    between atoms: C_10  and  C_11
REMARK                            x       y       z     vdW  Elec       q    Type
REMARK                         _______ _______ _______ _____ _____    ______ ____
ROOT
ATOM      1  N   UNL     1       2.656   5.985  19.707  0.00  0.00    +0.000 N 
ATOM      2  C   UNL     1       2.095   7.243  19.551  0.00  0.00    +0.000 C 
ATOM      3  O   UNL     1       1.328   7.769  20.345  0.00  0.00    +0.000 OA
ATOM      4  C   UNL     1       2.585   7.889  18.308  0.00  0.00    +0.000 C 
ATOM      5  C   UNL     1       2.146   9.034  17.765  0.00  0.00    +0.000 C 
ATOM      6  S   UNL     1       3.830   6.928  17.608  0.00  0.00    +0.000 S 
ATOM      7  C   UNL     1       3.694   5.682  18.848  0.00  0.00    +0.000 C 
ATOM      8  S   UNL     1       4.724   4.371  18.882  0.00  0.00    +0.000 S 
ENDROOT
BRANCH   5   9
ATOM      9  C   UNL     1       1.065   9.864  18.299  0.00  0.00    +0.000 A 
ATOM     10  C   UNL     1      -0.252   9.651  17.882  0.00  0.00    +0.000 A 
ATOM     11  C   UNL     1      -1.277  10.481  18.342  0.00  0.00    +0.000 A 
ATOM     12  C   UNL     1      -1.004  11.530  19.235  0.00  0.00    +0.000 A 
ATOM     13  C   UNL     1      -2.021  12.389  19.682  0.00  0.00    +0.000 A 
ATOM     14  C   UNL     1      -1.740  13.421  20.579  0.00  0.00    +0.000 A 
ATOM     15  C   UNL     1      -0.441  13.601  21.045  0.00  0.00    +0.000 A 
ATOM     16  C   UNL     1       0.583  12.760  20.603  0.00  0.00    +0.000 A 
ATOM     17  C   UNL     1       0.319  11.726  19.690  0.00  0.00    +0.000 A 
ATOM     18  C   UNL     1       1.343  10.889  19.212  0.00  0.00    +0.000 A 
ENDBRANCH   5   9
BRANCH   1  19
ATOM     19  C   UNL     1       2.263   5.185  20.879  0.00  0.00    +0.000 C 
BRANCH  19  20
ATOM     20  C   UNL     1       1.126   4.199  20.575  0.00  0.00    +0.000 C 
BRANCH  20  22
ATOM     21  O   UNL     1       1.670   2.417  22.112  0.00  0.00    +0.000 OA
ATOM     22  C   UNL     1       1.515   2.798  20.961  0.00  0.00    +0.000 C 
BRANCH  22  23
ATOM     23  O   UNL     1       1.730   1.992  19.898  0.00  0.00    +0.000 OA
ATOM     24  H   UNL     1       0.993   1.948  19.259  0.00  0.00    +0.000 HD
ENDBRANCH  22  23
ENDBRANCH  20  22
ENDBRANCH  19  20
ENDBRANCH   1  19
TORSDOF 5
ENDMDL
MODEL 4
REMARK VINA RESULT:      -6.8      1.072      2.144
REMARK  Name = 
REMARK  5 active torsions:
REMARK  status: ('A' for Active; 'I' for Inactive)
REMARK    1  A    between atoms: C_2  and  O_3
REMARK    2  A    between atoms: C_2  and  C_4
REMARK    3  A    between atoms: C_4  and  C_5
REMARK    4  A    between atoms: C_5  and  N_6
REMARK    5  A    between atoms: C_10  and  C_11
REMARK                            x       y       z     vdW  Elec       q    Type
REMARK                         _______ _______ _______ _____ _____    ______ ____
ROOT
ATOM      1  N   UNL     1       2.783   5.593  19.492  0.00  0.00    +0.000 N 
ATOM      2  C   UNL     1       2.213   6.855  19.428  0.00  0.00    +0.000 C 
ATOM      3  O   UNL     1       1.396   7.294  20.224  0.00  0.00    +0.000 OA
ATOM      4  C   UNL     1       2.761   7.623  18.282  0.00  0.00    +0.000 C 
ATOM      5  C   UNL     1       2.335   8.811  17.829  0.00  0.00    +0.000 C 
ATOM      6  S   UNL     1       4.056   6.746  17.563  0.00  0.00    +0.000 S 
ATOM      7  C   UNL     1       3.870   5.384  18.667  0.00  0.00    +0.000 C 
ATOM      8  S   UNL     1       4.916   4.086  18.631  0.00  0.00    +0.000 S 
ENDROOT
BRANCH   5   9
ATOM      9  C   UNL     1       1.214   9.575  18.379  0.00  0.00    +0.000 A 
ATOM     10  C   UNL     1      -0.049   9.488  17.789  0.00  0.00    +0.000 A 
ATOM     11  C   UNL     1      -1.106  10.263  18.274  0.00  0.00    +0.000 A 
ATOM     12  C   UNL     1      -0.920  11.128  19.363  0.00  0.00    +0.000 A 
ATOM     13  C   UNL     1      -1.966  11.934  19.841  0.00  0.00    +0.000 A 
ATOM     14  C   UNL     1      -1.772  12.781  20.933  0.00  0.00    +0.000 A 
ATOM     15  C   UNL     1      -0.532  12.829  21.564  0.00  0.00    +0.000 A 
ATOM     16  C   UNL     1       0.521  12.041  21.095  0.00  0.00    +0.000 A 
ATOM     17  C   UNL     1       0.346  11.192  19.989  0.00  0.00    +0.000 A 
ATOM     18  C   UNL     1       1.404  10.414  19.485  0.00  0.00    +0.000 A 
ENDBRANCH   5   9
BRANCH   1  19
ATOM     19  C   UNL     1       2.338   4.679  20.558  0.00  0.00    +0.000 C 
BRANCH  19  20
ATOM     20  C   UNL     1       1.054   3.919  20.195  0.00  0.00    +0.000 C 
BRANCH  20  22
ATOM     21  O   UNL     1       1.025   3.441  17.828  0.00  0.00    +0.000 OA
ATOM     22  C   UNL     1       1.262   3.073  18.969  0.00  0.00    +0.000 C 
BRANCH  22  23
ATOM     23  O   UNL     1       1.698   1.825  19.249  0.00  0.00    +0.000 OA
ATOM     24  H   UNL     1       1.985   1.686  20.172  0.00  0.00    +0.000 HD
ENDBRANCH  22  23
ENDBRANCH  20  22
ENDBRANCH  19  20
ENDBRANCH   1  19
TORSDOF 5
ENDMDL
MODEL 5
REMARK VINA RESULT:      -6.7      3.604      7.737
REMARK  Name = 
REMARK  5 active torsions:
REMARK  status: ('A' for Active; 'I' for Inactive)
REMARK    1  A    between atoms: C_2  and  O_3
REMARK    2  A    between atoms: C_2  and  C_4
REMARK    3  A    between atoms: C_4  and  C_5
REMARK    4  A    between atoms: C_5  and  N_6
REMARK    5  A    between atoms: C_10  and  C_11
REMARK                            x       y       z     vdW  Elec       q    Type
REMARK                         _______ _______ _______ _____ _____    ______ ____
ROOT
ATOM      1  N   UNL     1      -0.109  10.107  19.212  0.00  0.00    +0.000 N 
ATOM      2  C   UNL     1       0.808   9.088  19.003  0.00  0.00    +0.000 C 
ATOM      3  O   UNL     1       1.229   8.741  17.909  0.00  0.00    +0.000 OA
ATOM      4  C   UNL     1       1.246   8.500  20.294  0.00  0.00    +0.000 C 
ATOM      5  C   UNL     1       2.003   7.408  20.467  0.00  0.00    +0.000 C 
ATOM      6  S   UNL     1       0.612   9.429  21.597  0.00  0.00    +0.000 S 
ATOM      7  C   UNL     1      -0.254  10.523  20.520  0.00  0.00    +0.000 C 
ATOM      8  S   UNL     1      -1.093  11.840  21.107  0.00  0.00    +0.000 S 
ENDROOT
BRANCH   5   9
ATOM      9  C   UNL     1       2.530   6.563  19.394  0.00  0.00    +0.000 A 
ATOM     10  C   UNL     1       1.978   5.301  19.161  0.00  0.00    +0.000 A 
ATOM     11  C   UNL     1       2.520   4.468  18.179  0.00  0.00    +0.000 A 
ATOM     12  C   UNL     1       3.613   4.888  17.406  0.00  0.00    +0.000 A 
ATOM     13  C   UNL     1       4.185   4.049  16.436  0.00  0.00    +0.000 A 
ATOM     14  C   UNL     1       5.264   4.482  15.665  0.00  0.00    +0.000 A 
ATOM     15  C   UNL     1       5.781   5.761  15.850  0.00  0.00    +0.000 A 
ATOM     16  C   UNL     1       5.230   6.604  16.817  0.00  0.00    +0.000 A 
ATOM     17  C   UNL     1       4.152   6.178  17.610  0.00  0.00    +0.000 A 
ATOM     18  C   UNL     1       3.603   7.004  18.609  0.00  0.00    +0.000 A 
ENDBRANCH   5   9
BRANCH   1  19
ATOM     19  C   UNL     1      -0.673  10.792  18.035  0.00  0.00    +0.000 C 
BRANCH  19  20
ATOM     20  C   UNL     1      -1.908  10.080  17.465  0.00  0.00    +0.000 C 
BRANCH  20  22
ATOM     21  O   UNL     1      -2.675  10.930  15.339  0.00  0.00    +0.000 OA
ATOM     22  C   UNL     1      -2.682  10.997  16.559  0.00  0.00    +0.000 C 
BRANCH  22  23
ATOM     23  O   UNL     1      -3.367  11.953  17.225  0.00  0.00    +0.000 OA
ATOM     24  H   UNL     1      -2.981  12.213  18.084  0.00  0.00    +0.000 HD
ENDBRANCH  22  23
ENDBRANCH  20  22
ENDBRANCH  19  20
ENDBRANCH   1  19
TORSDOF 5
ENDMDL
MODEL 6
REMARK VINA RESULT:      -6.6      3.599      8.005
REMARK  Name = 
REMARK  5 active torsions:
REMARK  status: ('A' for Active; 'I' for Inactive)
REMARK    1  A    between atoms: C_2  and  O_3
REMARK    2  A    between atoms: C_2  and  C_4
REMARK    3  A    between atoms: C_4  and  C_5
REMARK    4  A    between atoms: C_5  and  N_6
REMARK    5  A    between atoms: C_10  and  C_11
REMARK                            x       y       z     vdW  Elec       q    Type
REMARK                         _______ _______ _______ _____ _____    ______ ____
ROOT
ATOM      1  N   UNL     1       0.779   9.801  19.737  0.00  0.00    +0.000 N 
ATOM      2  C   UNL     1       1.586   8.711  19.451  0.00  0.00    +0.000 C 
ATOM      3  O   UNL     1       2.330   8.627  18.485  0.00  0.00    +0.000 OA
ATOM      4  C   UNL     1       1.459   7.671  20.503  0.00  0.00    +0.000 C 
ATOM      5  C   UNL     1       1.972   6.433  20.480  0.00  0.00    +0.000 C 
ATOM      6  S   UNL     1       0.509   8.277  21.804  0.00  0.00    +0.000 S 
ATOM      7  C   UNL     1       0.221   9.819  20.999  0.00  0.00    +0.000 C 
ATOM      8  S   UNL     1      -0.616  11.050  21.751  0.00  0.00    +0.000 S 
ENDROOT
BRANCH   5   9
ATOM      9  C   UNL     1       2.750   5.859  19.380  0.00  0.00    +0.000 A 
ATOM     10  C   UNL     1       2.106   5.152  18.362  0.00  0.00    +0.000 A 
ATOM     11  C   UNL     1       2.852   4.550  17.345  0.00  0.00    +0.000 A 
ATOM     12  C   UNL     1       4.251   4.655  17.323  0.00  0.00    +0.000 A 
ATOM     13  C   UNL     1       5.013   4.031  16.323  0.00  0.00    +0.000 A 
ATOM     14  C   UNL     1       6.404   4.153  16.305  0.00  0.00    +0.000 A 
ATOM     15  C   UNL     1       7.048   4.905  17.283  0.00  0.00    +0.000 A 
ATOM     16  C   UNL     1       6.304   5.525  18.290  0.00  0.00    +0.000 A 
ATOM     17  C   UNL     1       4.905   5.401  18.329  0.00  0.00    +0.000 A 
ATOM     18  C   UNL     1       4.144   5.994  19.353  0.00  0.00    +0.000 A 
ENDBRANCH   5   9
BRANCH   1  19
ATOM     19  C   UNL     1       0.758  10.925  18.784  0.00  0.00    +0.000 C 
BRANCH  19  20
ATOM     20  C   UNL     1       1.624  12.108  19.239  0.00  0.00    +0.000 C 
BRANCH  20  22
ATOM     21  O   UNL     1       2.651  13.888  17.969  0.00  0.00    +0.000 OA
ATOM     22  C   UNL     1       2.370  12.703  18.076  0.00  0.00    +0.000 C 
BRANCH  22  23
ATOM     23  O   UNL     1       2.670  11.800  17.116  0.00  0.00    +0.000 OA
ATOM     24  H   UNL     1       1.932  11.214  16.858  0.00  0.00    +0.000 HD
ENDBRANCH  22  23
ENDBRANCH  20  22
ENDBRANCH  19  20
ENDBRANCH   1  19
TORSDOF 5
ENDMDL
MODEL 7
REMARK VINA RESULT:      -6.6      3.679      7.614
REMARK  Name = 
REMARK  5 active torsions:
REMARK  status: ('A' for Active; 'I' for Inactive)
REMARK    1  A    between atoms: C_2  and  O_3
REMARK    2  A    between atoms: C_2  and  C_4
REMARK    3  A    between atoms: C_4  and  C_5
REMARK    4  A    between atoms: C_5  and  N_6
REMARK    5  A    between atoms: C_10  and  C_11
REMARK                            x       y       z     vdW  Elec       q    Type
REMARK                         _______ _______ _______ _____ _____    ______ ____
ROOT
ATOM      1  N   UNL     1      -0.557  10.663  19.299  0.00  0.00    +0.000 N 
ATOM      2  C   UNL     1       0.276   9.555  19.271  0.00  0.00    +0.000 C 
ATOM      3  O   UNL     1       0.543   8.906  18.270  0.00  0.00    +0.000 OA
ATOM      4  C   UNL     1       0.841   9.286  20.617  0.00  0.00    +0.000 C 
ATOM      5  C   UNL     1       1.559   8.219  20.993  0.00  0.00    +0.000 C 
ATOM      6  S   UNL     1       0.417  10.565  21.688  0.00  0.00    +0.000 S 
ATOM      7  C   UNL     1      -0.520  11.411  20.458  0.00  0.00    +0.000 C 
ATOM      8  S   UNL     1      -1.215  12.896  20.761  0.00  0.00    +0.000 S 
ENDROOT
BRANCH   5   9
ATOM      9  C   UNL     1       1.909   7.087  20.132  0.00  0.00    +0.000 A 
ATOM     10  C   UNL     1       2.747   7.278  19.031  0.00  0.00    +0.000 A 
ATOM     11  C   UNL     1       3.033   6.214  18.172  0.00  0.00    +0.000 A 
ATOM     12  C   UNL     1       2.495   4.939  18.407  0.00  0.00    +0.000 A 
ATOM     13  C   UNL     1       2.751   3.868  17.536  0.00  0.00    +0.000 A 
ATOM     14  C   UNL     1       2.220   2.601  17.787  0.00  0.00    +0.000 A 
ATOM     15  C   UNL     1       1.433   2.389  18.915  0.00  0.00    +0.000 A 
ATOM     16  C   UNL     1       1.161   3.447  19.786  0.00  0.00    +0.000 A 
ATOM     17  C   UNL     1       1.677   4.730  19.541  0.00  0.00    +0.000 A 
ATOM     18  C   UNL     1       1.390   5.813  20.392  0.00  0.00    +0.000 A 
ENDBRANCH   5   9
BRANCH   1  19
ATOM     19  C   UNL     1      -1.227  11.065  18.050  0.00  0.00    +0.000 C 
BRANCH  19  20
ATOM     20  C   UNL     1      -2.683  10.584  17.972  0.00  0.00    +0.000 C 
BRANCH  20  22
ATOM     21  O   UNL     1      -4.548  11.079  16.519  0.00  0.00    +0.000 OA
ATOM     22  C   UNL     1      -3.340  11.073  16.711  0.00  0.00    +0.000 C 
BRANCH  22  23
ATOM     23  O   UNL     1      -2.458  11.470  15.768  0.00  0.00    +0.000 OA
ATOM     24  H   UNL     1      -2.092  10.751  15.217  0.00  0.00    +0.000 HD
ENDBRANCH  22  23
ENDBRANCH  20  22
ENDBRANCH  19  20
ENDBRANCH   1  19
TORSDOF 5
ENDMDL
MODEL 8
REMARK VINA RESULT:      -6.6      4.625      7.829
REMARK  Name = 
REMARK  5 active torsions:
REMARK  status: ('A' for Active; 'I' for Inactive)
REMARK    1  A    between atoms: C_2  and  O_3
REMARK    2  A    between atoms: C_2  and  C_4
REMARK    3  A    between atoms: C_4  and  C_5
REMARK    4  A    between atoms: C_5  and  N_6
REMARK    5  A    between atoms: C_10  and  C_11
REMARK                            x       y       z     vdW  Elec       q    Type
REMARK                         _______ _______ _______ _____ _____    ______ ____
ROOT
ATOM      1  N   UNL     1      -3.407  11.227  18.753  0.00  0.00    +0.000 N 
ATOM      2  C   UNL     1      -2.082  10.818  18.750  0.00  0.00    +0.000 C 
ATOM      3  O   UNL     1      -1.595  10.033  17.951  0.00  0.00    +0.000 OA
ATOM      4  C   UNL     1      -1.319  11.499  19.827  0.00  0.00    +0.000 C 
ATOM      5  C   UNL     1      -0.062  11.239  20.213  0.00  0.00    +0.000 C 
ATOM      6  S   UNL     1      -2.305  12.702  20.563  0.00  0.00    +0.000 S 
ATOM      7  C   UNL     1      -3.699  12.310  19.557  0.00  0.00    +0.000 C 
ATOM      8  S   UNL     1      -5.113  13.190  19.647  0.00  0.00    +0.000 S 
ENDROOT
BRANCH   5   9
ATOM      9  C   UNL     1       0.800  10.201  19.647  0.00  0.00    +0.000 A 
ATOM     10  C   UNL     1       1.456  10.419  18.433  0.00  0.00    +0.000 A 
ATOM     11  C   UNL     1       2.230   9.407  17.860  0.00  0.00    +0.000 A 
ATOM     12  C   UNL     1       2.371   8.165  18.498  0.00  0.00    +0.000 A 
ATOM     13  C   UNL     1       3.123   7.130  17.918  0.00  0.00    +0.000 A 
ATOM     14  C   UNL     1       3.266   5.903  18.568  0.00  0.00    +0.000 A 
ATOM     15  C   UNL     1       2.665   5.698  19.807  0.00  0.00    +0.000 A 
ATOM     16  C   UNL     1       1.907   6.715  20.392  0.00  0.00    +0.000 A 
ATOM     17  C   UNL     1       1.742   7.951  19.745  0.00  0.00    +0.000 A 
ATOM     18  C   UNL     1       0.958   8.975  20.306  0.00  0.00    +0.000 A 
ENDBRANCH   5   9
BRANCH   1  19
ATOM     19  C   UNL     1      -4.323  10.634  17.763  0.00  0.00    +0.000 C 
BRANCH  19  20
ATOM     20  C   UNL     1      -4.461  11.485  16.492  0.00  0.00    +0.000 C 
BRANCH  20  22
ATOM     21  O   UNL     1      -4.048  10.190  14.496  0.00  0.00    +0.000 OA
ATOM     22  C   UNL     1      -3.623  10.923  15.378  0.00  0.00    +0.000 C 
BRANCH  22  23
ATOM     23  O   UNL     1      -2.319  11.267  15.463  0.00  0.00    +0.000 OA
ATOM     24  H   UNL     1      -2.142  12.087  15.964  0.00  0.00    +0.000 HD
ENDBRANCH  22  23
ENDBRANCH  20  22
ENDBRANCH  19  20
ENDBRANCH   1  19
TORSDOF 5
ENDMDL
MODEL 9
REMARK VINA RESULT:      -6.5      2.115      2.741
REMARK  Name = 
REMARK  5 active torsions:
REMARK  status: ('A' for Active; 'I' for Inactive)
REMARK    1  A    between atoms: C_2  and  O_3
REMARK    2  A    between atoms: C_2  and  C_4
REMARK    3  A    between atoms: C_4  and  C_5
REMARK    4  A    between atoms: C_5  and  N_6
REMARK    5  A    between atoms: C_10  and  C_11
REMARK                            x       y       z     vdW  Elec       q    Type
REMARK                         _______ _______ _______ _____ _____    ______ ____
ROOT
ATOM      1  N   UNL     1       2.941   4.728  18.112  0.00  0.00    +0.000 N 
ATOM      2  C   UNL     1       2.498   5.944  18.607  0.00  0.00    +0.000 C 
ATOM      3  O   UNL     1       1.695   6.076  19.519  0.00  0.00    +0.000 OA
ATOM      4  C   UNL     1       3.164   7.072  17.909  0.00  0.00    +0.000 C 
ATOM      5  C   UNL     1       2.873   8.376  18.021  0.00  0.00    +0.000 C 
ATOM      6  S   UNL     1       4.398   6.464  16.874  0.00  0.00    +0.000 S 
ATOM      7  C   UNL     1       4.037   4.785  17.274  0.00  0.00    +0.000 C 
ATOM      8  S   UNL     1       4.955   3.530  16.671  0.00  0.00    +0.000 S 
ENDROOT
BRANCH   5   9
ATOM      9  C   UNL     1       1.809   8.938  18.854  0.00  0.00    +0.000 A 
ATOM     10  C   UNL     1       0.776   9.673  18.268  0.00  0.00    +0.000 A 
ATOM     11  C   UNL     1      -0.207  10.262  19.067  0.00  0.00    +0.000 A 
ATOM     12  C   UNL     1      -0.181  10.116  20.463  0.00  0.00    +0.000 A 
ATOM     13  C   UNL     1      -1.146  10.727  21.278  0.00  0.00    +0.000 A 
ATOM     14  C   UNL     1      -1.116  10.564  22.664  0.00  0.00    +0.000 A 
ATOM     15  C   UNL     1      -0.125   9.783  23.250  0.00  0.00    +0.000 A 
ATOM     16  C   UNL     1       0.848   9.176  22.454  0.00  0.00    +0.000 A 
ATOM     17  C   UNL     1       0.840   9.341  21.059  0.00  0.00    +0.000 A 
ATOM     18  C   UNL     1       1.829   8.761  20.244  0.00  0.00    +0.000 A 
ENDBRANCH   5   9
BRANCH   1  19
ATOM     19  C   UNL     1       2.367   3.493  18.675  0.00  0.00    +0.000 C 
BRANCH  19  20
ATOM     20  C   UNL     1       2.917   3.160  20.069  0.00  0.00    +0.000 C 
BRANCH  20  22
ATOM     21  O   UNL     1       1.923   2.438  22.148  0.00  0.00    +0.000 OA
ATOM     22  C   UNL     1       1.797   2.967  21.053  0.00  0.00    +0.000 C 
BRANCH  22  23
ATOM     23  O   UNL     1       0.601   3.395  20.593  0.00  0.00    +0.000 OA
ATOM     24  H   UNL     1       0.180   4.095  21.128  0.00  0.00    +0.000 HD
ENDBRANCH  22  23
ENDBRANCH  20  22
ENDBRANCH  19  20
ENDBRANCH   1  19
TORSDOF 5
ENDMDL
