MODEL 1
REMARK VINA RESULT:      -7.4      0.000      0.000
REMARK  Name = 
REMARK  10 active torsions:
REMARK  status: ('A' for Active; 'I' for Inactive)
REMARK    1  A    between atoms: C_1  and  C_2
REMARK    2  A    between atoms: C_2  and  C_3
REMARK    3  A    between atoms: C_3  and  C_4
REMARK    4  A    between atoms: C_4  and  N_5
REMARK    5  A    between atoms: C_4  and  C_17
REMARK    6  A    between atoms: N_5  and  C_6
REMARK    7  A    between atoms: C_10  and  O_12
REMARK    8  A    between atoms: O_12  and  C_13
REMARK    9  A    between atoms: C_13  and  C_14
REMARK   10  A    between atoms: N_21  and  C_22
REMARK                            x       y       z     vdW  Elec       q    Type
REMARK                         _______ _______ _______ _____ _____    ______ ____
ROOT
ATOM      1  N   UNL     1       4.128   5.759  19.712  0.00  0.00    +0.000 NA
ATOM      2  H   UNL     1       4.422   6.645  19.299  0.00  0.00    +0.000 HD
ENDROOT
BRANCH   1   3
ATOM      3  C   UNL     1       5.009   4.687  19.260  0.00  0.00    +0.000 C 
ATOM      4  C   UNL     1       6.278   5.397  18.727  0.00  0.00    +0.000 C 
ATOM      5  C   UNL     1       6.014   6.048  17.374  0.00  0.00    +0.000 C 
ATOM      6  N   UNL     1       5.654   5.007  16.436  0.00  0.00    +0.000 N 
ATOM      7  C   UNL     1       6.532   4.729  15.408  0.00  0.00    +0.000 C 
ATOM      8  O   UNL     1       7.594   5.325  15.254  0.00  0.00    +0.000 OA
ATOM      9  C   UNL     1       4.430   4.275  16.752  0.00  0.00    +0.000 C 
ATOM     10  C   UNL     1       4.473   3.715  18.183  0.00  0.00    +0.000 C 
BRANCH   7  11
ATOM     11  O   UNL     1       6.079   3.775  14.550  0.00  0.00    +0.000 OA
BRANCH  11  12
ATOM     12  C   UNL     1       6.518   3.968  13.196  0.00  0.00    +0.000 C 
ATOM     13  C   UNL     1       5.533   3.268  12.275  0.00  0.00    +0.000 C 
ENDBRANCH  11  12
ENDBRANCH   7  11
ENDBRANCH   1   3
BRANCH   1  14
ATOM     14  C   UNL     1       2.681   5.706  19.510  0.00  0.00    +0.000 C 
BRANCH  14  15
ATOM     15  C   UNL     1       2.279   7.086  18.994  0.00  0.00    +0.000 A 
ATOM     16  N   UNL     1       2.484   7.489  17.749  0.00  0.00    +0.000 NA
ATOM     17  C   UNL     1       2.089   8.795  17.700  0.00  0.00    +0.000 A 
ATOM     18  C   UNL     1       1.649   9.217  18.927  0.00  0.00    +0.000 A 
ATOM     19  N   UNL     1       1.741   8.116  19.742  0.00  0.00    +0.000 N 
ATOM     20  C   UNL     1       1.345   8.116  21.134  0.00  0.00    +0.000 C 
ENDBRANCH  14  15
BRANCH  14  21
ATOM     21  C   UNL     1       1.748   5.276  20.670  0.00  0.00    +0.000 C 
BRANCH  21  23
ATOM     22  C   UNL     1       1.339   2.763  21.152  0.00  0.00    +0.000 C 
ATOM     23  C   UNL     1       1.012   3.970  20.286  0.00  0.00    +0.000 C 
ENDBRANCH  21  23
ENDBRANCH  14  21
ENDBRANCH   1  14
TORSDOF 7
ENDMDL
MODEL 2
REMARK VINA RESULT:      -7.4      0.596      1.324
REMARK  Name = 
REMARK  10 active torsions:
REMARK  status: ('A' for Active; 'I' for Inactive)
REMARK    1  A    between atoms: C_1  and  C_2
REMARK    2  A    between atoms: C_2  and  C_3
REMARK    3  A    between atoms: C_3  and  C_4
REMARK    4  A    between atoms: C_4  and  N_5
REMARK    5  A    between atoms: C_4  and  C_17
REMARK    6  A    between atoms: N_5  and  C_6
REMARK    7  A    between atoms: C_10  and  O_12
REMARK    8  A    between atoms: O_12  and  C_13
REMARK    9  A    between atoms: C_13  and  C_14
REMARK   10  A    between atoms: N_21  and  C_22
REMARK                            x       y       z     vdW  Elec       q    Type
REMARK                         _______ _______ _______ _____ _____    ______ ____
ROOT
ATOM      1  N   UNL     1       4.008   5.848  19.746  0.00  0.00    +0.000 NA
ATOM      2  H   UNL     1       4.173   6.652  19.139  0.00  0.00    +0.000 HD
ENDROOT
BRANCH   1   3
ATOM      3  C   UNL     1       4.796   4.710  19.282  0.00  0.00    +0.000 C 
ATOM      4  C   UNL     1       6.163   5.302  18.860  0.00  0.00    +0.000 C 
ATOM      5  C   UNL     1       6.052   6.047  17.534  0.00  0.00    +0.000 C 
ATOM      6  N   UNL     1       5.640   5.100  16.520  0.00  0.00    +0.000 N 
ATOM      7  C   UNL     1       6.544   4.780  15.527  0.00  0.00    +0.000 C 
ATOM      8  O   UNL     1       7.670   5.263  15.465  0.00  0.00    +0.000 OA
ATOM      9  C   UNL     1       4.328   4.491  16.727  0.00  0.00    +0.000 C 
ATOM     10  C   UNL     1       4.226   3.859  18.124  0.00  0.00    +0.000 C 
BRANCH   7  11
ATOM     11  O   UNL     1       6.044   3.926  14.593  0.00  0.00    +0.000 OA
BRANCH  11  12
ATOM     12  C   UNL     1       6.512   4.196  13.262  0.00  0.00    +0.000 C 
ATOM     13  C   UNL     1       5.889   3.176  12.325  0.00  0.00    +0.000 C 
ENDBRANCH  11  12
ENDBRANCH   7  11
ENDBRANCH   1   3
BRANCH   1  14
ATOM     14  C   UNL     1       2.555   5.772  19.892  0.00  0.00    +0.000 C 
BRANCH  14  15
ATOM     15  C   UNL     1       2.058   7.217  19.879  0.00  0.00    +0.000 A 
ATOM     16  N   UNL     1       1.414   7.776  20.892  0.00  0.00    +0.000 NA
ATOM     17  C   UNL     1       1.049   9.023  20.471  0.00  0.00    +0.000 A 
ATOM     18  C   UNL     1       1.456   9.239  19.180  0.00  0.00    +0.000 A 
ATOM     19  N   UNL     1       2.126   8.098  18.816  0.00  0.00    +0.000 N 
ATOM     20  C   UNL     1       2.751   7.915  17.525  0.00  0.00    +0.000 C 
ENDBRANCH  14  15
BRANCH  14  21
ATOM     21  C   UNL     1       1.932   5.003  21.083  0.00  0.00    +0.000 C 
BRANCH  21  23
ATOM     22  C   UNL     1       1.628   2.461  21.487  0.00  0.00    +0.000 C 
ATOM     23  C   UNL     1       1.356   3.656  20.585  0.00  0.00    +0.000 C 
ENDBRANCH  21  23
ENDBRANCH  14  21
ENDBRANCH   1  14
TORSDOF 7
ENDMDL
MODEL 3
REMARK VINA RESULT:      -7.0      3.036      6.303
REMARK  Name = 
REMARK  10 active torsions:
REMARK  status: ('A' for Active; 'I' for Inactive)
REMARK    1  A    between atoms: C_1  and  C_2
REMARK    2  A    between atoms: C_2  and  C_3
REMARK    3  A    between atoms: C_3  and  C_4
REMARK    4  A    between atoms: C_4  and  N_5
REMARK    5  A    between atoms: C_4  and  C_17
REMARK    6  A    between atoms: N_5  and  C_6
REMARK    7  A    between atoms: C_10  and  O_12
REMARK    8  A    between atoms: O_12  and  C_13
REMARK    9  A    between atoms: C_13  and  C_14
REMARK   10  A    between atoms: N_21  and  C_22
REMARK                            x       y       z     vdW  Elec       q    Type
REMARK                         _______ _______ _______ _____ _____    ______ ____
ROOT
ATOM      1  N   UNL     1       4.934   5.792  16.759  0.00  0.00    +0.000 NA
ATOM      2  H   UNL     1       4.869   6.625  17.347  0.00  0.00    +0.000 HD
ENDROOT
BRANCH   1   3
ATOM      3  C   UNL     1       3.850   4.871  17.087  0.00  0.00    +0.000 C 
ATOM      4  C   UNL     1       2.714   5.759  17.653  0.00  0.00    +0.000 C 
ATOM      5  C   UNL     1       3.038   6.228  19.067  0.00  0.00    +0.000 C 
ATOM      6  N   UNL     1       3.158   5.059  19.912  0.00  0.00    +0.000 N 
ATOM      7  C   UNL     1       2.201   4.864  20.887  0.00  0.00    +0.000 C 
ATOM      8  O   UNL     1       1.263   5.635  21.070  0.00  0.00    +0.000 OA
ATOM      9  C   UNL     1       4.236   4.139  19.560  0.00  0.00    +0.000 C 
ATOM     10  C   UNL     1       4.149   3.725  18.082  0.00  0.00    +0.000 C 
BRANCH   7  11
ATOM     11  O   UNL     1       2.431   3.771  21.663  0.00  0.00    +0.000 OA
BRANCH  11  12
ATOM     12  C   UNL     1       1.391   2.783  21.584  0.00  0.00    +0.000 C 
ATOM     13  C   UNL     1       1.140   2.476  20.117  0.00  0.00    +0.000 C 
ENDBRANCH  11  12
ENDBRANCH   7  11
ENDBRANCH   1   3
BRANCH   1  14
ATOM     14  C   UNL     1       6.337   5.387  16.827  0.00  0.00    +0.000 C 
BRANCH  14  15
ATOM     15  C   UNL     1       7.084   6.567  17.447  0.00  0.00    +0.000 A 
ATOM     16  N   UNL     1       7.172   7.757  16.873  0.00  0.00    +0.000 NA
ATOM     17  C   UNL     1       7.990   8.506  17.670  0.00  0.00    +0.000 A 
ATOM     18  C   UNL     1       8.429   7.773  18.741  0.00  0.00    +0.000 A 
ATOM     19  N   UNL     1       7.824   6.547  18.613  0.00  0.00    +0.000 N 
ATOM     20  C   UNL     1       7.995   5.468  19.562  0.00  0.00    +0.000 C 
ENDBRANCH  14  15
BRANCH  14  21
ATOM     21  C   UNL     1       7.069   4.902  15.551  0.00  0.00    +0.000 C 
BRANCH  21  23
ATOM     22  C   UNL     1       5.947   3.922  13.430  0.00  0.00    +0.000 C 
ATOM     23  C   UNL     1       6.272   3.743  14.906  0.00  0.00    +0.000 C 
ENDBRANCH  21  23
ENDBRANCH  14  21
ENDBRANCH   1  14
TORSDOF 7
ENDMDL
MODEL 4
REMARK VINA RESULT:      -6.8      3.258      6.461
REMARK  Name = 
REMARK  10 active torsions:
REMARK  status: ('A' for Active; 'I' for Inactive)
REMARK    1  A    between atoms: C_1  and  C_2
REMARK    2  A    between atoms: C_2  and  C_3
REMARK    3  A    between atoms: C_3  and  C_4
REMARK    4  A    between atoms: C_4  and  N_5
REMARK    5  A    between atoms: C_4  and  C_17
REMARK    6  A    between atoms: N_5  and  C_6
REMARK    7  A    between atoms: C_10  and  O_12
REMARK    8  A    between atoms: O_12  and  C_13
REMARK    9  A    between atoms: C_13  and  C_14
REMARK   10  A    between atoms: N_21  and  C_22
REMARK                            x       y       z     vdW  Elec       q    Type
REMARK                         _______ _______ _______ _____ _____    ______ ____
ROOT
ATOM      1  N   UNL     1       5.391   4.669  16.943  0.00  0.00    +0.000 NA
ATOM      2  H   UNL     1       4.987   5.605  16.993  0.00  0.00    +0.000 HD
ENDROOT
BRANCH   1   3
ATOM      3  C   UNL     1       5.044   3.917  18.145  0.00  0.00    +0.000 C 
ATOM      4  C   UNL     1       4.085   2.799  17.667  0.00  0.00    +0.000 C 
ATOM      5  C   UNL     1       2.703   3.359  17.352  0.00  0.00    +0.000 C 
ATOM      6  N   UNL     1       2.160   3.927  18.568  0.00  0.00    +0.000 N 
ATOM      7  C   UNL     1       1.070   3.305  19.142  0.00  0.00    +0.000 C 
ATOM      8  O   UNL     1       0.542   2.303  18.668  0.00  0.00    +0.000 OA
ATOM      9  C   UNL     1       2.909   5.051  19.123  0.00  0.00    +0.000 C 
ATOM     10  C   UNL     1       4.390   4.687  19.317  0.00  0.00    +0.000 C 
BRANCH   7  11
ATOM     11  O   UNL     1       0.601   3.943  20.248  0.00  0.00    +0.000 OA
BRANCH  11  12
ATOM     12  C   UNL     1       1.511   3.908  21.359  0.00  0.00    +0.000 C 
ATOM     13  C   UNL     1       1.611   2.472  21.843  0.00  0.00    +0.000 C 
ENDBRANCH  11  12
ENDBRANCH   7  11
ENDBRANCH   1   3
BRANCH   1  14
ATOM     14  C   UNL     1       6.780   4.875  16.536  0.00  0.00    +0.000 C 
BRANCH  14  15
ATOM     15  C   UNL     1       7.218   6.184  17.191  0.00  0.00    +0.000 A 
ATOM     16  N   UNL     1       7.112   7.365  16.603  0.00  0.00    +0.000 NA
ATOM     17  C   UNL     1       7.692   8.267  17.449  0.00  0.00    +0.000 A 
ATOM     18  C   UNL     1       8.178   7.642  18.567  0.00  0.00    +0.000 A 
ATOM     19  N   UNL     1       7.846   6.318  18.415  0.00  0.00    +0.000 N 
ATOM     20  C   UNL     1       8.151   5.299  19.395  0.00  0.00    +0.000 C 
ENDBRANCH  14  15
BRANCH  14  21
ATOM     21  C   UNL     1       7.159   4.876  15.034  0.00  0.00    +0.000 C 
BRANCH  21  23
ATOM     22  C   UNL     1       6.267   3.564  12.985  0.00  0.00    +0.000 C 
ATOM     23  C   UNL     1       5.940   4.429  14.192  0.00  0.00    +0.000 C 
ENDBRANCH  21  23
ENDBRANCH  14  21
ENDBRANCH   1  14
TORSDOF 7
ENDMDL
MODEL 5
REMARK VINA RESULT:      -6.8      1.455      3.184
REMARK  Name = 
REMARK  10 active torsions:
REMARK  status: ('A' for Active; 'I' for Inactive)
REMARK    1  A    between atoms: C_1  and  C_2
REMARK    2  A    between atoms: C_2  and  C_3
REMARK    3  A    between atoms: C_3  and  C_4
REMARK    4  A    between atoms: C_4  and  N_5
REMARK    5  A    between atoms: C_4  and  C_17
REMARK    6  A    between atoms: N_5  and  C_6
REMARK    7  A    between atoms: C_10  and  O_12
REMARK    8  A    between atoms: O_12  and  C_13
REMARK    9  A    between atoms: C_13  and  C_14
REMARK   10  A    between atoms: N_21  and  C_22
REMARK                            x       y       z     vdW  Elec       q    Type
REMARK                         _______ _______ _______ _____ _____    ______ ____
ROOT
ATOM      1  N   UNL     1       3.871   5.955  18.249  0.00  0.00    +0.000 NA
ATOM      2  H   UNL     1       3.223   5.820  17.472  0.00  0.00    +0.000 HD
ENDROOT
BRANCH   1   3
ATOM      3  C   UNL     1       5.043   5.105  18.068  0.00  0.00    +0.000 C 
ATOM      4  C   UNL     1       6.116   6.016  17.422  0.00  0.00    +0.000 C 
ATOM      5  C   UNL     1       5.803   6.273  15.952  0.00  0.00    +0.000 C 
ATOM      6  N   UNL     1       5.817   5.002  15.260  0.00  0.00    +0.000 N 
ATOM      7  C   UNL     1       6.822   4.776  14.341  0.00  0.00    +0.000 C 
ATOM      8  O   UNL     1       7.693   5.602  14.084  0.00  0.00    +0.000 OA
ATOM      9  C   UNL     1       4.812   4.038  15.700  0.00  0.00    +0.000 C 
ATOM     10  C   UNL     1       4.883   3.821  17.221  0.00  0.00    +0.000 C 
BRANCH   7  11
ATOM     11  O   UNL     1       6.717   3.578  13.706  0.00  0.00    +0.000 OA
BRANCH  11  12
ATOM     12  C   UNL     1       6.603   3.695  12.278  0.00  0.00    +0.000 C 
ATOM     13  C   UNL     1       5.382   2.908  11.834  0.00  0.00    +0.000 C 
ENDBRANCH  11  12
ENDBRANCH   7  11
ENDBRANCH   1   3
BRANCH   1  14
ATOM     14  C   UNL     1       3.043   5.881  19.452  0.00  0.00    +0.000 C 
BRANCH  14  15
ATOM     15  C   UNL     1       2.177   4.634  19.288  0.00  0.00    +0.000 A 
ATOM     16  N   UNL     1       1.585   4.301  18.152  0.00  0.00    +0.000 NA
ATOM     17  C   UNL     1       0.830   3.196  18.424  0.00  0.00    +0.000 A 
ATOM     18  C   UNL     1       0.939   2.845  19.744  0.00  0.00    +0.000 A 
ATOM     19  N   UNL     1       1.824   3.744  20.285  0.00  0.00    +0.000 N 
ATOM     20  C   UNL     1       2.248   3.715  21.668  0.00  0.00    +0.000 C 
ENDBRANCH  14  15
BRANCH  14  21
ATOM     21  C   UNL     1       2.168   7.090  19.869  0.00  0.00    +0.000 C 
BRANCH  21  23
ATOM     22  C   UNL     1       1.290   9.362  18.983  0.00  0.00    +0.000 C 
ATOM     23  C   UNL     1       2.176   8.149  18.741  0.00  0.00    +0.000 C 
ENDBRANCH  21  23
ENDBRANCH  14  21
ENDBRANCH   1  14
TORSDOF 7
ENDMDL
MODEL 6
REMARK VINA RESULT:      -6.5      3.188      6.378
REMARK  Name = 
REMARK  10 active torsions:
REMARK  status: ('A' for Active; 'I' for Inactive)
REMARK    1  A    between atoms: C_1  and  C_2
REMARK    2  A    between atoms: C_2  and  C_3
REMARK    3  A    between atoms: C_3  and  C_4
REMARK    4  A    between atoms: C_4  and  N_5
REMARK    5  A    between atoms: C_4  and  C_17
REMARK    6  A    between atoms: N_5  and  C_6
REMARK    7  A    between atoms: C_10  and  O_12
REMARK    8  A    between atoms: O_12  and  C_13
REMARK    9  A    between atoms: C_13  and  C_14
REMARK   10  A    between atoms: N_21  and  C_22
REMARK                            x       y       z     vdW  Elec       q    Type
REMARK                         _______ _______ _______ _____ _____    ______ ____
ROOT
ATOM      1  N   UNL     1       5.889   4.252  17.256  0.00  0.00    +0.000 NA
ATOM      2  H   UNL     1       5.936   3.243  17.106  0.00  0.00    +0.000 HD
ENDROOT
BRANCH   1   3
ATOM      3  C   UNL     1       4.530   4.725  17.015  0.00  0.00    +0.000 C 
ATOM      4  C   UNL     1       4.287   5.831  18.071  0.00  0.00    +0.000 C 
ATOM      5  C   UNL     1       4.067   5.231  19.454  0.00  0.00    +0.000 C 
ATOM      6  N   UNL     1       2.887   4.395  19.400  0.00  0.00    +0.000 N 
ATOM      7  C   UNL     1       1.773   4.802  20.106  0.00  0.00    +0.000 C 
ATOM      8  O   UNL     1       1.742   5.829  20.777  0.00  0.00    +0.000 OA
ATOM      9  C   UNL     1       2.971   3.250  18.497  0.00  0.00    +0.000 C 
ATOM     10  C   UNL     1       3.381   3.691  17.082  0.00  0.00    +0.000 C 
BRANCH   7  11
ATOM     11  O   UNL     1       0.736   3.924  20.037  0.00  0.00    +0.000 OA
BRANCH  11  12
ATOM     12  C   UNL     1       1.077   2.599  20.477  0.00  0.00    +0.000 C 
ATOM     13  C   UNL     1       1.474   2.674  21.941  0.00  0.00    +0.000 C 
ENDBRANCH  11  12
ENDBRANCH   7  11
ENDBRANCH   1   3
BRANCH   1  14
ATOM     14  C   UNL     1       7.036   4.797  16.532  0.00  0.00    +0.000 C 
BRANCH  14  15
ATOM     15  C   UNL     1       7.381   6.114  17.225  0.00  0.00    +0.000 A 
ATOM     16  N   UNL     1       7.327   7.292  16.622  0.00  0.00    +0.000 NA
ATOM     17  C   UNL     1       7.797   8.205  17.523  0.00  0.00    +0.000 A 
ATOM     18  C   UNL     1       8.162   7.590  18.692  0.00  0.00    +0.000 A 
ATOM     19  N   UNL     1       7.866   6.262  18.510  0.00  0.00    +0.000 N 
ATOM     20  C   UNL     1       8.072   5.251  19.524  0.00  0.00    +0.000 C 
ENDBRANCH  14  15
BRANCH  14  21
ATOM     21  C   UNL     1       6.960   5.004  14.998  0.00  0.00    +0.000 C 
BRANCH  21  23
ATOM     22  C   UNL     1       6.333   3.702  12.847  0.00  0.00    +0.000 C 
ATOM     23  C   UNL     1       6.182   3.831  14.356  0.00  0.00    +0.000 C 
ENDBRANCH  21  23
ENDBRANCH  14  21
ENDBRANCH   1  14
TORSDOF 7
ENDMDL
MODEL 7
REMARK VINA RESULT:      -6.5      3.472      6.857
REMARK  Name = 
REMARK  10 active torsions:
REMARK  status: ('A' for Active; 'I' for Inactive)
REMARK    1  A    between atoms: C_1  and  C_2
REMARK    2  A    between atoms: C_2  and  C_3
REMARK    3  A    between atoms: C_3  and  C_4
REMARK    4  A    between atoms: C_4  and  N_5
REMARK    5  A    between atoms: C_4  and  C_17
REMARK    6  A    between atoms: N_5  and  C_6
REMARK    7  A    between atoms: C_10  and  O_12
REMARK    8  A    between atoms: O_12  and  C_13
REMARK    9  A    between atoms: C_13  and  C_14
REMARK   10  A    between atoms: N_21  and  C_22
REMARK                            x       y       z     vdW  Elec       q    Type
REMARK                         _______ _______ _______ _____ _____    ______ ____
ROOT
ATOM      1  N   UNL     1       3.757   5.915  19.730  0.00  0.00    +0.000 NA
ATOM      2  H   UNL     1       3.943   6.019  20.729  0.00  0.00    +0.000 HD
ENDROOT
BRANCH   1   3
ATOM      3  C   UNL     1       2.320   5.966  19.488  0.00  0.00    +0.000 C 
ATOM      4  C   UNL     1       2.138   6.944  18.301  0.00  0.00    +0.000 C 
ATOM      5  C   UNL     1       2.336   8.389  18.746  0.00  0.00    +0.000 C 
ATOM      6  N   UNL     1       1.329   8.696  19.740  0.00  0.00    +0.000 N 
ATOM      7  C   UNL     1       0.349   9.609  19.408  0.00  0.00    +0.000 C 
ATOM      8  O   UNL     1       0.298  10.171  18.318  0.00  0.00    +0.000 OA
ATOM      9  C   UNL     1       1.398   7.906  20.967  0.00  0.00    +0.000 C 
ATOM     10  C   UNL     1       1.403   6.400  20.656  0.00  0.00    +0.000 C 
BRANCH   7  11
ATOM     11  O   UNL     1      -0.516   9.870  20.425  0.00  0.00    +0.000 OA
BRANCH  11  12
ATOM     12  C   UNL     1      -0.336  11.170  21.010  0.00  0.00    +0.000 C 
ATOM     13  C   UNL     1      -0.586  11.055  22.504  0.00  0.00    +0.000 C 
ENDBRANCH  11  12
ENDBRANCH   7  11
ENDBRANCH   1   3
BRANCH   1  14
ATOM     14  C   UNL     1       4.571   4.775  19.309  0.00  0.00    +0.000 C 
BRANCH  14  15
ATOM     15  C   UNL     1       5.946   5.347  18.967  0.00  0.00    +0.000 A 
ATOM     16  N   UNL     1       7.007   5.212  19.748  0.00  0.00    +0.000 NA
ATOM     17  C   UNL     1       8.007   5.934  19.160  0.00  0.00    +0.000 A 
ATOM     18  C   UNL     1       7.563   6.535  18.012  0.00  0.00    +0.000 A 
ATOM     19  N   UNL     1       6.258   6.134  17.875  0.00  0.00    +0.000 N 
ATOM     20  C   UNL     1       5.414   6.522  16.766  0.00  0.00    +0.000 C 
ENDBRANCH  14  15
BRANCH  14  21
ATOM     21  C   UNL     1       4.079   3.846  18.171  0.00  0.00    +0.000 C 
BRANCH  21  23
ATOM     22  C   UNL     1       2.064   2.279  18.615  0.00  0.00    +0.000 C 
ATOM     23  C   UNL     1       3.558   2.520  18.774  0.00  0.00    +0.000 C 
ENDBRANCH  21  23
ENDBRANCH  14  21
ENDBRANCH   1  14
TORSDOF 7
ENDMDL
MODEL 8
REMARK VINA RESULT:      -6.5      3.189      6.598
REMARK  Name = 
REMARK  10 active torsions:
REMARK  status: ('A' for Active; 'I' for Inactive)
REMARK    1  A    between atoms: C_1  and  C_2
REMARK    2  A    between atoms: C_2  and  C_3
REMARK    3  A    between atoms: C_3  and  C_4
REMARK    4  A    between atoms: C_4  and  N_5
REMARK    5  A    between atoms: C_4  and  C_17
REMARK    6  A    between atoms: N_5  and  C_6
REMARK    7  A    between atoms: C_10  and  O_12
REMARK    8  A    between atoms: O_12  and  C_13
REMARK    9  A    between atoms: C_13  and  C_14
REMARK   10  A    between atoms: N_21  and  C_22
REMARK                            x       y       z     vdW  Elec       q    Type
REMARK                         _______ _______ _______ _____ _____    ______ ____
ROOT
ATOM      1  N   UNL     1       3.840   5.542  19.677  0.00  0.00    +0.000 NA
ATOM      2  H   UNL     1       4.062   5.836  20.630  0.00  0.00    +0.000 HD
ENDROOT
BRANCH   1   3
ATOM      3  C   UNL     1       2.411   5.702  19.432  0.00  0.00    +0.000 C 
ATOM      4  C   UNL     1       2.308   6.573  18.156  0.00  0.00    +0.000 C 
ATOM      5  C   UNL     1       2.642   8.030  18.458  0.00  0.00    +0.000 C 
ATOM      6  N   UNL     1       1.678   8.523  19.418  0.00  0.00    +0.000 N 
ATOM      7  C   UNL     1       0.783   9.487  18.999  0.00  0.00    +0.000 C 
ATOM      8  O   UNL     1       0.773   9.943  17.860  0.00  0.00    +0.000 OA
ATOM      9  C   UNL     1       1.686   7.853  20.716  0.00  0.00    +0.000 C 
ATOM     10  C   UNL     1       1.549   6.330  20.553  0.00  0.00    +0.000 C 
BRANCH   7  11
ATOM     11  O   UNL     1      -0.045   9.924  19.986  0.00  0.00    +0.000 OA
BRANCH  11  12
ATOM     12  C   UNL     1       0.195  11.287  20.373  0.00  0.00    +0.000 C 
ATOM     13  C   UNL     1      -0.301  11.470  21.797  0.00  0.00    +0.000 C 
ENDBRANCH  11  12
ENDBRANCH   7  11
ENDBRANCH   1   3
BRANCH   1  14
ATOM     14  C   UNL     1       4.512   4.254  19.510  0.00  0.00    +0.000 C 
BRANCH  14  15
ATOM     15  C   UNL     1       5.325   4.370  18.222  0.00  0.00    +0.000 A 
ATOM     16  N   UNL     1       4.927   3.874  17.061  0.00  0.00    +0.000 NA
ATOM     17  C   UNL     1       5.952   4.086  16.183  0.00  0.00    +0.000 A 
ATOM     18  C   UNL     1       7.004   4.706  16.805  0.00  0.00    +0.000 A 
ATOM     19  N   UNL     1       6.589   4.914  18.097  0.00  0.00    +0.000 N 
ATOM     20  C   UNL     1       7.396   5.576  19.099  0.00  0.00    +0.000 C 
ENDBRANCH  14  15
BRANCH  14  21
ATOM     21  C   UNL     1       3.689   2.942  19.507  0.00  0.00    +0.000 C 
BRANCH  21  23
ATOM     22  C   UNL     1       1.713   2.596  21.147  0.00  0.00    +0.000 C 
ATOM     23  C   UNL     1       3.221   2.621  20.946  0.00  0.00    +0.000 C 
ENDBRANCH  21  23
ENDBRANCH  14  21
ENDBRANCH   1  14
TORSDOF 7
ENDMDL
MODEL 9
REMARK VINA RESULT:      -6.4      3.449      7.147
REMARK  Name = 
REMARK  10 active torsions:
REMARK  status: ('A' for Active; 'I' for Inactive)
REMARK    1  A    between atoms: C_1  and  C_2
REMARK    2  A    between atoms: C_2  and  C_3
REMARK    3  A    between atoms: C_3  and  C_4
REMARK    4  A    between atoms: C_4  and  N_5
REMARK    5  A    between atoms: C_4  and  C_17
REMARK    6  A    between atoms: N_5  and  C_6
REMARK    7  A    between atoms: C_10  and  O_12
REMARK    8  A    between atoms: O_12  and  C_13
REMARK    9  A    between atoms: C_13  and  C_14
REMARK   10  A    between atoms: N_21  and  C_22
REMARK                            x       y       z     vdW  Elec       q    Type
REMARK                         _______ _______ _______ _____ _____    ______ ____
ROOT
ATOM      1  N   UNL     1       3.769   5.713  19.898  0.00  0.00    +0.000 NA
ATOM      2  H   UNL     1       3.898   5.238  20.793  0.00  0.00    +0.000 HD
ENDROOT
BRANCH   1   3
ATOM      3  C   UNL     1       2.345   5.833  19.604  0.00  0.00    +0.000 C 
ATOM      4  C   UNL     1       2.263   6.673  18.305  0.00  0.00    +0.000 C 
ATOM      5  C   UNL     1       2.554   8.143  18.584  0.00  0.00    +0.000 C 
ATOM      6  N   UNL     1       1.548   8.635  19.500  0.00  0.00    +0.000 N 
ATOM      7  C   UNL     1       0.645   9.567  19.031  0.00  0.00    +0.000 C 
ATOM      8  O   UNL     1       0.662   9.998  17.881  0.00  0.00    +0.000 OA
ATOM      9  C   UNL     1       1.529   7.995  20.813  0.00  0.00    +0.000 C 
ATOM     10  C   UNL     1       1.433   6.466  20.682  0.00  0.00    +0.000 C 
BRANCH   7  11
ATOM     11  O   UNL     1      -0.224  10.007  19.980  0.00  0.00    +0.000 OA
BRANCH  11  12
ATOM     12  C   UNL     1      -0.168  11.427  20.194  0.00  0.00    +0.000 C 
ATOM     13  C   UNL     1      -1.538  12.007  19.885  0.00  0.00    +0.000 C 
ENDBRANCH  11  12
ENDBRANCH   7  11
ENDBRANCH   1   3
BRANCH   1  14
ATOM     14  C   UNL     1       4.694   5.051  18.979  0.00  0.00    +0.000 C 
BRANCH  14  15
ATOM     15  C   UNL     1       4.366   3.561  19.057  0.00  0.00    +0.000 A 
ATOM     16  N   UNL     1       4.873   2.748  19.970  0.00  0.00    +0.000 NA
ATOM     17  C   UNL     1       4.430   1.495  19.656  0.00  0.00    +0.000 A 
ATOM     18  C   UNL     1       3.652   1.523  18.528  0.00  0.00    +0.000 A 
ATOM     19  N   UNL     1       3.587   2.846  18.167  0.00  0.00    +0.000 N 
ATOM     20  C   UNL     1       2.832   3.328  17.031  0.00  0.00    +0.000 C 
ENDBRANCH  14  15
BRANCH  14  21
ATOM     21  C   UNL     1       6.221   5.271  19.121  0.00  0.00    +0.000 C 
BRANCH  21  23
ATOM     22  C   UNL     1       7.363   6.807  17.373  0.00  0.00    +0.000 C 
ATOM     23  C   UNL     1       6.855   5.414  17.717  0.00  0.00    +0.000 C 
ENDBRANCH  21  23
ENDBRANCH  14  21
ENDBRANCH   1  14
TORSDOF 7
ENDMDL
