MODEL 1
REMARK VINA RESULT:      -7.1      0.000      0.000
REMARK  Name = 
REMARK  5 active torsions:
REMARK  status: ('A' for Active; 'I' for Inactive)
REMARK    1  A    between atoms: C_2  and  C_11
REMARK    2  A    between atoms: N_3  and  C_4
REMARK    3  A    between atoms: C_4  and  C_5
REMARK    4  A    between atoms: C_4  and  C_8
REMARK    5  A    between atoms: C_13  and  C_14
REMARK                            x       y       z     vdW  Elec       q    Type
REMARK                         _______ _______ _______ _____ _____    ______ ____
ROOT
ATOM      1  O   UNL     1       5.903   4.588  18.195  0.00  0.00    +0.000 OA
ATOM      2  C   UNL     1       5.326   4.498  17.114  0.00  0.00    +0.000 C 
ATOM      3  N   UNL     1       3.972   4.273  16.999  0.00  0.00    +0.000 N 
ATOM      4  H   UNL     1       3.583   4.280  16.062  0.00  0.00    +0.000 HD
ENDROOT
BRANCH   2   5
ATOM      5  C   UNL     1       6.047   4.620  15.838  0.00  0.00    +0.000 A 
ATOM      6  C   UNL     1       5.632   4.045  14.608  0.00  0.00    +0.000 A 
ATOM      7  C   UNL     1       6.594   4.395  13.696  0.00  0.00    +0.000 A 
ATOM      8  N   UNL     1       7.503   5.142  14.380  0.00  0.00    +0.000 N 
ATOM      9  N   UNL     1       7.202   5.306  15.688  0.00  0.00    +0.000 NA
ATOM     10  H   UNL     1       8.350   5.572  14.021  0.00  0.00    +0.000 HD
BRANCH   7  11
ATOM     11  C   UNL     1       6.591   3.989  12.237  0.00  0.00    +0.000 C 
ATOM     12  C   UNL     1       6.757   2.531  11.871  0.00  0.00    +0.000 C 
ATOM     13  C   UNL     1       5.425   3.180  11.715  0.00  0.00    +0.000 C 
ENDBRANCH   7  11
ENDBRANCH   2   5
BRANCH   3  14
ATOM     14  C   UNL     1       3.127   4.154  18.164  0.00  0.00    +0.000 C 
BRANCH  14  15
ATOM     15  C   UNL     1       2.375   5.445  18.365  0.00  0.00    +0.000 C 
ATOM     16  C   UNL     1       2.143   6.051  19.730  0.00  0.00    +0.000 C 
ATOM     17  C   UNL     1       3.028   6.758  18.740  0.00  0.00    +0.000 C 
ENDBRANCH  14  15
BRANCH  14  18
ATOM     18  C   UNL     1       2.295   2.903  18.045  0.00  0.00    +0.000 C 
ATOM     19  C   UNL     1       2.175   1.959  19.220  0.00  0.00    +0.000 C 
ATOM     20  C   UNL     1       0.997   2.794  18.812  0.00  0.00    +0.000 C 
ENDBRANCH  14  18
ENDBRANCH   3  14
TORSDOF 5
ENDMDL
MODEL 2
REMARK VINA RESULT:      -6.8      1.105      1.297
REMARK  Name = 
REMARK  5 active torsions:
REMARK  status: ('A' for Active; 'I' for Inactive)
REMARK    1  A    between atoms: C_2  and  C_11
REMARK    2  A    between atoms: N_3  and  C_4
REMARK    3  A    between atoms: C_4  and  C_5
REMARK    4  A    between atoms: C_4  and  C_8
REMARK    5  A    between atoms: C_13  and  C_14
REMARK                            x       y       z     vdW  Elec       q    Type
REMARK                         _______ _______ _______ _____ _____    ______ ____
ROOT
ATOM      1  O   UNL     1       7.083   4.373  18.145  0.00  0.00    +0.000 OA
ATOM      2  C   UNL     1       6.227   4.533  17.277  0.00  0.00    +0.000 C 
ATOM      3  N   UNL     1       4.877   4.572  17.546  0.00  0.00    +0.000 N 
ATOM      4  H   UNL     1       4.259   4.772  16.768  0.00  0.00    +0.000 HD
ENDROOT
BRANCH   2   5
ATOM      5  C   UNL     1       6.584   4.692  15.859  0.00  0.00    +0.000 A 
ATOM      6  C   UNL     1       5.949   4.024  14.778  0.00  0.00    +0.000 A 
ATOM      7  C   UNL     1       6.599   4.452  13.649  0.00  0.00    +0.000 A 
ATOM      8  N   UNL     1       7.549   5.330  14.076  0.00  0.00    +0.000 N 
ATOM      9  N   UNL     1       7.568   5.506  15.416  0.00  0.00    +0.000 NA
ATOM     10  H   UNL     1       8.217   5.844  13.510  0.00  0.00    +0.000 HD
BRANCH   7  11
ATOM     11  C   UNL     1       6.281   3.993  12.242  0.00  0.00    +0.000 C 
ATOM     12  C   UNL     1       6.674   2.598  11.809  0.00  0.00    +0.000 C 
ATOM     13  C   UNL     1       5.239   2.914  12.053  0.00  0.00    +0.000 C 
ENDBRANCH   7  11
ENDBRANCH   2   5
BRANCH   3  14
ATOM     14  C   UNL     1       4.376   4.452  18.895  0.00  0.00    +0.000 C 
BRANCH  14  15
ATOM     15  C   UNL     1       3.537   5.661  19.221  0.00  0.00    +0.000 C 
ATOM     16  C   UNL     1       3.264   6.761  18.220  0.00  0.00    +0.000 C 
ATOM     17  C   UNL     1       2.135   5.889  18.698  0.00  0.00    +0.000 C 
ENDBRANCH  14  15
BRANCH  14  18
ATOM     18  C   UNL     1       3.711   3.110  19.057  0.00  0.00    +0.000 C 
ATOM     19  C   UNL     1       4.393   2.017  19.850  0.00  0.00    +0.000 C 
ATOM     20  C   UNL     1       3.180   2.698  20.412  0.00  0.00    +0.000 C 
ENDBRANCH  14  18
ENDBRANCH   3  14
TORSDOF 5
ENDMDL
MODEL 3
REMARK VINA RESULT:      -6.8      1.307      1.552
REMARK  Name = 
REMARK  5 active torsions:
REMARK  status: ('A' for Active; 'I' for Inactive)
REMARK    1  A    between atoms: C_2  and  C_11
REMARK    2  A    between atoms: N_3  and  C_4
REMARK    3  A    between atoms: C_4  and  C_5
REMARK    4  A    between atoms: C_4  and  C_8
REMARK    5  A    between atoms: C_13  and  C_14
REMARK                            x       y       z     vdW  Elec       q    Type
REMARK                         _______ _______ _______ _____ _____    ______ ____
ROOT
ATOM      1  O   UNL     1       6.117   6.006  18.504  0.00  0.00    +0.000 OA
ATOM      2  C   UNL     1       5.451   5.583  17.562  0.00  0.00    +0.000 C 
ATOM      3  N   UNL     1       4.086   5.410  17.622  0.00  0.00    +0.000 N 
ATOM      4  H   UNL     1       3.622   5.116  16.769  0.00  0.00    +0.000 HD
ENDROOT
BRANCH   2   5
ATOM      5  C   UNL     1       6.069   5.217  16.279  0.00  0.00    +0.000 A 
ATOM      6  C   UNL     1       5.585   4.214  15.397  0.00  0.00    +0.000 A 
ATOM      7  C   UNL     1       6.462   4.199  14.342  0.00  0.00    +0.000 A 
ATOM      8  N   UNL     1       7.390   5.157  14.614  0.00  0.00    +0.000 N 
ATOM      9  N   UNL     1       7.181   5.803  15.784  0.00  0.00    +0.000 NA
ATOM     10  H   UNL     1       8.189   5.425  14.049  0.00  0.00    +0.000 HD
BRANCH   7  11
ATOM     11  C   UNL     1       6.365   3.269  13.151  0.00  0.00    +0.000 C 
ATOM     12  C   UNL     1       5.351   3.555  12.066  0.00  0.00    +0.000 C 
ATOM     13  C   UNL     1       6.799   3.784  11.797  0.00  0.00    +0.000 C 
ENDBRANCH   7  11
ENDBRANCH   2   5
BRANCH   3  14
ATOM     14  C   UNL     1       3.336   5.747  18.809  0.00  0.00    +0.000 C 
BRANCH  14  15
ATOM     15  C   UNL     1       2.301   6.788  18.462  0.00  0.00    +0.000 C 
ATOM     16  C   UNL     1       2.014   7.981  19.344  0.00  0.00    +0.000 C 
ATOM     17  C   UNL     1       2.629   8.186  17.987  0.00  0.00    +0.000 C 
ENDBRANCH  14  15
BRANCH  14  18
ATOM     18  C   UNL     1       2.828   4.481  19.449  0.00  0.00    +0.000 C 
ATOM     19  C   UNL     1       2.492   4.460  20.923  0.00  0.00    +0.000 C 
ATOM     20  C   UNL     1       1.389   4.401  19.907  0.00  0.00    +0.000 C 
ENDBRANCH  14  18
ENDBRANCH   3  14
TORSDOF 5
ENDMDL
MODEL 4
REMARK VINA RESULT:      -6.7      1.094      1.303
REMARK  Name = 
REMARK  5 active torsions:
REMARK  status: ('A' for Active; 'I' for Inactive)
REMARK    1  A    between atoms: C_2  and  C_11
REMARK    2  A    between atoms: N_3  and  C_4
REMARK    3  A    between atoms: C_4  and  C_5
REMARK    4  A    between atoms: C_4  and  C_8
REMARK    5  A    between atoms: C_13  and  C_14
REMARK                            x       y       z     vdW  Elec       q    Type
REMARK                         _______ _______ _______ _____ _____    ______ ____
ROOT
ATOM      1  O   UNL     1       6.188   5.459  18.907  0.00  0.00    +0.000 OA
ATOM      2  C   UNL     1       5.562   4.940  17.985  0.00  0.00    +0.000 C 
ATOM      3  N   UNL     1       4.302   4.405  18.136  0.00  0.00    +0.000 N 
ATOM      4  H   UNL     1       3.847   4.058  17.298  0.00  0.00    +0.000 HD
ENDROOT
BRANCH   2   5
ATOM      5  C   UNL     1       6.120   4.844  16.628  0.00  0.00    +0.000 A 
ATOM      6  C   UNL     1       5.743   3.879  15.657  0.00  0.00    +0.000 A 
ATOM      7  C   UNL     1       6.514   4.146  14.555  0.00  0.00    +0.000 A 
ATOM      8  N   UNL     1       7.282   5.220  14.888  0.00  0.00    +0.000 N 
ATOM      9  N   UNL     1       7.067   5.678  16.142  0.00  0.00    +0.000 NA
ATOM     10  H   UNL     1       7.971   5.693  14.311  0.00  0.00    +0.000 HD
BRANCH   7  11
ATOM     11  C   UNL     1       6.477   3.359  13.262  0.00  0.00    +0.000 C 
ATOM     12  C   UNL     1       5.434   3.691  12.219  0.00  0.00    +0.000 C 
ATOM     13  C   UNL     1       6.857   4.061  11.978  0.00  0.00    +0.000 C 
ENDBRANCH   7  11
ENDBRANCH   2   5
BRANCH   3  14
ATOM     14  C   UNL     1       3.614   4.445  19.405  0.00  0.00    +0.000 C 
BRANCH  14  15
ATOM     15  C   UNL     1       2.418   5.355  19.292  0.00  0.00    +0.000 C 
ATOM     16  C   UNL     1       1.890   6.160  20.457  0.00  0.00    +0.000 C 
ATOM     17  C   UNL     1       2.498   6.866  19.277  0.00  0.00    +0.000 C 
ENDBRANCH  14  15
BRANCH  14  18
ATOM     18  C   UNL     1       3.346   3.036  19.866  0.00  0.00    +0.000 C 
ATOM     19  C   UNL     1       2.779   2.786  21.246  0.00  0.00    +0.000 C 
ATOM     20  C   UNL     1       1.919   2.564  20.036  0.00  0.00    +0.000 C 
ENDBRANCH  14  18
ENDBRANCH   3  14
TORSDOF 5
ENDMDL
MODEL 5
REMARK VINA RESULT:      -6.6      2.572      6.687
REMARK  Name = 
REMARK  5 active torsions:
REMARK  status: ('A' for Active; 'I' for Inactive)
REMARK    1  A    between atoms: C_2  and  C_11
REMARK    2  A    between atoms: N_3  and  C_4
REMARK    3  A    between atoms: C_4  and  C_5
REMARK    4  A    between atoms: C_4  and  C_8
REMARK    5  A    between atoms: C_13  and  C_14
REMARK                            x       y       z     vdW  Elec       q    Type
REMARK                         _______ _______ _______ _____ _____    ______ ____
ROOT
ATOM      1  O   UNL     1       3.932   7.347  17.049  0.00  0.00    +0.000 OA
ATOM      2  C   UNL     1       4.226   6.422  17.802  0.00  0.00    +0.000 C 
ATOM      3  N   UNL     1       5.339   5.631  17.626  0.00  0.00    +0.000 N 
ATOM      4  H   UNL     1       5.526   4.935  18.340  0.00  0.00    +0.000 HD
ENDROOT
BRANCH   2   5
ATOM      5  C   UNL     1       3.397   6.080  18.967  0.00  0.00    +0.000 A 
ATOM      6  C   UNL     1       3.431   4.838  19.656  0.00  0.00    +0.000 A 
ATOM      7  C   UNL     1       2.499   4.947  20.656  0.00  0.00    +0.000 A 
ATOM      8  N   UNL     1       1.972   6.197  20.540  0.00  0.00    +0.000 N 
ATOM      9  N   UNL     1       2.498   6.920  19.526  0.00  0.00    +0.000 NA
ATOM     10  H   UNL     1       1.254   6.623  21.117  0.00  0.00    +0.000 HD
BRANCH   7  11
ATOM     11  C   UNL     1       2.163   3.853  21.648  0.00  0.00    +0.000 C 
ATOM     12  C   UNL     1       1.229   2.738  21.236  0.00  0.00    +0.000 C 
ATOM     13  C   UNL     1       2.684   2.458  21.387  0.00  0.00    +0.000 C 
ENDBRANCH   7  11
ENDBRANCH   2   5
BRANCH   3  14
ATOM     14  C   UNL     1       6.261   5.860  16.538  0.00  0.00    +0.000 C 
BRANCH  14  15
ATOM     15  C   UNL     1       7.555   6.401  17.091  0.00  0.00    +0.000 C 
ATOM     16  C   UNL     1       7.694   7.813  17.611  0.00  0.00    +0.000 C 
ATOM     17  C   UNL     1       7.811   6.653  18.561  0.00  0.00    +0.000 C 
ENDBRANCH  14  15
BRANCH  14  18
ATOM     18  C   UNL     1       6.358   4.611  15.701  0.00  0.00    +0.000 C 
ATOM     19  C   UNL     1       5.482   4.449  14.478  0.00  0.00    +0.000 C 
ATOM     20  C   UNL     1       6.956   4.687  14.313  0.00  0.00    +0.000 C 
ENDBRANCH  14  18
ENDBRANCH   3  14
TORSDOF 5
ENDMDL
MODEL 6
REMARK VINA RESULT:      -6.5      1.261      1.547
REMARK  Name = 
REMARK  5 active torsions:
REMARK  status: ('A' for Active; 'I' for Inactive)
REMARK    1  A    between atoms: C_2  and  C_11
REMARK    2  A    between atoms: N_3  and  C_4
REMARK    3  A    between atoms: C_4  and  C_5
REMARK    4  A    between atoms: C_4  and  C_8
REMARK    5  A    between atoms: C_13  and  C_14
REMARK                            x       y       z     vdW  Elec       q    Type
REMARK                         _______ _______ _______ _____ _____    ______ ____
ROOT
ATOM      1  O   UNL     1       6.452   4.443  18.876  0.00  0.00    +0.000 OA
ATOM      2  C   UNL     1       5.686   4.431  17.915  0.00  0.00    +0.000 C 
ATOM      3  N   UNL     1       4.323   4.274  18.038  0.00  0.00    +0.000 N 
ATOM      4  H   UNL     1       3.775   4.342  17.188  0.00  0.00    +0.000 HD
ENDROOT
BRANCH   2   5
ATOM      5  C   UNL     1       6.173   4.580  16.535  0.00  0.00    +0.000 A 
ATOM      6  C   UNL     1       5.468   4.170  15.372  0.00  0.00    +0.000 A 
ATOM      7  C   UNL     1       6.287   4.484  14.317  0.00  0.00    +0.000 A 
ATOM      8  N   UNL     1       7.397   5.054  14.862  0.00  0.00    +0.000 N 
ATOM      9  N   UNL     1       7.363   5.135  16.211  0.00  0.00    +0.000 NA
ATOM     10  H   UNL     1       8.213   5.411  14.376  0.00  0.00    +0.000 HD
BRANCH   7  11
ATOM     11  C   UNL     1       5.964   4.213  12.863  0.00  0.00    +0.000 C 
ATOM     12  C   UNL     1       7.092   3.970  11.885  0.00  0.00    +0.000 C 
ATOM     13  C   UNL     1       6.231   2.831  12.310  0.00  0.00    +0.000 C 
ENDBRANCH   7  11
ENDBRANCH   2   5
BRANCH   3  14
ATOM     14  C   UNL     1       3.696   4.138  19.331  0.00  0.00    +0.000 C 
BRANCH  14  15
ATOM     15  C   UNL     1       2.430   4.958  19.356  0.00  0.00    +0.000 C 
ATOM     16  C   UNL     1       1.202   4.541  20.132  0.00  0.00    +0.000 C 
ATOM     17  C   UNL     1       1.967   5.767  20.548  0.00  0.00    +0.000 C 
ENDBRANCH  14  15
BRANCH  14  18
ATOM     18  C   UNL     1       3.555   2.675  19.661  0.00  0.00    +0.000 C 
ATOM     19  C   UNL     1       4.610   1.982  20.495  0.00  0.00    +0.000 C 
ATOM     20  C   UNL     1       3.256   2.255  21.083  0.00  0.00    +0.000 C 
ENDBRANCH  14  18
ENDBRANCH   3  14
TORSDOF 5
ENDMDL
MODEL 7
REMARK VINA RESULT:      -6.5      1.100      1.384
REMARK  Name = 
REMARK  5 active torsions:
REMARK  status: ('A' for Active; 'I' for Inactive)
REMARK    1  A    between atoms: C_2  and  C_11
REMARK    2  A    between atoms: N_3  and  C_4
REMARK    3  A    between atoms: C_4  and  C_5
REMARK    4  A    between atoms: C_4  and  C_8
REMARK    5  A    between atoms: C_13  and  C_14
REMARK                            x       y       z     vdW  Elec       q    Type
REMARK                         _______ _______ _______ _____ _____    ______ ____
ROOT
ATOM      1  O   UNL     1       6.448   4.463  18.870  0.00  0.00    +0.000 OA
ATOM      2  C   UNL     1       5.735   4.345  17.877  0.00  0.00    +0.000 C 
ATOM      3  N   UNL     1       4.404   3.994  17.940  0.00  0.00    +0.000 N 
ATOM      4  H   UNL     1       3.889   3.986  17.067  0.00  0.00    +0.000 HD
ENDROOT
BRANCH   2   5
ATOM      5  C   UNL     1       6.255   4.567  16.520  0.00  0.00    +0.000 A 
ATOM      6  C   UNL     1       5.570   4.240  15.319  0.00  0.00    +0.000 A 
ATOM      7  C   UNL     1       6.418   4.601  14.303  0.00  0.00    +0.000 A 
ATOM      8  N   UNL     1       7.525   5.117  14.905  0.00  0.00    +0.000 N 
ATOM      9  N   UNL     1       7.461   5.118  16.256  0.00  0.00    +0.000 NA
ATOM     10  H   UNL     1       8.358   5.487  14.459  0.00  0.00    +0.000 HD
BRANCH   7  11
ATOM     11  C   UNL     1       6.124   4.423  12.828  0.00  0.00    +0.000 C 
ATOM     12  C   UNL     1       7.150   3.752  11.942  0.00  0.00    +0.000 C 
ATOM     13  C   UNL     1       5.900   3.024  12.300  0.00  0.00    +0.000 C 
ENDBRANCH   7  11
ENDBRANCH   2   5
BRANCH   3  14
ATOM     14  C   UNL     1       3.746   3.765  19.205  0.00  0.00    +0.000 C 
BRANCH  14  15
ATOM     15  C   UNL     1       2.824   4.921  19.500  0.00  0.00    +0.000 C 
ATOM     16  C   UNL     1       1.383   4.731  19.914  0.00  0.00    +0.000 C 
ATOM     17  C   UNL     1       2.370   5.311  20.890  0.00  0.00    +0.000 C 
ENDBRANCH  14  15
BRANCH  14  18
ATOM     18  C   UNL     1       3.123   2.393  19.197  0.00  0.00    +0.000 C 
ATOM     19  C   UNL     1       2.380   1.907  17.972  0.00  0.00    +0.000 C 
ATOM     20  C   UNL     1       3.713   1.310  18.321  0.00  0.00    +0.000 C 
ENDBRANCH  14  18
ENDBRANCH   3  14
TORSDOF 5
ENDMDL
MODEL 8
REMARK VINA RESULT:      -6.4      0.930      2.331
REMARK  Name = 
REMARK  5 active torsions:
REMARK  status: ('A' for Active; 'I' for Inactive)
REMARK    1  A    between atoms: C_2  and  C_11
REMARK    2  A    between atoms: N_3  and  C_4
REMARK    3  A    between atoms: C_4  and  C_5
REMARK    4  A    between atoms: C_4  and  C_8
REMARK    5  A    between atoms: C_13  and  C_14
REMARK                            x       y       z     vdW  Elec       q    Type
REMARK                         _______ _______ _______ _____ _____    ______ ____
ROOT
ATOM      1  O   UNL     1       6.286   4.399  18.299  0.00  0.00    +0.000 OA
ATOM      2  C   UNL     1       5.624   4.537  17.273  0.00  0.00    +0.000 C 
ATOM      3  N   UNL     1       4.247   4.586  17.264  0.00  0.00    +0.000 N 
ATOM      4  H   UNL     1       3.800   4.767  16.373  0.00  0.00    +0.000 HD
ENDROOT
BRANCH   2   5
ATOM      5  C   UNL     1       6.259   4.659  15.952  0.00  0.00    +0.000 A 
ATOM      6  C   UNL     1       5.747   4.109  14.747  0.00  0.00    +0.000 A 
ATOM      7  C   UNL     1       6.653   4.448  13.775  0.00  0.00    +0.000 A 
ATOM      8  N   UNL     1       7.625   5.165  14.404  0.00  0.00    +0.000 N 
ATOM      9  N   UNL     1       7.417   5.320  15.731  0.00  0.00    +0.000 NA
ATOM     10  H   UNL     1       8.454   5.580  13.992  0.00  0.00    +0.000 HD
BRANCH   7  11
ATOM     11  C   UNL     1       6.541   4.061  12.315  0.00  0.00    +0.000 C 
ATOM     12  C   UNL     1       6.711   2.612  11.916  0.00  0.00    +0.000 C 
ATOM     13  C   UNL     1       5.356   3.229  11.878  0.00  0.00    +0.000 C 
ENDBRANCH   7  11
ENDBRANCH   2   5
BRANCH   3  14
ATOM     14  C   UNL     1       3.484   4.502  18.487  0.00  0.00    +0.000 C 
BRANCH  14  15
ATOM     15  C   UNL     1       3.956   3.314  19.285  0.00  0.00    +0.000 C 
ATOM     16  C   UNL     1       3.102   2.646  20.339  0.00  0.00    +0.000 C 
ATOM     17  C   UNL     1       3.454   1.901  19.081  0.00  0.00    +0.000 C 
ENDBRANCH  14  15
BRANCH  14  18
ATOM     18  C   UNL     1       3.521   5.838  19.185  0.00  0.00    +0.000 C 
ATOM     19  C   UNL     1       2.577   6.940  18.760  0.00  0.00    +0.000 C 
ATOM     20  C   UNL     1       2.369   6.247  20.075  0.00  0.00    +0.000 C 
ENDBRANCH  14  18
ENDBRANCH   3  14
TORSDOF 5
ENDMDL
MODEL 9
REMARK VINA RESULT:      -6.3      4.108      7.043
REMARK  Name = 
REMARK  5 active torsions:
REMARK  status: ('A' for Active; 'I' for Inactive)
REMARK    1  A    between atoms: C_2  and  C_11
REMARK    2  A    between atoms: N_3  and  C_4
REMARK    3  A    between atoms: C_4  and  C_5
REMARK    4  A    between atoms: C_4  and  C_8
REMARK    5  A    between atoms: C_13  and  C_14
REMARK                            x       y       z     vdW  Elec       q    Type
REMARK                         _______ _______ _______ _____ _____    ______ ____
ROOT
ATOM      1  O   UNL     1       3.940   6.417  18.289  0.00  0.00    +0.000 OA
ATOM      2  C   UNL     1       2.806   6.694  18.674  0.00  0.00    +0.000 C 
ATOM      3  N   UNL     1       1.961   5.775  19.255  0.00  0.00    +0.000 N 
ATOM      4  H   UNL     1       1.071   6.120  19.596  0.00  0.00    +0.000 HD
ENDROOT
BRANCH   2   5
ATOM      5  C   UNL     1       2.252   8.049  18.537  0.00  0.00    +0.000 A 
ATOM      6  C   UNL     1       1.516   8.735  19.540  0.00  0.00    +0.000 A 
ATOM      7  C   UNL     1       1.187   9.947  18.989  0.00  0.00    +0.000 A 
ATOM      8  N   UNL     1       1.722   9.946  17.737  0.00  0.00    +0.000 N 
ATOM      9  N   UNL     1       2.383   8.809  17.427  0.00  0.00    +0.000 NA
ATOM     10  H   UNL     1       1.677  10.685  17.043  0.00  0.00    +0.000 HD
BRANCH   7  11
ATOM     11  C   UNL     1       0.378  11.021  19.685  0.00  0.00    +0.000 C 
ATOM     12  C   UNL     1      -1.123  11.055  19.503  0.00  0.00    +0.000 C 
ATOM     13  C   UNL     1      -0.552  10.613  20.806  0.00  0.00    +0.000 C 
ENDBRANCH   7  11
ENDBRANCH   2   5
BRANCH   3  14
ATOM     14  C   UNL     1       2.374   4.409  19.477  0.00  0.00    +0.000 C 
BRANCH  14  15
ATOM     15  C   UNL     1       2.005   4.001  20.881  0.00  0.00    +0.000 C 
ATOM     16  C   UNL     1       1.168   2.780  21.184  0.00  0.00    +0.000 C 
ATOM     17  C   UNL     1       2.610   2.821  21.609  0.00  0.00    +0.000 C 
ENDBRANCH  14  15
BRANCH  14  18
ATOM     18  C   UNL     1       1.840   3.545  18.364  0.00  0.00    +0.000 C 
ATOM     19  C   UNL     1       2.625   3.391  17.081  0.00  0.00    +0.000 C 
ATOM     20  C   UNL     1       2.528   2.238  18.037  0.00  0.00    +0.000 C 
ENDBRANCH  14  18
ENDBRANCH   3  14
TORSDOF 5
ENDMDL
