MODEL 1
REMARK VINA RESULT:      -8.8      0.000      0.000
REMARK  Name = 
REMARK  5 active torsions:
REMARK  status: ('A' for Active; 'I' for Inactive)
REMARK    1  A    between atoms: C_1  and  S_2
REMARK    2  A    between atoms: S_2  and  C_5
REMARK    3  A    between atoms: C_10  and  C_11
REMARK    4  A    between atoms: N_13  and  C_14
REMARK    5  A    between atoms: C_18  and  C_19
REMARK                            x       y       z     vdW  Elec       q    Type
REMARK                         _______ _______ _______ _____ _____    ______ ____
ROOT
ATOM      1  C   UNL     1       1.874   5.446  20.518  0.00  0.00    +0.000 A 
ATOM      2  C   UNL     1       1.457   4.206  20.995  0.00  0.00    +0.000 A 
ATOM      3  C   UNL     1       1.957   3.023  20.431  0.00  0.00    +0.000 A 
ATOM      4  C   UNL     1       2.880   3.069  19.379  0.00  0.00    +0.000 A 
ATOM      5  C   UNL     1       3.311   4.304  18.888  0.00  0.00    +0.000 A 
ATOM      6  C   UNL     1       2.795   5.478  19.469  0.00  0.00    +0.000 A 
ENDROOT
BRANCH   5   7
ATOM      7  C   UNL     1       4.279   4.465  17.804  0.00  0.00    +0.000 A 
ATOM      8  N   UNL     1       5.449   5.070  17.893  0.00  0.00    +0.000 NA
ATOM      9  C   UNL     1       5.984   4.937  16.652  0.00  0.00    +0.000 A 
ATOM     10  C   UNL     1       7.212   5.381  16.149  0.00  0.00    +0.000 A 
ATOM     11  C   UNL     1       7.508   5.106  14.810  0.00  0.00    +0.000 A 
ATOM     12  C   UNL     1       6.607   4.399  14.002  0.00  0.00    +0.000 A 
ATOM     13  C   UNL     1       5.373   3.941  14.498  0.00  0.00    +0.000 A 
ATOM     14  C   UNL     1       5.110   4.241  15.830  0.00  0.00    +0.000 A 
ATOM     15  O   UNL     1       3.997   3.933  16.571  0.00  0.00    +0.000 OA
ENDBRANCH   5   7
BRANCH   1  18
ATOM     16  C   UNL     1       1.497   7.908  20.409  0.00  0.00    +0.000 C 
ATOM     17  O   UNL     1       2.026   8.100  19.315  0.00  0.00    +0.000 OA
ATOM     18  N   UNL     1       1.475   6.695  21.050  0.00  0.00    +0.000 N 
ATOM     19  H   UNL     1       1.205   6.671  22.034  0.00  0.00    +0.000 HD
BRANCH  16  25
ATOM     20  C   UNL     1       0.282  10.257  20.455  0.00  0.00    +0.000 A 
ATOM     21  C   UNL     1      -0.447  11.170  21.254  0.00  0.00    +0.000 A 
ATOM     22  C   UNL     1      -0.671  10.936  22.609  0.00  0.00    +0.000 A 
ATOM     23  C   UNL     1      -0.150   9.797  23.195  0.00  0.00    +0.000 A 
ATOM     24  C   UNL     1       0.572   8.891  22.417  0.00  0.00    +0.000 A 
ATOM     25  C   UNL     1       0.799   9.084  21.030  0.00  0.00    +0.000 A 
BRANCH  20  27
ATOM     26  C   UNL     1      -0.426  12.281  18.652  0.00  0.00    +0.000 C 
ATOM     27  S   UNL     1       0.450  10.746  18.753  0.00  0.00    +0.000 S 
ATOM     28  O   UNL     1      -0.208   9.757  17.926  0.00  0.00    +0.000 OA
ATOM     29  O   UNL     1       1.854  11.036  18.522  0.00  0.00    +0.000 OA
ENDBRANCH  20  27
ENDBRANCH  16  25
ENDBRANCH   1  18
TORSDOF 4
ENDMDL
MODEL 2
REMARK VINA RESULT:      -8.7      0.621      1.116
REMARK  Name = 
REMARK  5 active torsions:
REMARK  status: ('A' for Active; 'I' for Inactive)
REMARK    1  A    between atoms: C_1  and  S_2
REMARK    2  A    between atoms: S_2  and  C_5
REMARK    3  A    between atoms: C_10  and  C_11
REMARK    4  A    between atoms: N_13  and  C_14
REMARK    5  A    between atoms: C_18  and  C_19
REMARK                            x       y       z     vdW  Elec       q    Type
REMARK                         _______ _______ _______ _____ _____    ______ ____
ROOT
ATOM      1  C   UNL     1       1.889   5.380  20.580  0.00  0.00    +0.000 A 
ATOM      2  C   UNL     1       1.501   4.153  21.115  0.00  0.00    +0.000 A 
ATOM      3  C   UNL     1       1.990   2.956  20.573  0.00  0.00    +0.000 A 
ATOM      4  C   UNL     1       2.874   2.972  19.488  0.00  0.00    +0.000 A 
ATOM      5  C   UNL     1       3.275   4.192  18.939  0.00  0.00    +0.000 A 
ATOM      6  C   UNL     1       2.771   5.382  19.497  0.00  0.00    +0.000 A 
ENDROOT
BRANCH   5   7
ATOM      7  C   UNL     1       4.202   4.323  17.815  0.00  0.00    +0.000 A 
ATOM      8  N   UNL     1       4.001   3.875  16.590  0.00  0.00    +0.000 NA
ATOM      9  C   UNL     1       5.114   4.259  15.913  0.00  0.00    +0.000 A 
ATOM     10  C   UNL     1       5.465   4.063  14.572  0.00  0.00    +0.000 A 
ATOM     11  C   UNL     1       6.694   4.568  14.137  0.00  0.00    +0.000 A 
ATOM     12  C   UNL     1       7.542   5.257  15.014  0.00  0.00    +0.000 A 
ATOM     13  C   UNL     1       7.198   5.466  16.361  0.00  0.00    +0.000 A 
ATOM     14  C   UNL     1       5.974   4.943  16.759  0.00  0.00    +0.000 A 
ATOM     15  O   UNL     1       5.388   4.986  18.000  0.00  0.00    +0.000 OA
ENDBRANCH   5   7
BRANCH   1  18
ATOM     16  C   UNL     1       1.522   7.840  20.413  0.00  0.00    +0.000 C 
ATOM     17  O   UNL     1       2.046   8.002  19.312  0.00  0.00    +0.000 OA
ATOM     18  N   UNL     1       1.499   6.643  21.083  0.00  0.00    +0.000 N 
ATOM     19  H   UNL     1       1.235   6.645  22.070  0.00  0.00    +0.000 HD
BRANCH  16  25
ATOM     20  C   UNL     1       0.324  10.198  20.408  0.00  0.00    +0.000 A 
ATOM     21  C   UNL     1      -0.398  11.133  21.188  0.00  0.00    +0.000 A 
ATOM     22  C   UNL     1      -0.620  10.931  22.548  0.00  0.00    +0.000 A 
ATOM     23  C   UNL     1      -0.106   9.802  23.158  0.00  0.00    +0.000 A 
ATOM     24  C   UNL     1       0.608   8.873  22.400  0.00  0.00    +0.000 A 
ATOM     25  C   UNL     1       0.834   9.034  21.009  0.00  0.00    +0.000 A 
BRANCH  20  27
ATOM     26  C   UNL     1      -0.290  12.232  18.582  0.00  0.00    +0.000 C 
ATOM     27  S   UNL     1       0.491  10.647  18.695  0.00  0.00    +0.000 S 
ATOM     28  O   UNL     1      -0.240   9.687  17.897  0.00  0.00    +0.000 OA
ATOM     29  O   UNL     1       1.907  10.846  18.437  0.00  0.00    +0.000 OA
ENDBRANCH  20  27
ENDBRANCH  16  25
ENDBRANCH   1  18
TORSDOF 4
ENDMDL
MODEL 3
REMARK VINA RESULT:      -8.5      1.721      2.726
REMARK  Name = 
REMARK  5 active torsions:
REMARK  status: ('A' for Active; 'I' for Inactive)
REMARK    1  A    between atoms: C_1  and  S_2
REMARK    2  A    between atoms: S_2  and  C_5
REMARK    3  A    between atoms: C_10  and  C_11
REMARK    4  A    between atoms: N_13  and  C_14
REMARK    5  A    between atoms: C_18  and  C_19
REMARK                            x       y       z     vdW  Elec       q    Type
REMARK                         _______ _______ _______ _____ _____    ______ ____
ROOT
ATOM      1  C   UNL     1       2.154   6.736  19.909  0.00  0.00    +0.000 A 
ATOM      2  C   UNL     1       1.688   5.695  20.710  0.00  0.00    +0.000 A 
ATOM      3  C   UNL     1       2.054   4.369  20.434  0.00  0.00    +0.000 A 
ATOM      4  C   UNL     1       2.890   4.070  19.351  0.00  0.00    +0.000 A 
ATOM      5  C   UNL     1       3.367   5.101  18.538  0.00  0.00    +0.000 A 
ATOM      6  C   UNL     1       2.986   6.424  18.833  0.00  0.00    +0.000 A 
ENDROOT
BRANCH   5   7
ATOM      7  C   UNL     1       4.253   4.901  17.392  0.00  0.00    +0.000 A 
ATOM      8  N   UNL     1       4.040   4.077  16.383  0.00  0.00    +0.000 NA
ATOM      9  C   UNL     1       5.113   4.266  15.572  0.00  0.00    +0.000 A 
ATOM     10  C   UNL     1       5.434   3.665  14.349  0.00  0.00    +0.000 A 
ATOM     11  C   UNL     1       6.624   4.051  13.723  0.00  0.00    +0.000 A 
ATOM     12  C   UNL     1       7.461   5.017  14.298  0.00  0.00    +0.000 A 
ATOM     13  C   UNL     1       7.146   5.633  15.523  0.00  0.00    +0.000 A 
ATOM     14  C   UNL     1       5.961   5.218  16.119  0.00  0.00    +0.000 A 
ATOM     15  O   UNL     1       5.410   5.633  17.305  0.00  0.00    +0.000 OA
ENDBRANCH   5   7
BRANCH   1  18
ATOM     16  C   UNL     1       1.444   9.021  19.208  0.00  0.00    +0.000 C 
ATOM     17  O   UNL     1       1.363   8.797  18.002  0.00  0.00    +0.000 OA
ATOM     18  N   UNL     1       1.891   8.108  20.131  0.00  0.00    +0.000 N 
ATOM     19  H   UNL     1       2.124   8.440  21.067  0.00  0.00    +0.000 HD
BRANCH  16  25
ATOM     20  C   UNL     1       0.436  10.783  20.903  0.00  0.00    +0.000 A 
ATOM     21  C   UNL     1       0.178  12.156  21.132  0.00  0.00    +0.000 A 
ATOM     22  C   UNL     1       0.443  13.119  20.161  0.00  0.00    +0.000 A 
ATOM     23  C   UNL     1       0.950  12.725  18.936  0.00  0.00    +0.000 A 
ATOM     24  C   UNL     1       1.208  11.374  18.700  0.00  0.00    +0.000 A 
ATOM     25  C   UNL     1       0.973  10.369  19.672  0.00  0.00    +0.000 A 
BRANCH  20  27
ATOM     26  C   UNL     1      -1.147  10.659  23.211  0.00  0.00    +0.000 C 
ATOM     27  S   UNL     1       0.028   9.724  22.273  0.00  0.00    +0.000 S 
ATOM     28  O   UNL     1       1.223   9.514  23.061  0.00  0.00    +0.000 OA
ATOM     29  O   UNL     1      -0.672   8.571  21.734  0.00  0.00    +0.000 OA
ENDBRANCH  20  27
ENDBRANCH  16  25
ENDBRANCH   1  18
TORSDOF 4
ENDMDL
MODEL 4
REMARK VINA RESULT:      -8.5      2.198      8.231
REMARK  Name = 
REMARK  5 active torsions:
REMARK  status: ('A' for Active; 'I' for Inactive)
REMARK    1  A    between atoms: C_1  and  S_2
REMARK    2  A    between atoms: S_2  and  C_5
REMARK    3  A    between atoms: C_10  and  C_11
REMARK    4  A    between atoms: N_13  and  C_14
REMARK    5  A    between atoms: C_18  and  C_19
REMARK                            x       y       z     vdW  Elec       q    Type
REMARK                         _______ _______ _______ _____ _____    ______ ____
ROOT
ATOM      1  C   UNL     1       3.578   4.681  19.122  0.00  0.00    +0.000 A 
ATOM      2  C   UNL     1       3.134   3.554  19.809  0.00  0.00    +0.000 A 
ATOM      3  C   UNL     1       2.140   3.667  20.792  0.00  0.00    +0.000 A 
ATOM      4  C   UNL     1       1.579   4.913  21.099  0.00  0.00    +0.000 A 
ATOM      5  C   UNL     1       2.011   6.054  20.420  0.00  0.00    +0.000 A 
ATOM      6  C   UNL     1       3.011   5.917  19.439  0.00  0.00    +0.000 A 
ENDROOT
BRANCH   5   7
ATOM      7  C   UNL     1       1.485   7.398  20.654  0.00  0.00    +0.000 A 
ATOM      8  N   UNL     1       1.579   8.422  19.826  0.00  0.00    +0.000 NA
ATOM      9  C   UNL     1       0.923   9.425  20.466  0.00  0.00    +0.000 A 
ATOM     10  C   UNL     1       0.697  10.748  20.072  0.00  0.00    +0.000 A 
ATOM     11  C   UNL     1      -0.016  11.578  20.943  0.00  0.00    +0.000 A 
ATOM     12  C   UNL     1      -0.496  11.095  22.168  0.00  0.00    +0.000 A 
ATOM     13  C   UNL     1      -0.281   9.765  22.572  0.00  0.00    +0.000 A 
ATOM     14  C   UNL     1       0.438   8.973  21.684  0.00  0.00    +0.000 A 
ATOM     15  O   UNL     1       0.802   7.656  21.815  0.00  0.00    +0.000 OA
ENDBRANCH   5   7
BRANCH   1  18
ATOM     16  C   UNL     1       4.343   4.238  16.791  0.00  0.00    +0.000 C 
ATOM     17  O   UNL     1       3.337   3.643  16.407  0.00  0.00    +0.000 OA
ATOM     18  N   UNL     1       4.534   4.670  18.079  0.00  0.00    +0.000 N 
ATOM     19  H   UNL     1       5.472   4.963  18.358  0.00  0.00    +0.000 HD
BRANCH  16  25
ATOM     20  C   UNL     1       6.495   5.395  15.779  0.00  0.00    +0.000 A 
ATOM     21  C   UNL     1       7.403   5.407  14.694  0.00  0.00    +0.000 A 
ATOM     22  C   UNL     1       7.226   4.582  13.586  0.00  0.00    +0.000 A 
ATOM     23  C   UNL     1       6.124   3.747  13.532  0.00  0.00    +0.000 A 
ATOM     24  C   UNL     1       5.221   3.728  14.596  0.00  0.00    +0.000 A 
ATOM     25  C   UNL     1       5.383   4.536  15.750  0.00  0.00    +0.000 A 
BRANCH  20  27
ATOM     26  C   UNL     1       7.548   5.483  18.374  0.00  0.00    +0.000 C 
ATOM     27  S   UNL     1       6.908   6.523  17.092  0.00  0.00    +0.000 S 
ATOM     28  O   UNL     1       5.692   7.162  17.545  0.00  0.00    +0.000 OA
ATOM     29  O   UNL     1       8.005   7.350  16.622  0.00  0.00    +0.000 OA
ENDBRANCH  20  27
ENDBRANCH  16  25
ENDBRANCH   1  18
TORSDOF 4
ENDMDL
MODEL 5
REMARK VINA RESULT:      -8.5      3.209      5.251
REMARK  Name = 
REMARK  5 active torsions:
REMARK  status: ('A' for Active; 'I' for Inactive)
REMARK    1  A    between atoms: C_1  and  S_2
REMARK    2  A    between atoms: S_2  and  C_5
REMARK    3  A    between atoms: C_10  and  C_11
REMARK    4  A    between atoms: N_13  and  C_14
REMARK    5  A    between atoms: C_18  and  C_19
REMARK                            x       y       z     vdW  Elec       q    Type
REMARK                         _______ _______ _______ _____ _____    ______ ____
ROOT
ATOM      1  C   UNL     1       0.781  10.046  19.891  0.00  0.00    +0.000 A 
ATOM      2  C   UNL     1       1.168  10.579  18.664  0.00  0.00    +0.000 A 
ATOM      3  C   UNL     1       1.928   9.815  17.766  0.00  0.00    +0.000 A 
ATOM      4  C   UNL     1       2.310   8.507  18.088  0.00  0.00    +0.000 A 
ATOM      5  C   UNL     1       1.930   7.955  19.313  0.00  0.00    +0.000 A 
ATOM      6  C   UNL     1       1.169   8.740  20.200  0.00  0.00    +0.000 A 
ENDROOT
BRANCH   5   7
ATOM      7  C   UNL     1       2.264   6.598  19.743  0.00  0.00    +0.000 A 
ATOM      8  N   UNL     1       1.664   5.919  20.702  0.00  0.00    +0.000 NA
ATOM      9  C   UNL     1       2.302   4.720  20.706  0.00  0.00    +0.000 A 
ATOM     10  C   UNL     1       2.096   3.593  21.510  0.00  0.00    +0.000 A 
ATOM     11  C   UNL     1       2.915   2.479  21.297  0.00  0.00    +0.000 A 
ATOM     12  C   UNL     1       3.902   2.489  20.303  0.00  0.00    +0.000 A 
ATOM     13  C   UNL     1       4.113   3.613  19.483  0.00  0.00    +0.000 A 
ATOM     14  C   UNL     1       3.288   4.703  19.730  0.00  0.00    +0.000 A 
ATOM     15  O   UNL     1       3.271   5.922  19.101  0.00  0.00    +0.000 OA
ENDBRANCH   5   7
BRANCH   1  18
ATOM     16  C   UNL     1       0.273  11.863  21.521  0.00  0.00    +0.000 C 
ATOM     17  O   UNL     1       1.380  12.400  21.506  0.00  0.00    +0.000 OA
ATOM     18  N   UNL     1      -0.029  10.709  20.843  0.00  0.00    +0.000 N 
ATOM     19  H   UNL     1      -0.896  10.223  21.076  0.00  0.00    +0.000 HD
BRANCH  16  25
ATOM     20  C   UNL     1      -1.060  13.935  22.481  0.00  0.00    +0.000 A 
ATOM     21  C   UNL     1      -2.225  14.345  23.172  0.00  0.00    +0.000 A 
ATOM     22  C   UNL     1      -3.134  13.420  23.682  0.00  0.00    +0.000 A 
ATOM     23  C   UNL     1      -2.883  12.069  23.529  0.00  0.00    +0.000 A 
ATOM     24  C   UNL     1      -1.736  11.653  22.850  0.00  0.00    +0.000 A 
ATOM     25  C   UNL     1      -0.802  12.566  22.298  0.00  0.00    +0.000 A 
BRANCH  20  27
ATOM     26  C   UNL     1      -0.952  16.731  22.336  0.00  0.00    +0.000 C 
ATOM     27  S   UNL     1      -0.037  15.275  21.913  0.00  0.00    +0.000 S 
ATOM     28  O   UNL     1       0.085  15.179  20.474  0.00  0.00    +0.000 OA
ATOM     29  O   UNL     1       1.168  15.274  22.724  0.00  0.00    +0.000 OA
ENDBRANCH  20  27
ENDBRANCH  16  25
ENDBRANCH   1  18
TORSDOF 4
ENDMDL
MODEL 6
REMARK VINA RESULT:      -8.5      3.419      9.146
REMARK  Name = 
REMARK  5 active torsions:
REMARK  status: ('A' for Active; 'I' for Inactive)
REMARK    1  A    between atoms: C_1  and  S_2
REMARK    2  A    between atoms: S_2  and  C_5
REMARK    3  A    between atoms: C_10  and  C_11
REMARK    4  A    between atoms: N_13  and  C_14
REMARK    5  A    between atoms: C_18  and  C_19
REMARK                            x       y       z     vdW  Elec       q    Type
REMARK                         _______ _______ _______ _____ _____    ______ ____
ROOT
ATOM      1  C   UNL     1       1.724   9.528  17.917  0.00  0.00    +0.000 A 
ATOM      2  C   UNL     1       2.582  10.596  18.171  0.00  0.00    +0.000 A 
ATOM      3  C   UNL     1       2.066  11.860  18.490  0.00  0.00    +0.000 A 
ATOM      4  C   UNL     1       0.683  12.070  18.558  0.00  0.00    +0.000 A 
ATOM      5  C   UNL     1      -0.192  11.011  18.308  0.00  0.00    +0.000 A 
ATOM      6  C   UNL     1       0.348   9.751  17.988  0.00  0.00    +0.000 A 
ENDROOT
BRANCH   5   7
ATOM      7  C   UNL     1      -1.650  11.118  18.364  0.00  0.00    +0.000 A 
ATOM      8  N   UNL     1      -2.506  10.421  17.640  0.00  0.00    +0.000 NA
ATOM      9  C   UNL     1      -3.722  10.850  18.066  0.00  0.00    +0.000 A 
ATOM     10  C   UNL     1      -5.005  10.467  17.659  0.00  0.00    +0.000 A 
ATOM     11  C   UNL     1      -6.099  11.086  18.273  0.00  0.00    +0.000 A 
ATOM     12  C   UNL     1      -5.914  12.052  19.271  0.00  0.00    +0.000 A 
ATOM     13  C   UNL     1      -4.630  12.441  19.694  0.00  0.00    +0.000 A 
ATOM     14  C   UNL     1      -3.568  11.810  19.055  0.00  0.00    +0.000 A 
ATOM     15  O   UNL     1      -2.222  11.992  19.252  0.00  0.00    +0.000 OA
ENDBRANCH   5   7
BRANCH   1  18
ATOM     16  C   UNL     1       2.381   7.208  18.554  0.00  0.00    +0.000 C 
ATOM     17  O   UNL     1       2.422   7.385  19.770  0.00  0.00    +0.000 OA
ATOM     18  N   UNL     1       2.139   8.204  17.641  0.00  0.00    +0.000 N 
ATOM     19  H   UNL     1       2.329   8.015  16.656  0.00  0.00    +0.000 HD
BRANCH  16  25
ATOM     20  C   UNL     1       3.651   5.171  17.445  0.00  0.00    +0.000 A 
ATOM     21  C   UNL     1       3.616   3.777  17.200  0.00  0.00    +0.000 A 
ATOM     22  C   UNL     1       2.522   2.999  17.571  0.00  0.00    +0.000 A 
ATOM     23  C   UNL     1       1.434   3.604  18.173  0.00  0.00    +0.000 A 
ATOM     24  C   UNL     1       1.457   4.978  18.418  0.00  0.00    +0.000 A 
ATOM     25  C   UNL     1       2.562   5.797  18.076  0.00  0.00    +0.000 A 
BRANCH  20  27
ATOM     26  C   UNL     1       5.957   4.749  15.911  0.00  0.00    +0.000 C 
ATOM     27  S   UNL     1       5.140   5.974  16.894  0.00  0.00    +0.000 S 
ATOM     28  O   UNL     1       5.948   6.284  18.054  0.00  0.00    +0.000 OA
ATOM     29  O   UNL     1       4.747   7.050  16.001  0.00  0.00    +0.000 OA
ENDBRANCH  20  27
ENDBRANCH  16  25
ENDBRANCH   1  18
TORSDOF 4
ENDMDL
MODEL 7
REMARK VINA RESULT:      -8.5      2.874      8.508
REMARK  Name = 
REMARK  5 active torsions:
REMARK  status: ('A' for Active; 'I' for Inactive)
REMARK    1  A    between atoms: C_1  and  S_2
REMARK    2  A    between atoms: S_2  and  C_5
REMARK    3  A    between atoms: C_10  and  C_11
REMARK    4  A    between atoms: N_13  and  C_14
REMARK    5  A    between atoms: C_18  and  C_19
REMARK                            x       y       z     vdW  Elec       q    Type
REMARK                         _______ _______ _______ _____ _____    ______ ____
ROOT
ATOM      1  C   UNL     1       1.318   8.422  20.502  0.00  0.00    +0.000 A 
ATOM      2  C   UNL     1       0.464   8.112  21.558  0.00  0.00    +0.000 A 
ATOM      3  C   UNL     1      -0.289   9.117  22.182  0.00  0.00    +0.000 A 
ATOM      4  C   UNL     1      -0.194  10.448  21.755  0.00  0.00    +0.000 A 
ATOM      5  C   UNL     1       0.656  10.778  20.697  0.00  0.00    +0.000 A 
ATOM      6  C   UNL     1       1.403   9.753  20.087  0.00  0.00    +0.000 A 
ENDROOT
BRANCH   5   7
ATOM      7  C   UNL     1       0.820  12.131  20.166  0.00  0.00    +0.000 A 
ATOM      8  N   UNL     1       1.932  12.635  19.664  0.00  0.00    +0.000 NA
ATOM      9  C   UNL     1       1.580  13.891  19.284  0.00  0.00    +0.000 A 
ATOM     10  C   UNL     1       2.346  14.899  18.687  0.00  0.00    +0.000 A 
ATOM     11  C   UNL     1       1.720  16.117  18.406  0.00  0.00    +0.000 A 
ATOM     12  C   UNL     1       0.365  16.318  18.703  0.00  0.00    +0.000 A 
ATOM     13  C   UNL     1      -0.417  15.310  19.297  0.00  0.00    +0.000 A 
ATOM     14  C   UNL     1       0.242  14.118  19.570  0.00  0.00    +0.000 A 
ATOM     15  O   UNL     1      -0.259  12.977  20.147  0.00  0.00    +0.000 OA
ENDBRANCH   5   7
BRANCH   1  18
ATOM     16  C   UNL     1       2.321   7.486  18.420  0.00  0.00    +0.000 C 
ATOM     17  O   UNL     1       1.766   8.243  17.625  0.00  0.00    +0.000 OA
ATOM     18  N   UNL     1       2.078   7.480  19.771  0.00  0.00    +0.000 N 
ATOM     19  H   UNL     1       2.419   6.689  20.320  0.00  0.00    +0.000 HD
BRANCH  16  25
ATOM     20  C   UNL     1       3.340   5.168  17.660  0.00  0.00    +0.000 A 
ATOM     21  C   UNL     1       4.413   4.538  16.983  0.00  0.00    +0.000 A 
ATOM     22  C   UNL     1       5.495   5.268  16.496  0.00  0.00    +0.000 A 
ATOM     23  C   UNL     1       5.536   6.636  16.696  0.00  0.00    +0.000 A 
ATOM     24  C   UNL     1       4.485   7.266  17.363  0.00  0.00    +0.000 A 
ATOM     25  C   UNL     1       3.357   6.560  17.851  0.00  0.00    +0.000 A 
BRANCH  20  27
ATOM     26  C   UNL     1       2.806   2.452  18.094  0.00  0.00    +0.000 C 
ATOM     27  S   UNL     1       2.061   4.055  18.198  0.00  0.00    +0.000 S 
ATOM     28  O   UNL     1       0.959   4.140  17.264  0.00  0.00    +0.000 OA
ATOM     29  O   UNL     1       1.816   4.325  19.603  0.00  0.00    +0.000 OA
ENDBRANCH  20  27
ENDBRANCH  16  25
ENDBRANCH   1  18
TORSDOF 4
ENDMDL
MODEL 8
REMARK VINA RESULT:      -8.5      2.924      8.401
REMARK  Name = 
REMARK  5 active torsions:
REMARK  status: ('A' for Active; 'I' for Inactive)
REMARK    1  A    between atoms: C_1  and  S_2
REMARK    2  A    between atoms: S_2  and  C_5
REMARK    3  A    between atoms: C_10  and  C_11
REMARK    4  A    between atoms: N_13  and  C_14
REMARK    5  A    between atoms: C_18  and  C_19
REMARK                            x       y       z     vdW  Elec       q    Type
REMARK                         _______ _______ _______ _____ _____    ______ ____
ROOT
ATOM      1  C   UNL     1       1.370   8.388  20.443  0.00  0.00    +0.000 A 
ATOM      2  C   UNL     1       0.484   8.103  21.479  0.00  0.00    +0.000 A 
ATOM      3  C   UNL     1      -0.257   9.130  22.082  0.00  0.00    +0.000 A 
ATOM      4  C   UNL     1      -0.120  10.455  21.653  0.00  0.00    +0.000 A 
ATOM      5  C   UNL     1       0.763  10.760  20.615  0.00  0.00    +0.000 A 
ATOM      6  C   UNL     1       1.498   9.714  20.025  0.00  0.00    +0.000 A 
ENDROOT
BRANCH   5   7
ATOM      7  C   UNL     1       0.974  12.106  20.083  0.00  0.00    +0.000 A 
ATOM      8  N   UNL     1       0.217  13.161  20.322  0.00  0.00    +0.000 NA
ATOM      9  C   UNL     1       0.827  14.165  19.641  0.00  0.00    +0.000 A 
ATOM     10  C   UNL     1       0.478  15.515  19.524  0.00  0.00    +0.000 A 
ATOM     11  C   UNL     1       1.297  16.337  18.742  0.00  0.00    +0.000 A 
ATOM     12  C   UNL     1       2.435  15.825  18.105  0.00  0.00    +0.000 A 
ATOM     13  C   UNL     1       2.800  14.472  18.222  0.00  0.00    +0.000 A 
ATOM     14  C   UNL     1       1.959  13.685  18.999  0.00  0.00    +0.000 A 
ATOM     15  O   UNL     1       2.059  12.345  19.279  0.00  0.00    +0.000 OA
ENDBRANCH   5   7
BRANCH   1  18
ATOM     16  C   UNL     1       2.375   7.405  18.384  0.00  0.00    +0.000 C 
ATOM     17  O   UNL     1       1.834   8.155  17.572  0.00  0.00    +0.000 OA
ATOM     18  N   UNL     1       2.123   7.424  19.733  0.00  0.00    +0.000 N 
ATOM     19  H   UNL     1       2.450   6.639  20.297  0.00  0.00    +0.000 HD
BRANCH  16  25
ATOM     20  C   UNL     1       3.361   5.064  17.647  0.00  0.00    +0.000 A 
ATOM     21  C   UNL     1       4.434   4.412  16.994  0.00  0.00    +0.000 A 
ATOM     22  C   UNL     1       5.542   5.118  16.529  0.00  0.00    +0.000 A 
ATOM     23  C   UNL     1       5.607   6.485  16.728  0.00  0.00    +0.000 A 
ATOM     24  C   UNL     1       4.555   7.138  17.373  0.00  0.00    +0.000 A 
ATOM     25  C   UNL     1       3.402   6.456  17.838  0.00  0.00    +0.000 A 
BRANCH  20  27
ATOM     26  C   UNL     1       2.723   2.354  17.960  0.00  0.00    +0.000 C 
ATOM     27  S   UNL     1       2.048   3.979  18.159  0.00  0.00    +0.000 S 
ATOM     28  O   UNL     1       0.931   4.155  17.255  0.00  0.00    +0.000 OA
ATOM     29  O   UNL     1       1.843   4.189  19.581  0.00  0.00    +0.000 OA
ENDBRANCH  20  27
ENDBRANCH  16  25
ENDBRANCH   1  18
TORSDOF 4
ENDMDL
MODEL 9
REMARK VINA RESULT:      -8.4      3.178      5.156
REMARK  Name = 
REMARK  5 active torsions:
REMARK  status: ('A' for Active; 'I' for Inactive)
REMARK    1  A    between atoms: C_1  and  S_2
REMARK    2  A    between atoms: S_2  and  C_5
REMARK    3  A    between atoms: C_10  and  C_11
REMARK    4  A    between atoms: N_13  and  C_14
REMARK    5  A    between atoms: C_18  and  C_19
REMARK                            x       y       z     vdW  Elec       q    Type
REMARK                         _______ _______ _______ _____ _____    ______ ____
ROOT
ATOM      1  C   UNL     1       0.731  10.029  19.705  0.00  0.00    +0.000 A 
ATOM      2  C   UNL     1       1.247  10.581  18.534  0.00  0.00    +0.000 A 
ATOM      3  C   UNL     1       2.120   9.839  17.725  0.00  0.00    +0.000 A 
ATOM      4  C   UNL     1       2.488   8.536  18.080  0.00  0.00    +0.000 A 
ATOM      5  C   UNL     1       1.980   7.965  19.249  0.00  0.00    +0.000 A 
ATOM      6  C   UNL     1       1.106   8.728  20.047  0.00  0.00    +0.000 A 
ENDROOT
BRANCH   5   7
ATOM      7  C   UNL     1       2.289   6.611  19.705  0.00  0.00    +0.000 A 
ATOM      8  N   UNL     1       1.671   5.959  20.672  0.00  0.00    +0.000 NA
ATOM      9  C   UNL     1       2.289   4.750  20.701  0.00  0.00    +0.000 A 
ATOM     10  C   UNL     1       2.059   3.641  21.524  0.00  0.00    +0.000 A 
ATOM     11  C   UNL     1       2.861   2.511  21.337  0.00  0.00    +0.000 A 
ATOM     12  C   UNL     1       3.856   2.487  20.350  0.00  0.00    +0.000 A 
ATOM     13  C   UNL     1       4.091   3.592  19.512  0.00  0.00    +0.000 A 
ATOM     14  C   UNL     1       3.281   4.700  19.734  0.00  0.00    +0.000 A 
ATOM     15  O   UNL     1       3.289   5.908  19.083  0.00  0.00    +0.000 OA
ENDBRANCH   5   7
BRANCH   1  18
ATOM     16  C   UNL     1       0.026  11.782  21.331  0.00  0.00    +0.000 C 
ATOM     17  O   UNL     1       1.132  12.292  21.502  0.00  0.00    +0.000 OA
ATOM     18  N   UNL     1      -0.196  10.668  20.561  0.00  0.00    +0.000 N 
ATOM     19  H   UNL     1      -1.097  10.194  20.643  0.00  0.00    +0.000 HD
BRANCH  16  25
ATOM     20  C   UNL     1      -1.734  13.720  21.710  0.00  0.00    +0.000 A 
ATOM     21  C   UNL     1      -2.913  14.098  22.395  0.00  0.00    +0.000 A 
ATOM     22  C   UNL     1      -3.507  13.263  23.339  0.00  0.00    +0.000 A 
ATOM     23  C   UNL     1      -2.920  12.045  23.631  0.00  0.00    +0.000 A 
ATOM     24  C   UNL     1      -1.757  11.663  22.962  0.00  0.00    +0.000 A 
ATOM     25  C   UNL     1      -1.138  12.476  21.979  0.00  0.00    +0.000 A 
BRANCH  20  27
ATOM     26  C   UNL     1       0.297  15.609  21.319  0.00  0.00    +0.000 C 
ATOM     27  S   UNL     1      -1.144  14.930  20.547  0.00  0.00    +0.000 S 
ATOM     28  O   UNL     1      -2.151  15.960  20.408  0.00  0.00    +0.000 OA
ATOM     29  O   UNL     1      -0.701  14.214  19.364  0.00  0.00    +0.000 OA
ENDBRANCH  20  27
ENDBRANCH  16  25
ENDBRANCH   1  18
TORSDOF 4
ENDMDL
