MODEL 1
REMARK VINA RESULT:      -7.3      0.000      0.000
REMARK  Name = 
REMARK  6 active torsions:
REMARK  status: ('A' for Active; 'I' for Inactive)
REMARK    1  A    between atoms: C_1  and  O_2
REMARK    2  A    between atoms: O_2  and  C_3
REMARK    3  A    between atoms: C_6  and  C_7
REMARK    4  A    between atoms: N_11  and  N_12
REMARK    5  A    between atoms: C_13  and  C_14
REMARK    6  A    between atoms: C_13  and  C_15
REMARK                            x       y       z     vdW  Elec       q    Type
REMARK                         _______ _______ _______ _____ _____    ______ ____
ROOT
ATOM      1  C   UNL     1       2.323   6.206  19.944  0.00  0.00    +0.000 A 
ATOM      2  C   UNL     1       1.617   5.048  20.199  0.00  0.00    +0.000 A 
ATOM      3  S   UNL     1       2.650   3.691  20.062  0.00  0.00    +0.000 S 
ATOM      4  C   UNL     1       3.977   4.738  19.714  0.00  0.00    +0.000 A 
ATOM      5  N   UNL     1       5.207   4.206  19.486  0.00  0.00    +0.000 N 
ATOM      6  N   UNL     1       3.663   6.015  19.656  0.00  0.00    +0.000 NA
ATOM      7  H   UNL     1       5.275   3.195  19.577  0.00  0.00    +0.000 HD
ENDROOT
BRANCH   1  11
ATOM      8  C   UNL     1       0.592  10.111  19.977  0.00  0.00    +0.000 A 
ATOM      9  C   UNL     1       1.238   9.645  18.835  0.00  0.00    +0.000 A 
ATOM     10  C   UNL     1       1.797   8.363  18.808  0.00  0.00    +0.000 A 
ATOM     11  C   UNL     1       1.733   7.538  19.938  0.00  0.00    +0.000 A 
ATOM     12  C   UNL     1       1.087   8.017  21.087  0.00  0.00    +0.000 A 
ATOM     13  C   UNL     1       0.526   9.302  21.109  0.00  0.00    +0.000 A 
BRANCH   8  15
ATOM     14  C   UNL     1      -0.717  11.652  18.754  0.00  0.00    +0.000 C 
ATOM     15  O   UNL     1       0.100  11.388  19.886  0.00  0.00    +0.000 OA
ENDBRANCH   8  15
ENDBRANCH   1  11
BRANCH   5  16
ATOM     16  N   UNL     1       6.351   4.915  19.673  0.00  0.00    +0.000 NA
ATOM     17  C   UNL     1       6.999   5.370  18.640  0.00  0.00    +0.000 C 
ATOM     18  C   UNL     1       8.339   6.016  18.942  0.00  0.00    +0.000 C 
BRANCH  17  19
ATOM     19  C   UNL     1       6.557   5.345  17.214  0.00  0.00    +0.000 A 
ATOM     20  C   UNL     1       6.896   4.299  16.352  0.00  0.00    +0.000 A 
ATOM     21  C   UNL     1       6.483   4.330  15.021  0.00  0.00    +0.000 A 
ATOM     22  C   UNL     1       5.703   5.391  14.600  0.00  0.00    +0.000 A 
ATOM     23  N   UNL     1       5.321   6.402  15.409  0.00  0.00    +0.000 NA
ATOM     24  C   UNL     1       5.755   6.355  16.695  0.00  0.00    +0.000 A 
ENDBRANCH  17  19
ENDBRANCH   5  16
TORSDOF 4
ENDMDL
MODEL 2
REMARK VINA RESULT:      -7.3      0.162      1.018
REMARK  Name = 
REMARK  6 active torsions:
REMARK  status: ('A' for Active; 'I' for Inactive)
REMARK    1  A    between atoms: C_1  and  O_2
REMARK    2  A    between atoms: O_2  and  C_3
REMARK    3  A    between atoms: C_6  and  C_7
REMARK    4  A    between atoms: N_11  and  N_12
REMARK    5  A    between atoms: C_13  and  C_14
REMARK    6  A    between atoms: C_13  and  C_15
REMARK                            x       y       z     vdW  Elec       q    Type
REMARK                         _______ _______ _______ _____ _____    ______ ____
ROOT
ATOM      1  C   UNL     1       2.321   6.144  19.964  0.00  0.00    +0.000 A 
ATOM      2  C   UNL     1       1.624   4.976  20.194  0.00  0.00    +0.000 A 
ATOM      3  S   UNL     1       2.665   3.629  20.022  0.00  0.00    +0.000 S 
ATOM      4  C   UNL     1       3.984   4.693  19.694  0.00  0.00    +0.000 A 
ATOM      5  N   UNL     1       5.217   4.176  19.450  0.00  0.00    +0.000 N 
ATOM      6  N   UNL     1       3.661   5.969  19.667  0.00  0.00    +0.000 NA
ATOM      7  H   UNL     1       5.292   3.163  19.517  0.00  0.00    +0.000 HD
ENDROOT
BRANCH   1  11
ATOM      8  C   UNL     1       0.565  10.039  19.989  0.00  0.00    +0.000 A 
ATOM      9  C   UNL     1       0.457   9.218  21.109  0.00  0.00    +0.000 A 
ATOM     10  C   UNL     1       1.039   7.947  21.117  0.00  0.00    +0.000 A 
ATOM     11  C   UNL     1       1.722   7.472  19.990  0.00  0.00    +0.000 A 
ATOM     12  C   UNL     1       1.820   8.301  18.863  0.00  0.00    +0.000 A 
ATOM     13  C   UNL     1       1.238   9.576  18.860  0.00  0.00    +0.000 A 
BRANCH   8  15
ATOM     14  C   UNL     1      -0.171  11.997  18.891  0.00  0.00    +0.000 C 
ATOM     15  O   UNL     1      -0.060  11.255  20.097  0.00  0.00    +0.000 OA
ENDBRANCH   8  15
ENDBRANCH   1  11
BRANCH   5  16
ATOM     16  N   UNL     1       6.357   4.888  19.649  0.00  0.00    +0.000 NA
ATOM     17  C   UNL     1       7.010   5.354  18.623  0.00  0.00    +0.000 C 
ATOM     18  C   UNL     1       8.345   6.002  18.939  0.00  0.00    +0.000 C 
BRANCH  17  19
ATOM     19  C   UNL     1       6.576   5.338  17.195  0.00  0.00    +0.000 A 
ATOM     20  C   UNL     1       6.904   4.287  16.334  0.00  0.00    +0.000 A 
ATOM     21  C   UNL     1       6.500   4.327  15.000  0.00  0.00    +0.000 A 
ATOM     22  C   UNL     1       5.740   5.402  14.576  0.00  0.00    +0.000 A 
ATOM     23  N   UNL     1       5.369   6.418  15.384  0.00  0.00    +0.000 NA
ATOM     24  C   UNL     1       5.794   6.362  16.673  0.00  0.00    +0.000 A 
ENDBRANCH  17  19
ENDBRANCH   5  16
TORSDOF 4
ENDMDL
MODEL 3
REMARK VINA RESULT:      -7.2      0.645      1.439
REMARK  Name = 
REMARK  6 active torsions:
REMARK  status: ('A' for Active; 'I' for Inactive)
REMARK    1  A    between atoms: C_1  and  O_2
REMARK    2  A    between atoms: O_2  and  C_3
REMARK    3  A    between atoms: C_6  and  C_7
REMARK    4  A    between atoms: N_11  and  N_12
REMARK    5  A    between atoms: C_13  and  C_14
REMARK    6  A    between atoms: C_13  and  C_15
REMARK                            x       y       z     vdW  Elec       q    Type
REMARK                         _______ _______ _______ _____ _____    ______ ____
ROOT
ATOM      1  C   UNL     1       2.287   6.124  19.979  0.00  0.00    +0.000 A 
ATOM      2  C   UNL     1       1.570   4.968  20.206  0.00  0.00    +0.000 A 
ATOM      3  S   UNL     1       2.591   3.605  20.045  0.00  0.00    +0.000 S 
ATOM      4  C   UNL     1       3.929   4.646  19.726  0.00  0.00    +0.000 A 
ATOM      5  N   UNL     1       5.156   4.109  19.493  0.00  0.00    +0.000 N 
ATOM      6  N   UNL     1       3.627   5.928  19.694  0.00  0.00    +0.000 NA
ATOM      7  H   UNL     1       5.214   3.095  19.563  0.00  0.00    +0.000 HD
ENDROOT
BRANCH   1  11
ATOM      8  C   UNL     1       0.593  10.046  19.983  0.00  0.00    +0.000 A 
ATOM      9  C   UNL     1       0.498   9.245  21.118  0.00  0.00    +0.000 A 
ATOM     10  C   UNL     1       1.061   7.965  21.134  0.00  0.00    +0.000 A 
ATOM     11  C   UNL     1       1.709   7.461  19.998  0.00  0.00    +0.000 A 
ATOM     12  C   UNL     1       1.794   8.271  18.856  0.00  0.00    +0.000 A 
ATOM     13  C   UNL     1       1.231   9.555  18.846  0.00  0.00    +0.000 A 
BRANCH   8  15
ATOM     14  C   UNL     1       0.258  12.181  19.026  0.00  0.00    +0.000 C 
ATOM     15  O   UNL     1      -0.011  11.273  20.086  0.00  0.00    +0.000 OA
ENDBRANCH   8  15
ENDBRANCH   1  11
BRANCH   5  16
ATOM     16  N   UNL     1       6.305   4.804  19.700  0.00  0.00    +0.000 NA
ATOM     17  C   UNL     1       6.964   5.273  18.680  0.00  0.00    +0.000 C 
ATOM     18  C   UNL     1       8.307   5.899  19.002  0.00  0.00    +0.000 C 
BRANCH  17  19
ATOM     19  C   UNL     1       6.529   5.280  17.252  0.00  0.00    +0.000 A 
ATOM     20  C   UNL     1       5.633   6.231  16.756  0.00  0.00    +0.000 A 
ATOM     21  C   UNL     1       5.234   6.184  15.421  0.00  0.00    +0.000 A 
ATOM     22  C   UNL     1       5.778   5.207  14.607  0.00  0.00    +0.000 A 
ATOM     23  N   UNL     1       6.675   4.294  15.036  0.00  0.00    +0.000 NA
ATOM     24  C   UNL     1       7.030   4.352  16.346  0.00  0.00    +0.000 A 
ENDBRANCH  17  19
ENDBRANCH   5  16
TORSDOF 4
ENDMDL
MODEL 4
REMARK VINA RESULT:      -6.9      2.697      4.199
REMARK  Name = 
REMARK  6 active torsions:
REMARK  status: ('A' for Active; 'I' for Inactive)
REMARK    1  A    between atoms: C_1  and  O_2
REMARK    2  A    between atoms: O_2  and  C_3
REMARK    3  A    between atoms: C_6  and  C_7
REMARK    4  A    between atoms: N_11  and  N_12
REMARK    5  A    between atoms: C_13  and  C_14
REMARK    6  A    between atoms: C_13  and  C_15
REMARK                            x       y       z     vdW  Elec       q    Type
REMARK                         _______ _______ _______ _____ _____    ______ ____
ROOT
ATOM      1  C   UNL     1       0.641   9.761  19.906  0.00  0.00    +0.000 A 
ATOM      2  C   UNL     1       0.878  10.284  18.651  0.00  0.00    +0.000 A 
ATOM      3  S   UNL     1       1.954   9.271  17.789  0.00  0.00    +0.000 S 
ATOM      4  C   UNL     1       2.001   8.183  19.128  0.00  0.00    +0.000 A 
ATOM      5  N   UNL     1       2.761   7.059  19.051  0.00  0.00    +0.000 N 
ATOM      6  N   UNL     1       1.297   8.571  20.171  0.00  0.00    +0.000 NA
ATOM      7  H   UNL     1       3.238   6.908  18.165  0.00  0.00    +0.000 HD
ENDROOT
BRANCH   1  11
ATOM      8  C   UNL     1      -1.850  11.651  22.816  0.00  0.00    +0.000 A 
ATOM      9  C   UNL     1      -1.089  10.540  23.167  0.00  0.00    +0.000 A 
ATOM     10  C   UNL     1      -0.260   9.921  22.227  0.00  0.00    +0.000 A 
ATOM     11  C   UNL     1      -0.199  10.398  20.911  0.00  0.00    +0.000 A 
ATOM     12  C   UNL     1      -0.975  11.514  20.563  0.00  0.00    +0.000 A 
ATOM     13  C   UNL     1      -1.803  12.133  21.509  0.00  0.00    +0.000 A 
BRANCH   8  15
ATOM     14  C   UNL     1      -2.864  13.561  23.771  0.00  0.00    +0.000 C 
ATOM     15  O   UNL     1      -2.635  12.159  23.820  0.00  0.00    +0.000 OA
ENDBRANCH   8  15
ENDBRANCH   1  11
BRANCH   5  16
ATOM     16  N   UNL     1       2.507   5.957  19.804  0.00  0.00    +0.000 NA
ATOM     17  C   UNL     1       3.189   4.867  19.597  0.00  0.00    +0.000 C 
ATOM     18  C   UNL     1       2.730   3.651  20.380  0.00  0.00    +0.000 C 
BRANCH  17  19
ATOM     19  C   UNL     1       4.372   4.700  18.703  0.00  0.00    +0.000 A 
ATOM     20  C   UNL     1       4.238   4.365  17.353  0.00  0.00    +0.000 A 
ATOM     21  C   UNL     1       5.372   4.193  16.560  0.00  0.00    +0.000 A 
ATOM     22  C   UNL     1       6.612   4.403  17.135  0.00  0.00    +0.000 A 
ATOM     23  N   UNL     1       6.785   4.767  18.424  0.00  0.00    +0.000 NA
ATOM     24  C   UNL     1       5.663   4.907  19.176  0.00  0.00    +0.000 A 
ENDBRANCH  17  19
ENDBRANCH   5  16
TORSDOF 4
ENDMDL
MODEL 5
REMARK VINA RESULT:      -6.8      2.806      4.330
REMARK  Name = 
REMARK  6 active torsions:
REMARK  status: ('A' for Active; 'I' for Inactive)
REMARK    1  A    between atoms: C_1  and  O_2
REMARK    2  A    between atoms: O_2  and  C_3
REMARK    3  A    between atoms: C_6  and  C_7
REMARK    4  A    between atoms: N_11  and  N_12
REMARK    5  A    between atoms: C_13  and  C_14
REMARK    6  A    between atoms: C_13  and  C_15
REMARK                            x       y       z     vdW  Elec       q    Type
REMARK                         _______ _______ _______ _____ _____    ______ ____
ROOT
ATOM      1  C   UNL     1       0.470   9.968  19.951  0.00  0.00    +0.000 A 
ATOM      2  C   UNL     1       0.758  10.457  18.693  0.00  0.00    +0.000 A 
ATOM      3  S   UNL     1       1.851   9.410  17.895  0.00  0.00    +0.000 S 
ATOM      4  C   UNL     1       1.836   8.355  19.261  0.00  0.00    +0.000 A 
ATOM      5  N   UNL     1       2.584   7.220  19.239  0.00  0.00    +0.000 N 
ATOM      6  N   UNL     1       1.099   8.777  20.268  0.00  0.00    +0.000 NA
ATOM      7  H   UNL     1       3.090   7.042  18.374  0.00  0.00    +0.000 HD
ENDROOT
BRANCH   1  11
ATOM      8  C   UNL     1      -2.046  11.918  22.800  0.00  0.00    +0.000 A 
ATOM      9  C   UNL     1      -2.028  12.350  21.476  0.00  0.00    +0.000 A 
ATOM     10  C   UNL     1      -1.219  11.711  20.532  0.00  0.00    +0.000 A 
ATOM     11  C   UNL     1      -0.398  10.640  20.909  0.00  0.00    +0.000 A 
ATOM     12  C   UNL     1      -0.416  10.216  22.246  0.00  0.00    +0.000 A 
ATOM     13  C   UNL     1      -1.231  10.857  23.189  0.00  0.00    +0.000 A 
BRANCH   8  15
ATOM     14  C   UNL     1      -2.482  13.982  23.865  0.00  0.00    +0.000 C 
ATOM     15  O   UNL     1      -2.867  12.634  23.633  0.00  0.00    +0.000 OA
ENDBRANCH   8  15
ENDBRANCH   1  11
BRANCH   5  16
ATOM     16  N   UNL     1       2.288   6.140  20.008  0.00  0.00    +0.000 NA
ATOM     17  C   UNL     1       2.867   5.000  19.763  0.00  0.00    +0.000 C 
ATOM     18  C   UNL     1       2.360   3.823  20.575  0.00  0.00    +0.000 C 
BRANCH  17  19
ATOM     19  C   UNL     1       3.977   4.741  18.799  0.00  0.00    +0.000 A 
ATOM     20  C   UNL     1       3.738   4.494  17.444  0.00  0.00    +0.000 A 
ATOM     21  C   UNL     1       4.803   4.231  16.585  0.00  0.00    +0.000 A 
ATOM     22  C   UNL     1       6.086   4.264  17.100  0.00  0.00    +0.000 A 
ATOM     23  N   UNL     1       6.363   4.537  18.393  0.00  0.00    +0.000 NA
ATOM     24  C   UNL     1       5.304   4.770  19.210  0.00  0.00    +0.000 A 
ENDBRANCH  17  19
ENDBRANCH   5  16
TORSDOF 4
ENDMDL
MODEL 6
REMARK VINA RESULT:      -6.8      3.513      4.503
REMARK  Name = 
REMARK  6 active torsions:
REMARK  status: ('A' for Active; 'I' for Inactive)
REMARK    1  A    between atoms: C_1  and  O_2
REMARK    2  A    between atoms: O_2  and  C_3
REMARK    3  A    between atoms: C_6  and  C_7
REMARK    4  A    between atoms: N_11  and  N_12
REMARK    5  A    between atoms: C_13  and  C_14
REMARK    6  A    between atoms: C_13  and  C_15
REMARK                            x       y       z     vdW  Elec       q    Type
REMARK                         _______ _______ _______ _____ _____    ______ ____
ROOT
ATOM      1  C   UNL     1       0.993   9.153  20.357  0.00  0.00    +0.000 A 
ATOM      2  C   UNL     1       1.342   9.386  19.042  0.00  0.00    +0.000 A 
ATOM      3  S   UNL     1       2.281   8.085  18.447  0.00  0.00    +0.000 S 
ATOM      4  C   UNL     1       2.126   7.280  19.966  0.00  0.00    +0.000 A 
ATOM      5  N   UNL     1       2.714   6.067  20.145  0.00  0.00    +0.000 N 
ATOM      6  N   UNL     1       1.456   7.957  20.876  0.00  0.00    +0.000 NA
ATOM      7  H   UNL     1       3.189   5.683  19.332  0.00  0.00    +0.000 HD
ENDROOT
BRANCH   1  11
ATOM      8  C   UNL     1      -1.248  11.850  22.797  0.00  0.00    +0.000 A 
ATOM      9  C   UNL     1      -0.687  12.294  21.603  0.00  0.00    +0.000 A 
ATOM     10  C   UNL     1       0.037  11.417  20.789  0.00  0.00    +0.000 A 
ATOM     11  C   UNL     1       0.227  10.083  21.175  0.00  0.00    +0.000 A 
ATOM     12  C   UNL     1      -0.336   9.646  22.383  0.00  0.00    +0.000 A 
ATOM     13  C   UNL     1      -1.064  10.527  23.195  0.00  0.00    +0.000 A 
BRANCH   8  15
ATOM     14  C   UNL     1      -3.249  13.074  23.086  0.00  0.00    +0.000 C 
ATOM     15  O   UNL     1      -1.921  12.806  23.514  0.00  0.00    +0.000 OA
ENDBRANCH   8  15
ENDBRANCH   1  11
BRANCH   5  16
ATOM     16  N   UNL     1       2.276   5.178  21.075  0.00  0.00    +0.000 NA
ATOM     17  C   UNL     1       2.070   3.940  20.730  0.00  0.00    +0.000 C 
ATOM     18  C   UNL     1       1.440   3.062  21.796  0.00  0.00    +0.000 C 
BRANCH  17  19
ATOM     19  C   UNL     1       2.407   3.298  19.425  0.00  0.00    +0.000 A 
ATOM     20  C   UNL     1       3.318   2.242  19.333  0.00  0.00    +0.000 A 
ATOM     21  C   UNL     1       3.623   1.690  18.090  0.00  0.00    +0.000 A 
ATOM     22  C   UNL     1       2.974   2.187  16.974  0.00  0.00    +0.000 A 
ATOM     23  N   UNL     1       2.060   3.179  17.024  0.00  0.00    +0.000 NA
ATOM     24  C   UNL     1       1.798   3.710  18.246  0.00  0.00    +0.000 A 
ENDBRANCH  17  19
ENDBRANCH   5  16
TORSDOF 4
ENDMDL
MODEL 7
REMARK VINA RESULT:      -6.7      3.245      5.542
REMARK  Name = 
REMARK  6 active torsions:
REMARK  status: ('A' for Active; 'I' for Inactive)
REMARK    1  A    between atoms: C_1  and  O_2
REMARK    2  A    between atoms: O_2  and  C_3
REMARK    3  A    between atoms: C_6  and  C_7
REMARK    4  A    between atoms: N_11  and  N_12
REMARK    5  A    between atoms: C_13  and  C_14
REMARK    6  A    between atoms: C_13  and  C_15
REMARK                            x       y       z     vdW  Elec       q    Type
REMARK                         _______ _______ _______ _____ _____    ______ ____
ROOT
ATOM      1  C   UNL     1      -0.378   9.893  19.830  0.00  0.00    +0.000 A 
ATOM      2  C   UNL     1      -0.151  10.356  21.109  0.00  0.00    +0.000 A 
ATOM      3  S   UNL     1       1.110   9.461  21.841  0.00  0.00    +0.000 S 
ATOM      4  C   UNL     1       1.298   8.543  20.391  0.00  0.00    +0.000 A 
ATOM      5  N   UNL     1       2.244   7.569  20.333  0.00  0.00    +0.000 N 
ATOM      6  N   UNL     1       0.445   8.851  19.437  0.00  0.00    +0.000 NA
ATOM      7  H   UNL     1       2.825   7.468  21.162  0.00  0.00    +0.000 HD
ENDROOT
BRANCH   1  11
ATOM      8  C   UNL     1      -3.409  11.368  17.206  0.00  0.00    +0.000 A 
ATOM      9  C   UNL     1      -3.276  11.901  18.485  0.00  0.00    +0.000 A 
ATOM     10  C   UNL     1      -2.279  11.435  19.348  0.00  0.00    +0.000 A 
ATOM     11  C   UNL     1      -1.413  10.410  18.944  0.00  0.00    +0.000 A 
ATOM     12  C   UNL     1      -1.558   9.874  17.656  0.00  0.00    +0.000 A 
ATOM     13  C   UNL     1      -2.556  10.346  16.793  0.00  0.00    +0.000 A 
BRANCH   8  15
ATOM     14  C   UNL     1      -5.631  12.172  17.172  0.00  0.00    +0.000 C 
ATOM     15  O   UNL     1      -4.433  11.896  16.460  0.00  0.00    +0.000 OA
ENDBRANCH   8  15
ENDBRANCH   1  11
BRANCH   5  16
ATOM     16  N   UNL     1       2.776   7.141  19.158  0.00  0.00    +0.000 NA
ATOM     17  C   UNL     1       2.855   5.865  18.917  0.00  0.00    +0.000 C 
ATOM     18  C   UNL     1       3.600   5.485  17.650  0.00  0.00    +0.000 C 
BRANCH  17  19
ATOM     19  C   UNL     1       2.278   4.755  19.731  0.00  0.00    +0.000 A 
ATOM     20  C   UNL     1       1.350   3.854  19.202  0.00  0.00    +0.000 A 
ATOM     21  C   UNL     1       0.816   2.849  20.007  0.00  0.00    +0.000 A 
ATOM     22  C   UNL     1       1.260   2.749  21.313  0.00  0.00    +0.000 A 
ATOM     23  N   UNL     1       2.184   3.574  21.852  0.00  0.00    +0.000 NA
ATOM     24  C   UNL     1       2.671   4.555  21.050  0.00  0.00    +0.000 A 
ENDBRANCH  17  19
ENDBRANCH   5  16
TORSDOF 4
ENDMDL
MODEL 8
REMARK VINA RESULT:      -6.7      2.748      4.210
REMARK  Name = 
REMARK  6 active torsions:
REMARK  status: ('A' for Active; 'I' for Inactive)
REMARK    1  A    between atoms: C_1  and  O_2
REMARK    2  A    between atoms: O_2  and  C_3
REMARK    3  A    between atoms: C_6  and  C_7
REMARK    4  A    between atoms: N_11  and  N_12
REMARK    5  A    between atoms: C_13  and  C_14
REMARK    6  A    between atoms: C_13  and  C_15
REMARK                            x       y       z     vdW  Elec       q    Type
REMARK                         _______ _______ _______ _____ _____    ______ ____
ROOT
ATOM      1  C   UNL     1       0.536   9.898  19.926  0.00  0.00    +0.000 A 
ATOM      2  C   UNL     1       0.788  10.405  18.668  0.00  0.00    +0.000 A 
ATOM      3  S   UNL     1       1.881   9.387  17.834  0.00  0.00    +0.000 S 
ATOM      4  C   UNL     1       1.914   8.316  19.187  0.00  0.00    +0.000 A 
ATOM      5  N   UNL     1       2.680   7.194  19.135  0.00  0.00    +0.000 N 
ATOM      6  N   UNL     1       1.193   8.714  20.215  0.00  0.00    +0.000 NA
ATOM      7  H   UNL     1       3.170   7.035  18.258  0.00  0.00    +0.000 HD
ENDROOT
BRANCH   1  11
ATOM      8  C   UNL     1      -1.950  11.770  22.852  0.00  0.00    +0.000 A 
ATOM      9  C   UNL     1      -1.928  12.252  21.546  0.00  0.00    +0.000 A 
ATOM     10  C   UNL     1      -1.128  11.639  20.576  0.00  0.00    +0.000 A 
ATOM     11  C   UNL     1      -0.321  10.543  20.911  0.00  0.00    +0.000 A 
ATOM     12  C   UNL     1      -0.343  10.069  22.231  0.00  0.00    +0.000 A 
ATOM     13  C   UNL     1      -1.148  10.685  23.199  0.00  0.00    +0.000 A 
BRANCH   8  15
ATOM     14  C   UNL     1      -3.701  13.338  23.104  0.00  0.00    +0.000 C 
ATOM     15  O   UNL     1      -2.760  12.465  23.714  0.00  0.00    +0.000 OA
ENDBRANCH   8  15
ENDBRANCH   1  11
BRANCH   5  16
ATOM     16  N   UNL     1       2.420   6.101  19.899  0.00  0.00    +0.000 NA
ATOM     17  C   UNL     1       3.085   5.001  19.691  0.00  0.00    +0.000 C 
ATOM     18  C   UNL     1       2.619   3.796  20.487  0.00  0.00    +0.000 C 
BRANCH  17  19
ATOM     19  C   UNL     1       4.254   4.812  18.783  0.00  0.00    +0.000 A 
ATOM     20  C   UNL     1       5.555   5.142  19.174  0.00  0.00    +0.000 A 
ATOM     21  C   UNL     1       6.615   4.973  18.284  0.00  0.00    +0.000 A 
ATOM     22  C   UNL     1       6.346   4.438  17.038  0.00  0.00    +0.000 A 
ATOM     23  N   UNL     1       5.111   4.070  16.634  0.00  0.00    +0.000 NA
ATOM     24  C   UNL     1       4.096   4.264  17.515  0.00  0.00    +0.000 A 
ENDBRANCH  17  19
ENDBRANCH   5  16
TORSDOF 4
ENDMDL
MODEL 9
REMARK VINA RESULT:      -6.7      1.401      2.697
REMARK  Name = 
REMARK  6 active torsions:
REMARK  status: ('A' for Active; 'I' for Inactive)
REMARK    1  A    between atoms: C_1  and  O_2
REMARK    2  A    between atoms: O_2  and  C_3
REMARK    3  A    between atoms: C_6  and  C_7
REMARK    4  A    between atoms: N_11  and  N_12
REMARK    5  A    between atoms: C_13  and  C_14
REMARK    6  A    between atoms: C_13  and  C_15
REMARK                            x       y       z     vdW  Elec       q    Type
REMARK                         _______ _______ _______ _____ _____    ______ ____
ROOT
ATOM      1  C   UNL     1       3.072   5.898  18.939  0.00  0.00    +0.000 A 
ATOM      2  C   UNL     1       3.355   5.146  20.060  0.00  0.00    +0.000 A 
ATOM      3  S   UNL     1       4.119   3.683  19.607  0.00  0.00    +0.000 S 
ATOM      4  C   UNL     1       4.059   4.167  17.951  0.00  0.00    +0.000 A 
ATOM      5  N   UNL     1       4.565   3.344  16.994  0.00  0.00    +0.000 N 
ATOM      6  N   UNL     1       3.466   5.324  17.742  0.00  0.00    +0.000 NA
ATOM      7  H   UNL     1       4.996   2.486  17.333  0.00  0.00    +0.000 HD
ENDROOT
BRANCH   1  11
ATOM      8  C   UNL     1       1.066   9.667  19.076  0.00  0.00    +0.000 A 
ATOM      9  C   UNL     1       1.619   9.215  17.880  0.00  0.00    +0.000 A 
ATOM     10  C   UNL     1       2.266   7.977  17.820  0.00  0.00    +0.000 A 
ATOM     11  C   UNL     1       2.386   7.182  18.968  0.00  0.00    +0.000 A 
ATOM     12  C   UNL     1       1.833   7.648  20.170  0.00  0.00    +0.000 A 
ATOM     13  C   UNL     1       1.182   8.888  20.226  0.00  0.00    +0.000 A 
BRANCH   8  15
ATOM     14  C   UNL     1      -0.813  10.934  18.405  0.00  0.00    +0.000 C 
ATOM     15  O   UNL     1       0.472  10.901  19.011  0.00  0.00    +0.000 OA
ENDBRANCH   8  15
ENDBRANCH   1  11
BRANCH   5  16
ATOM     16  N   UNL     1       4.987   3.806  15.788  0.00  0.00    +0.000 NA
ATOM     17  C   UNL     1       5.906   4.726  15.739  0.00  0.00    +0.000 C 
ATOM     18  C   UNL     1       6.200   5.283  14.359  0.00  0.00    +0.000 C 
BRANCH  17  19
ATOM     19  C   UNL     1       6.707   5.262  16.879  0.00  0.00    +0.000 A 
ATOM     20  C   UNL     1       6.764   6.629  17.165  0.00  0.00    +0.000 A 
ATOM     21  C   UNL     1       7.545   7.089  18.224  0.00  0.00    +0.000 A 
ATOM     22  C   UNL     1       8.217   6.159  18.995  0.00  0.00    +0.000 A 
ATOM     23  N   UNL     1       8.158   4.827  18.778  0.00  0.00    +0.000 NA
ATOM     24  C   UNL     1       7.405   4.411  17.728  0.00  0.00    +0.000 A 
ENDBRANCH  17  19
ENDBRANCH   5  16
TORSDOF 4
ENDMDL
