MODEL 1
REMARK VINA RESULT:      -8.3      0.000      0.000
REMARK  Name = 
REMARK  7 active torsions:
REMARK  status: ('A' for Active; 'I' for Inactive)
REMARK    1  A    between atoms: C_1  and  C_2
REMARK    2  A    between atoms: C_2  and  C_3
REMARK    3  A    between atoms: C_4  and  C_5
REMARK    4  A    between atoms: C_5  and  C_6
REMARK    5  A    between atoms: C_7  and  O_8
REMARK    6  A    between atoms: C_16  and  C_17
REMARK    7  A    between atoms: C_16  and  C_18
REMARK                            x       y       z     vdW  Elec       q    Type
REMARK                         _______ _______ _______ _____ _____    ______ ____
ROOT
ATOM      1  C   UNL     1       3.558   5.519  18.947  0.00  0.00    +0.000 A 
ATOM      2  C   UNL     1       4.252   5.385  17.732  0.00  0.00    +0.000 A 
ATOM      3  C   UNL     1       4.279   6.410  16.785  0.00  0.00    +0.000 A 
ATOM      4  C   UNL     1       3.639   7.636  17.029  0.00  0.00    +0.000 A 
ATOM      5  C   UNL     1       2.968   7.842  18.249  0.00  0.00    +0.000 A 
ATOM      6  C   UNL     1       2.187   8.915  18.825  0.00  0.00    +0.000 A 
ATOM      7  C   UNL     1       1.666   8.413  19.993  0.00  0.00    +0.000 A 
ATOM      8  N   UNL     1       2.250   7.213  20.256  0.00  0.00    +0.000 N 
ATOM      9  C   UNL     1       2.958   6.773  19.167  0.00  0.00    +0.000 A 
ATOM     10  C   UNL     1       0.567   9.004  20.832  0.00  0.00    +0.000 C 
ATOM     11  C   UNL     1       1.177   9.710  22.058  0.00  0.00    +0.000 C 
ATOM     12  C   UNL     1      -0.358   7.868  21.330  0.00  0.00    +0.000 C 
ATOM     13  C   UNL     1      -0.253   9.914  19.877  0.00  0.00    +0.000 C 
ATOM     14  C   UNL     1      -1.372  10.697  20.588  0.00  0.00    +0.000 C 
ATOM     15  C   UNL     1      -1.735  11.916  19.742  0.00  0.00    +0.000 C 
ATOM     16  C   UNL     1      -2.972  12.637  20.252  0.00  0.00    +0.000 C 
ATOM     17  C   UNL     1      -2.402  13.508  21.366  0.00  0.00    +0.000 C 
ATOM     18  C   UNL     1      -1.035  13.956  20.810  0.00  0.00    +0.000 C 
ATOM     19  N   UNL     1      -0.612  12.839  19.966  0.00  0.00    +0.000 N 
ATOM     20  C   UNL     1       0.667  12.319  19.677  0.00  0.00    +0.000 C 
ATOM     21  O   UNL     1       1.723  12.817  20.071  0.00  0.00    +0.000 OA
ATOM     22  C   UNL     1       0.536  10.901  18.921  0.00  0.00    +0.000 C 
ATOM     23  C   UNL     1       1.813  10.266  18.270  0.00  0.00    +0.000 C 
ATOM     24  N   UNL     1      -0.438  11.236  17.838  0.00  0.00    +0.000 N 
ATOM     25  C   UNL     1      -1.692  11.681  18.217  0.00  0.00    +0.000 C 
ATOM     26  O   UNL     1      -2.611  11.846  17.432  0.00  0.00    +0.000 OA
ATOM     27  H   UNL     1       2.077   6.642  21.078  0.00  0.00    +0.000 HD
ATOM     28  H   UNL     1      -0.253  11.099  16.851  0.00  0.00    +0.000 HD
ENDROOT
BRANCH   2  29
ATOM     29  O   UNL     1       4.934   4.245  17.411  0.00  0.00    +0.000 OA
ATOM     30  H   UNL     1       4.885   4.118  16.449  0.00  0.00    +0.000 HD
ENDBRANCH   2  29
BRANCH   1  31
ATOM     31  C   UNL     1       3.446   4.391  19.956  0.00  0.00    +0.000 C 
BRANCH  31  35
ATOM     32  C   UNL     1       0.507   1.970  19.097  0.00  0.00    +0.000 C 
ATOM     33  C   UNL     1       1.892   2.561  19.114  0.00  0.00    +0.000 C 
ATOM     34  C   UNL     1       2.931   1.900  18.254  0.00  0.00    +0.000 C 
ATOM     35  C   UNL     1       2.137   3.663  19.852  0.00  0.00    +0.000 C 
ENDBRANCH  31  35
ENDBRANCH   1  31
TORSDOF 3
ENDMDL
MODEL 2
REMARK VINA RESULT:      -7.5      4.540      7.403
REMARK  Name = 
REMARK  7 active torsions:
REMARK  status: ('A' for Active; 'I' for Inactive)
REMARK    1  A    between atoms: C_1  and  C_2
REMARK    2  A    between atoms: C_2  and  C_3
REMARK    3  A    between atoms: C_4  and  C_5
REMARK    4  A    between atoms: C_5  and  C_6
REMARK    5  A    between atoms: C_7  and  O_8
REMARK    6  A    between atoms: C_16  and  C_17
REMARK    7  A    between atoms: C_16  and  C_18
REMARK                            x       y       z     vdW  Elec       q    Type
REMARK                         _______ _______ _______ _____ _____    ______ ____
ROOT
ATOM      1  C   UNL     1       0.093  11.021  18.898  0.00  0.00    +0.000 A 
ATOM      2  C   UNL     1      -0.054  10.034  17.909  0.00  0.00    +0.000 A 
ATOM      3  C   UNL     1      -1.309   9.678  17.408  0.00  0.00    +0.000 A 
ATOM      4  C   UNL     1      -2.473  10.322  17.854  0.00  0.00    +0.000 A 
ATOM      5  C   UNL     1      -2.380  11.350  18.810  0.00  0.00    +0.000 A 
ATOM      6  C   UNL     1      -3.325  12.189  19.516  0.00  0.00    +0.000 A 
ATOM      7  C   UNL     1      -2.589  12.880  20.447  0.00  0.00    +0.000 A 
ATOM      8  N   UNL     1      -1.267  12.677  20.203  0.00  0.00    +0.000 N 
ATOM      9  C   UNL     1      -1.094  11.664  19.294  0.00  0.00    +0.000 A 
ATOM     10  C   UNL     1      -3.106  13.668  21.619  0.00  0.00    +0.000 C 
ATOM     11  C   UNL     1      -3.066  15.172  21.287  0.00  0.00    +0.000 C 
ATOM     12  C   UNL     1      -2.197  13.412  22.844  0.00  0.00    +0.000 C 
ATOM     13  C   UNL     1      -4.514  13.091  21.930  0.00  0.00    +0.000 C 
ATOM     14  C   UNL     1      -5.255  13.851  23.045  0.00  0.00    +0.000 C 
ATOM     15  C   UNL     1      -6.754  13.596  22.905  0.00  0.00    +0.000 C 
ATOM     16  C   UNL     1      -7.554  14.130  24.082  0.00  0.00    +0.000 C 
ATOM     17  C   UNL     1      -7.712  15.603  23.724  0.00  0.00    +0.000 C 
ATOM     18  C   UNL     1      -7.912  15.583  22.194  0.00  0.00    +0.000 C 
ATOM     19  N   UNL     1      -7.139  14.423  21.751  0.00  0.00    +0.000 N 
ATOM     20  C   UNL     1      -6.416  14.180  20.564  0.00  0.00    +0.000 C 
ATOM     21  O   UNL     1      -6.385  14.950  19.603  0.00  0.00    +0.000 OA
ATOM     22  C   UNL     1      -5.512  12.854  20.722  0.00  0.00    +0.000 C 
ATOM     23  C   UNL     1      -4.830  12.245  19.449  0.00  0.00    +0.000 C 
ATOM     24  N   UNL     1      -6.514  11.877  21.244  0.00  0.00    +0.000 N 
ATOM     25  C   UNL     1      -7.128  12.170  22.450  0.00  0.00    +0.000 C 
ATOM     26  O   UNL     1      -7.850  11.385  23.042  0.00  0.00    +0.000 OA
ATOM     27  H   UNL     1      -0.501  13.102  20.718  0.00  0.00    +0.000 HD
ATOM     28  H   UNL     1      -6.722  10.991  20.800  0.00  0.00    +0.000 HD
ENDROOT
BRANCH   2  29
ATOM     29  O   UNL     1       1.018   9.369  17.385  0.00  0.00    +0.000 OA
ATOM     30  H   UNL     1       1.240   8.630  17.976  0.00  0.00    +0.000 HD
ENDBRANCH   2  29
BRANCH   1  31
ATOM     31  C   UNL     1       1.435  11.368  19.516  0.00  0.00    +0.000 C 
BRANCH  31  35
ATOM     32  C   UNL     1       3.475  14.378  18.096  0.00  0.00    +0.000 C 
ATOM     33  C   UNL     1       2.743  13.508  19.081  0.00  0.00    +0.000 C 
ATOM     34  C   UNL     1       2.601  14.028  20.484  0.00  0.00    +0.000 C 
ATOM     35  C   UNL     1       2.216  12.336  18.673  0.00  0.00    +0.000 C 
ENDBRANCH  31  35
ENDBRANCH   1  31
TORSDOF 3
ENDMDL
MODEL 3
REMARK VINA RESULT:      -7.1      1.195      1.433
REMARK  Name = 
REMARK  7 active torsions:
REMARK  status: ('A' for Active; 'I' for Inactive)
REMARK    1  A    between atoms: C_1  and  C_2
REMARK    2  A    between atoms: C_2  and  C_3
REMARK    3  A    between atoms: C_4  and  C_5
REMARK    4  A    between atoms: C_5  and  C_6
REMARK    5  A    between atoms: C_7  and  O_8
REMARK    6  A    between atoms: C_16  and  C_17
REMARK    7  A    between atoms: C_16  and  C_18
REMARK                            x       y       z     vdW  Elec       q    Type
REMARK                         _______ _______ _______ _____ _____    ______ ____
ROOT
ATOM      1  C   UNL     1       2.839   6.119  19.135  0.00  0.00    +0.000 A 
ATOM      2  C   UNL     1       3.340   6.142  17.822  0.00  0.00    +0.000 A 
ATOM      3  C   UNL     1       3.264   7.288  17.028  0.00  0.00    +0.000 A 
ATOM      4  C   UNL     1       2.710   8.478  17.527  0.00  0.00    +0.000 A 
ATOM      5  C   UNL     1       2.235   8.525  18.851  0.00  0.00    +0.000 A 
ATOM      6  C   UNL     1       1.586   9.519  19.678  0.00  0.00    +0.000 A 
ATOM      7  C   UNL     1       1.226   8.869  20.833  0.00  0.00    +0.000 A 
ATOM      8  N   UNL     1       1.799   7.635  20.841  0.00  0.00    +0.000 N 
ATOM      9  C   UNL     1       2.323   7.339  19.608  0.00  0.00    +0.000 A 
ATOM     10  C   UNL     1       0.284   9.355  21.900  0.00  0.00    +0.000 C 
ATOM     11  C   UNL     1       1.093   9.876  23.103  0.00  0.00    +0.000 C 
ATOM     12  C   UNL     1      -0.596   8.175  22.375  0.00  0.00    +0.000 C 
ATOM     13  C   UNL     1      -0.635  10.400  21.211  0.00  0.00    +0.000 C 
ATOM     14  C   UNL     1      -1.608  11.094  22.181  0.00  0.00    +0.000 C 
ATOM     15  C   UNL     1      -2.049  12.423  21.570  0.00  0.00    +0.000 C 
ATOM     16  C   UNL     1      -3.171  13.086  22.353  0.00  0.00    +0.000 C 
ATOM     17  C   UNL     1      -2.412  13.786  23.475  0.00  0.00    +0.000 C 
ATOM     18  C   UNL     1      -1.127  14.286  22.784  0.00  0.00    +0.000 C 
ATOM     19  N   UNL     1      -0.873  13.290  21.744  0.00  0.00    +0.000 N 
ATOM     20  C   UNL     1       0.330  12.795  21.198  0.00  0.00    +0.000 C 
ATOM     21  O   UNL     1       1.449  13.219  21.491  0.00  0.00    +0.000 OA
ATOM     22  C   UNL     1       0.038  11.497  20.286  0.00  0.00    +0.000 C 
ATOM     23  C   UNL     1       1.182  10.939  19.371  0.00  0.00    +0.000 C 
ATOM     24  N   UNL     1      -1.072  11.993  19.418  0.00  0.00    +0.000 N 
ATOM     25  C   UNL     1      -2.240  12.400  20.039  0.00  0.00    +0.000 C 
ATOM     26  O   UNL     1      -3.258  12.686  19.431  0.00  0.00    +0.000 OA
ATOM     27  H   UNL     1       1.729   6.959  21.596  0.00  0.00    +0.000 HD
ATOM     28  H   UNL     1      -1.040  11.990  18.406  0.00  0.00    +0.000 HD
ENDROOT
BRANCH   2  29
ATOM     29  O   UNL     1       3.926   5.048  17.252  0.00  0.00    +0.000 OA
ATOM     30  H   UNL     1       4.058   5.228  16.306  0.00  0.00    +0.000 HD
ENDBRANCH   2  29
BRANCH   1  31
ATOM     31  C   UNL     1       2.837   4.864  19.989  0.00  0.00    +0.000 C 
BRANCH  31  35
ATOM     32  C   UNL     1       0.504   1.960  18.824  0.00  0.00    +0.000 C 
ATOM     33  C   UNL     1       1.765   2.729  19.113  0.00  0.00    +0.000 C 
ATOM     34  C   UNL     1       3.066   2.088  18.721  0.00  0.00    +0.000 C 
ATOM     35  C   UNL     1       1.685   3.957  19.665  0.00  0.00    +0.000 C 
ENDBRANCH  31  35
ENDBRANCH   1  31
TORSDOF 3
ENDMDL
MODEL 4
REMARK VINA RESULT:      -7.1      8.746     10.917
REMARK  Name = 
REMARK  7 active torsions:
REMARK  status: ('A' for Active; 'I' for Inactive)
REMARK    1  A    between atoms: C_1  and  C_2
REMARK    2  A    between atoms: C_2  and  C_3
REMARK    3  A    between atoms: C_4  and  C_5
REMARK    4  A    between atoms: C_5  and  C_6
REMARK    5  A    between atoms: C_7  and  O_8
REMARK    6  A    between atoms: C_16  and  C_17
REMARK    7  A    between atoms: C_16  and  C_18
REMARK                            x       y       z     vdW  Elec       q    Type
REMARK                         _______ _______ _______ _____ _____    ______ ____
ROOT
ATOM      1  C   UNL     1       9.676  13.533  18.727  0.00  0.00    +0.000 A 
ATOM      2  C   UNL     1      10.715  12.625  18.464  0.00  0.00    +0.000 A 
ATOM      3  C   UNL     1      11.084  11.644  19.387  0.00  0.00    +0.000 A 
ATOM      4  C   UNL     1      10.400  11.506  20.606  0.00  0.00    +0.000 A 
ATOM      5  C   UNL     1       9.320  12.359  20.901  0.00  0.00    +0.000 A 
ATOM      6  C   UNL     1       8.431  12.542  22.028  0.00  0.00    +0.000 A 
ATOM      7  C   UNL     1       7.697  13.668  21.746  0.00  0.00    +0.000 A 
ATOM      8  N   UNL     1       7.930  14.036  20.458  0.00  0.00    +0.000 N 
ATOM      9  C   UNL     1       8.996  13.340  19.943  0.00  0.00    +0.000 A 
ATOM     10  C   UNL     1       6.837  14.459  22.693  0.00  0.00    +0.000 C 
ATOM     11  C   UNL     1       5.356  14.109  22.457  0.00  0.00    +0.000 C 
ATOM     12  C   UNL     1       7.035  15.968  22.418  0.00  0.00    +0.000 C 
ATOM     13  C   UNL     1       7.378  14.150  24.116  0.00  0.00    +0.000 C 
ATOM     14  C   UNL     1       6.546  14.794  25.240  0.00  0.00    +0.000 C 
ATOM     15  C   UNL     1       6.790  14.025  26.537  0.00  0.00    +0.000 C 
ATOM     16  C   UNL     1       6.180  14.709  27.749  0.00  0.00    +0.000 C 
ATOM     17  C   UNL     1       4.727  14.250  27.682  0.00  0.00    +0.000 C 
ATOM     18  C   UNL     1       4.832  12.789  27.197  0.00  0.00    +0.000 C 
ATOM     19  N   UNL     1       6.025  12.782  26.351  0.00  0.00    +0.000 N 
ATOM     20  C   UNL     1       6.344  12.042  25.193  0.00  0.00    +0.000 C 
ATOM     21  O   UNL     1       5.631  11.157  24.718  0.00  0.00    +0.000 OA
ATOM     22  C   UNL     1       7.670  12.640  24.495  0.00  0.00    +0.000 C 
ATOM     23  C   UNL     1       8.360  11.822  23.350  0.00  0.00    +0.000 C 
ATOM     24  N   UNL     1       8.604  12.716  25.660  0.00  0.00    +0.000 N 
ATOM     25  C   UNL     1       8.235  13.518  26.727  0.00  0.00    +0.000 C 
ATOM     26  O   UNL     1       8.976  13.770  27.662  0.00  0.00    +0.000 OA
ATOM     27  H   UNL     1       7.487  14.813  19.978  0.00  0.00    +0.000 HD
ATOM     28  H   UNL     1       9.511  12.267  25.685  0.00  0.00    +0.000 HD
ENDROOT
BRANCH   2  29
ATOM     29  O   UNL     1      11.423  12.653  17.296  0.00  0.00    +0.000 OA
ATOM     30  H   UNL     1      12.302  12.273  17.459  0.00  0.00    +0.000 HD
ENDBRANCH   2  29
BRANCH   1  31
ATOM     31  C   UNL     1       9.310  14.658  17.776  0.00  0.00    +0.000 C 
BRANCH  31  35
ATOM     32  C   UNL     1       9.806  18.330  19.003  0.00  0.00    +0.000 C 
ATOM     33  C   UNL     1       9.111  17.058  18.597  0.00  0.00    +0.000 C 
ATOM     34  C   UNL     1       7.608  17.072  18.580  0.00  0.00    +0.000 C 
ATOM     35  C   UNL     1       9.843  15.985  18.233  0.00  0.00    +0.000 C 
ENDBRANCH  31  35
ENDBRANCH   1  31
TORSDOF 3
ENDMDL
MODEL 5
REMARK VINA RESULT:      -7.0      9.175     11.272
REMARK  Name = 
REMARK  7 active torsions:
REMARK  status: ('A' for Active; 'I' for Inactive)
REMARK    1  A    between atoms: C_1  and  C_2
REMARK    2  A    between atoms: C_2  and  C_3
REMARK    3  A    between atoms: C_4  and  C_5
REMARK    4  A    between atoms: C_5  and  C_6
REMARK    5  A    between atoms: C_7  and  O_8
REMARK    6  A    between atoms: C_16  and  C_17
REMARK    7  A    between atoms: C_16  and  C_18
REMARK                            x       y       z     vdW  Elec       q    Type
REMARK                         _______ _______ _______ _____ _____    ______ ____
ROOT
ATOM      1  C   UNL     1      11.161  13.124  19.532  0.00  0.00    +0.000 A 
ATOM      2  C   UNL     1      11.140  11.855  18.930  0.00  0.00    +0.000 A 
ATOM      3  C   UNL     1      10.251  10.861  19.344  0.00  0.00    +0.000 A 
ATOM      4  C   UNL     1       9.314  11.108  20.360  0.00  0.00    +0.000 A 
ATOM      5  C   UNL     1       9.259  12.377  20.966  0.00  0.00    +0.000 A 
ATOM      6  C   UNL     1       8.487  12.976  22.034  0.00  0.00    +0.000 A 
ATOM      7  C   UNL     1       9.045  14.212  22.250  0.00  0.00    +0.000 A 
ATOM      8  N   UNL     1       9.937  14.473  21.258  0.00  0.00    +0.000 N 
ATOM      9  C   UNL     1      10.186  13.342  20.523  0.00  0.00    +0.000 A 
ATOM     10  C   UNL     1       8.813  15.127  23.421  0.00  0.00    +0.000 C 
ATOM     11  C   UNL     1       7.841  16.250  23.014  0.00  0.00    +0.000 C 
ATOM     12  C   UNL     1      10.158  15.768  23.838  0.00  0.00    +0.000 C 
ATOM     13  C   UNL     1       8.330  14.215  24.582  0.00  0.00    +0.000 C 
ATOM     14  C   UNL     1       7.936  14.995  25.850  0.00  0.00    +0.000 C 
ATOM     15  C   UNL     1       6.996  14.131  26.688  0.00  0.00    +0.000 C 
ATOM     16  C   UNL     1       6.718  14.726  28.059  0.00  0.00    +0.000 C 
ATOM     17  C   UNL     1       5.616  15.735  27.756  0.00  0.00    +0.000 C 
ATOM     18  C   UNL     1       4.761  15.025  26.686  0.00  0.00    +0.000 C 
ATOM     19  N   UNL     1       5.722  14.198  25.957  0.00  0.00    +0.000 N 
ATOM     20  C   UNL     1       5.780  13.809  24.602  0.00  0.00    +0.000 C 
ATOM     21  O   UNL     1       4.912  14.072  23.768  0.00  0.00    +0.000 OA
ATOM     22  C   UNL     1       7.209  13.138  24.273  0.00  0.00    +0.000 C 
ATOM     23  C   UNL     1       7.404  12.396  22.907  0.00  0.00    +0.000 C 
ATOM     24  N   UNL     1       7.326  12.143  25.381  0.00  0.00    +0.000 N 
ATOM     25  C   UNL     1       7.322  12.623  26.680  0.00  0.00    +0.000 C 
ATOM     26  O   UNL     1       7.555  11.925  27.653  0.00  0.00    +0.000 OA
ATOM     27  H   UNL     1      10.465  15.335  21.152  0.00  0.00    +0.000 HD
ATOM     28  H   UNL     1       7.468  11.150  25.235  0.00  0.00    +0.000 HD
ENDROOT
BRANCH   2  29
ATOM     29  O   UNL     1      11.988  11.523  17.912  0.00  0.00    +0.000 OA
ATOM     30  H   UNL     1      11.549  11.721  17.069  0.00  0.00    +0.000 HD
ENDBRANCH   2  29
BRANCH   1  31
ATOM     31  C   UNL     1      12.172  14.193  19.157  0.00  0.00    +0.000 C 
BRANCH  31  35
ATOM     32  C   UNL     1      10.783  17.311  17.263  0.00  0.00    +0.000 C 
ATOM     33  C   UNL     1      11.365  16.475  18.371  0.00  0.00    +0.000 C 
ATOM     34  C   UNL     1      11.590  17.149  19.695  0.00  0.00    +0.000 C 
ATOM     35  C   UNL     1      11.622  15.169  18.156  0.00  0.00    +0.000 C 
ENDBRANCH  31  35
ENDBRANCH   1  31
TORSDOF 3
ENDMDL
MODEL 6
REMARK VINA RESULT:      -6.9      4.283      7.410
REMARK  Name = 
REMARK  7 active torsions:
REMARK  status: ('A' for Active; 'I' for Inactive)
REMARK    1  A    between atoms: C_1  and  C_2
REMARK    2  A    between atoms: C_2  and  C_3
REMARK    3  A    between atoms: C_4  and  C_5
REMARK    4  A    between atoms: C_5  and  C_6
REMARK    5  A    between atoms: C_7  and  O_8
REMARK    6  A    between atoms: C_16  and  C_17
REMARK    7  A    between atoms: C_16  and  C_18
REMARK                            x       y       z     vdW  Elec       q    Type
REMARK                         _______ _______ _______ _____ _____    ______ ____
ROOT
ATOM      1  C   UNL     1       0.055  10.291  20.482  0.00  0.00    +0.000 A 
ATOM      2  C   UNL     1       0.467   9.204  21.271  0.00  0.00    +0.000 A 
ATOM      3  C   UNL     1       0.136   9.112  22.625  0.00  0.00    +0.000 A 
ATOM      4  C   UNL     1      -0.656  10.092  23.243  0.00  0.00    +0.000 A 
ATOM      5  C   UNL     1      -1.135  11.180  22.490  0.00  0.00    +0.000 A 
ATOM      6  C   UNL     1      -1.915  12.365  22.773  0.00  0.00    +0.000 A 
ATOM      7  C   UNL     1      -1.889  13.115  21.622  0.00  0.00    +0.000 A 
ATOM      8  N   UNL     1      -1.342  12.371  20.624  0.00  0.00    +0.000 N 
ATOM      9  C   UNL     1      -0.763  11.234  21.131  0.00  0.00    +0.000 A 
ATOM     10  C   UNL     1      -2.297  14.553  21.459  0.00  0.00    +0.000 C 
ATOM     11  C   UNL     1      -3.694  14.622  20.812  0.00  0.00    +0.000 C 
ATOM     12  C   UNL     1      -1.289  15.263  20.526  0.00  0.00    +0.000 C 
ATOM     13  C   UNL     1      -2.183  15.189  22.871  0.00  0.00    +0.000 C 
ATOM     14  C   UNL     1      -2.668  16.649  22.926  0.00  0.00    +0.000 C 
ATOM     15  C   UNL     1      -3.034  16.995  24.368  0.00  0.00    +0.000 C 
ATOM     16  C   UNL     1      -3.322  18.474  24.563  0.00  0.00    +0.000 C 
ATOM     17  C   UNL     1      -4.773  18.583  24.108  0.00  0.00    +0.000 C 
ATOM     18  C   UNL     1      -5.411  17.275  24.619  0.00  0.00    +0.000 C 
ATOM     19  N   UNL     1      -4.317  16.305  24.573  0.00  0.00    +0.000 N 
ATOM     20  C   UNL     1      -4.308  14.919  24.315  0.00  0.00    +0.000 C 
ATOM     21  O   UNL     1      -5.321  14.239  24.145  0.00  0.00    +0.000 OA
ATOM     22  C   UNL     1      -2.796  14.400  24.101  0.00  0.00    +0.000 C 
ATOM     23  C   UNL     1      -2.520  12.857  24.063  0.00  0.00    +0.000 C 
ATOM     24  N   UNL     1      -2.115  14.979  25.299  0.00  0.00    +0.000 N 
ATOM     25  C   UNL     1      -2.122  16.356  25.437  0.00  0.00    +0.000 C 
ATOM     26  O   UNL     1      -1.481  16.947  26.290  0.00  0.00    +0.000 OA
ATOM     27  H   UNL     1      -1.237  12.668  19.658  0.00  0.00    +0.000 HD
ATOM     28  H   UNL     1      -1.602  14.429  25.977  0.00  0.00    +0.000 HD
ENDROOT
BRANCH   2  29
ATOM     29  O   UNL     1       1.213   8.181  20.760  0.00  0.00    +0.000 OA
ATOM     30  H   UNL     1       1.820   7.867  21.451  0.00  0.00    +0.000 HD
ENDBRANCH   2  29
BRANCH   1  31
ATOM     31  C   UNL     1       0.468  10.454  19.032  0.00  0.00    +0.000 C 
BRANCH  31  35
ATOM     32  C   UNL     1      -2.453   9.633  16.576  0.00  0.00    +0.000 C 
ATOM     33  C   UNL     1      -1.545  10.428  17.475  0.00  0.00    +0.000 C 
ATOM     34  C   UNL     1      -1.879  11.880  17.679  0.00  0.00    +0.000 C 
ATOM     35  C   UNL     1      -0.509   9.817  18.086  0.00  0.00    +0.000 C 
ENDBRANCH  31  35
ENDBRANCH   1  31
TORSDOF 3
ENDMDL
MODEL 7
REMARK VINA RESULT:      -6.9      6.694      8.174
REMARK  Name = 
REMARK  7 active torsions:
REMARK  status: ('A' for Active; 'I' for Inactive)
REMARK    1  A    between atoms: C_1  and  C_2
REMARK    2  A    between atoms: C_2  and  C_3
REMARK    3  A    between atoms: C_4  and  C_5
REMARK    4  A    between atoms: C_5  and  C_6
REMARK    5  A    between atoms: C_7  and  O_8
REMARK    6  A    between atoms: C_16  and  C_17
REMARK    7  A    between atoms: C_16  and  C_18
REMARK                            x       y       z     vdW  Elec       q    Type
REMARK                         _______ _______ _______ _____ _____    ______ ____
ROOT
ATOM      1  C   UNL     1       9.233  13.958  20.164  0.00  0.00    +0.000 A 
ATOM      2  C   UNL     1       9.933  13.393  19.085  0.00  0.00    +0.000 A 
ATOM      3  C   UNL     1       9.346  13.246  17.826  0.00  0.00    +0.000 A 
ATOM      4  C   UNL     1       8.037  13.692  17.583  0.00  0.00    +0.000 A 
ATOM      5  C   UNL     1       7.306  14.307  18.616  0.00  0.00    +0.000 A 
ATOM      6  C   UNL     1       5.967  14.839  18.754  0.00  0.00    +0.000 A 
ATOM      7  C   UNL     1       5.823  15.147  20.085  0.00  0.00    +0.000 A 
ATOM      8  N   UNL     1       7.033  15.041  20.696  0.00  0.00    +0.000 N 
ATOM      9  C   UNL     1       7.937  14.421  19.871  0.00  0.00    +0.000 A 
ATOM     10  C   UNL     1       4.547  15.464  20.816  0.00  0.00    +0.000 C 
ATOM     11  C   UNL     1       4.437  16.986  21.023  0.00  0.00    +0.000 C 
ATOM     12  C   UNL     1       4.575  14.781  22.204  0.00  0.00    +0.000 C 
ATOM     13  C   UNL     1       3.408  14.819  19.980  0.00  0.00    +0.000 C 
ATOM     14  C   UNL     1       2.001  15.130  20.521  0.00  0.00    +0.000 C 
ATOM     15  C   UNL     1       0.987  14.948  19.393  0.00  0.00    +0.000 C 
ATOM     16  C   UNL     1      -0.451  15.027  19.877  0.00  0.00    +0.000 C 
ATOM     17  C   UNL     1      -0.693  16.531  19.929  0.00  0.00    +0.000 C 
ATOM     18  C   UNL     1       0.070  17.062  18.698  0.00  0.00    +0.000 C 
ATOM     19  N   UNL     1       1.192  16.136  18.550  0.00  0.00    +0.000 N 
ATOM     20  C   UNL     1       2.511  16.333  18.091  0.00  0.00    +0.000 C 
ATOM     21  O   UNL     1       2.934  17.397  17.635  0.00  0.00    +0.000 OA
ATOM     22  C   UNL     1       3.414  15.036  18.411  0.00  0.00    +0.000 C 
ATOM     23  C   UNL     1       4.836  14.921  17.761  0.00  0.00    +0.000 C 
ATOM     24  N   UNL     1       2.552  13.940  17.874  0.00  0.00    +0.000 N 
ATOM     25  C   UNL     1       1.294  13.782  18.430  0.00  0.00    +0.000 C 
ATOM     26  O   UNL     1       0.562  12.840  18.175  0.00  0.00    +0.000 OA
ATOM     27  H   UNL     1       7.220  15.249  21.673  0.00  0.00    +0.000 HD
ATOM     28  H   UNL     1       2.857  13.273  17.175  0.00  0.00    +0.000 HD
ENDROOT
BRANCH   2  29
ATOM     29  O   UNL     1      11.221  12.957  19.207  0.00  0.00    +0.000 OA
ATOM     30  H   UNL     1      11.374  12.260  18.547  0.00  0.00    +0.000 HD
ENDBRANCH   2  29
BRANCH   1  31
ATOM     31  C   UNL     1       9.820  14.056  21.560  0.00  0.00    +0.000 C 
BRANCH  31  35
ATOM     32  C   UNL     1       8.200  11.882  24.368  0.00  0.00    +0.000 C 
ATOM     33  C   UNL     1       8.570  13.095  23.558  0.00  0.00    +0.000 C 
ATOM     34  C   UNL     1       8.086  14.428  24.056  0.00  0.00    +0.000 C 
ATOM     35  C   UNL     1       9.338  12.953  22.459  0.00  0.00    +0.000 C 
ENDBRANCH  31  35
ENDBRANCH   1  31
TORSDOF 3
ENDMDL
MODEL 8
REMARK VINA RESULT:      -6.9      2.383      4.532
REMARK  Name = 
REMARK  7 active torsions:
REMARK  status: ('A' for Active; 'I' for Inactive)
REMARK    1  A    between atoms: C_1  and  C_2
REMARK    2  A    between atoms: C_2  and  C_3
REMARK    3  A    between atoms: C_4  and  C_5
REMARK    4  A    between atoms: C_5  and  C_6
REMARK    5  A    between atoms: C_7  and  O_8
REMARK    6  A    between atoms: C_16  and  C_17
REMARK    7  A    between atoms: C_16  and  C_18
REMARK                            x       y       z     vdW  Elec       q    Type
REMARK                         _______ _______ _______ _____ _____    ______ ____
ROOT
ATOM      1  C   UNL     1       2.239   7.887  18.752  0.00  0.00    +0.000 A 
ATOM      2  C   UNL     1       2.273   6.872  19.723  0.00  0.00    +0.000 A 
ATOM      3  C   UNL     1       1.632   7.013  20.956  0.00  0.00    +0.000 A 
ATOM      4  C   UNL     1       0.896   8.169  21.259  0.00  0.00    +0.000 A 
ATOM      5  C   UNL     1       0.789   9.199  20.305  0.00  0.00    +0.000 A 
ATOM      6  C   UNL     1       0.174  10.508  20.268  0.00  0.00    +0.000 A 
ATOM      7  C   UNL     1       0.586  11.082  19.090  0.00  0.00    +0.000 A 
ATOM      8  N   UNL     1       1.214  10.139  18.337  0.00  0.00    +0.000 N 
ATOM      9  C   UNL     1       1.464   9.014  19.082  0.00  0.00    +0.000 A 
ATOM     10  C   UNL     1       0.472  12.526  18.688  0.00  0.00    +0.000 C 
ATOM     11  C   UNL     1      -0.709  12.698  17.714  0.00  0.00    +0.000 C 
ATOM     12  C   UNL     1       1.771  12.956  17.966  0.00  0.00    +0.000 C 
ATOM     13  C   UNL     1       0.366  13.328  20.014  0.00  0.00    +0.000 C 
ATOM     14  C   UNL     1       0.132  14.835  19.801  0.00  0.00    +0.000 C 
ATOM     15  C   UNL     1      -0.489  15.422  21.067  0.00  0.00    +0.000 C 
ATOM     16  C   UNL     1      -0.563  16.940  21.035  0.00  0.00    +0.000 C 
ATOM     17  C   UNL     1      -1.834  17.184  20.228  0.00  0.00    +0.000 C 
ATOM     18  C   UNL     1      -2.780  16.059  20.695  0.00  0.00    +0.000 C 
ATOM     19  N   UNL     1      -1.882  14.951  21.018  0.00  0.00    +0.000 N 
ATOM     20  C   UNL     1      -2.046  13.554  20.909  0.00  0.00    +0.000 C 
ATOM     21  O   UNL     1      -3.093  13.005  20.564  0.00  0.00    +0.000 OA
ATOM     22  C   UNL     1      -0.633  12.807  21.128  0.00  0.00    +0.000 C 
ATOM     23  C   UNL     1      -0.618  11.251  21.313  0.00  0.00    +0.000 C 
ATOM     24  N   UNL     1      -0.157  13.446  22.392  0.00  0.00    +0.000 N 
ATOM     25  C   UNL     1       0.036  14.817  22.386  0.00  0.00    +0.000 C 
ATOM     26  O   UNL     1       0.555  15.424  23.307  0.00  0.00    +0.000 OA
ATOM     27  H   UNL     1       1.584  10.283  17.402  0.00  0.00    +0.000 HD
ATOM     28  H   UNL     1       0.089  12.928  23.227  0.00  0.00    +0.000 HD
ENDROOT
BRANCH   2  29
ATOM     29  O   UNL     1       2.935   5.695  19.516  0.00  0.00    +0.000 OA
ATOM     30  H   UNL     1       3.762   5.713  20.025  0.00  0.00    +0.000 HD
ENDBRANCH   2  29
BRANCH   1  31
ATOM     31  C   UNL     1       2.993   7.791  17.439  0.00  0.00    +0.000 C 
BRANCH  31  35
ATOM     32  C   UNL     1       6.772   6.817  17.488  0.00  0.00    +0.000 C 
ATOM     33  C   UNL     1       5.303   6.759  17.167  0.00  0.00    +0.000 C 
ATOM     34  C   UNL     1       4.823   5.589  16.355  0.00  0.00    +0.000 C 
ATOM     35  C   UNL     1       4.479   7.716  17.641  0.00  0.00    +0.000 C 
ENDBRANCH  31  35
ENDBRANCH   1  31
TORSDOF 3
ENDMDL
MODEL 9
REMARK VINA RESULT:      -6.7      2.103      8.114
REMARK  Name = 
REMARK  7 active torsions:
REMARK  status: ('A' for Active; 'I' for Inactive)
REMARK    1  A    between atoms: C_1  and  C_2
REMARK    2  A    between atoms: C_2  and  C_3
REMARK    3  A    between atoms: C_4  and  C_5
REMARK    4  A    between atoms: C_5  and  C_6
REMARK    5  A    between atoms: C_7  and  O_8
REMARK    6  A    between atoms: C_16  and  C_17
REMARK    7  A    between atoms: C_16  and  C_18
REMARK                            x       y       z     vdW  Elec       q    Type
REMARK                         _______ _______ _______ _____ _____    ______ ____
ROOT
ATOM      1  C   UNL     1      -0.385  11.334  21.065  0.00  0.00    +0.000 A 
ATOM      2  C   UNL     1      -0.810  11.380  22.403  0.00  0.00    +0.000 A 
ATOM      3  C   UNL     1      -0.544  10.338  23.294  0.00  0.00    +0.000 A 
ATOM      4  C   UNL     1       0.195   9.215  22.891  0.00  0.00    +0.000 A 
ATOM      5  C   UNL     1       0.685   9.137  21.574  0.00  0.00    +0.000 A 
ATOM      6  C   UNL     1       1.424   8.157  20.806  0.00  0.00    +0.000 A 
ATOM      7  C   UNL     1       1.437   8.627  19.516  0.00  0.00    +0.000 A 
ATOM      8  N   UNL     1       0.955   9.899  19.504  0.00  0.00    +0.000 N 
ATOM      9  C   UNL     1       0.379  10.207  20.710  0.00  0.00    +0.000 A 
ATOM     10  C   UNL     1       1.820   7.871  18.273  0.00  0.00    +0.000 C 
ATOM     11  C   UNL     1       3.244   8.273  17.844  0.00  0.00    +0.000 C 
ATOM     12  C   UNL     1       0.842   8.241  17.133  0.00  0.00    +0.000 C 
ATOM     13  C   UNL     1       1.623   6.369  18.612  0.00  0.00    +0.000 C 
ATOM     14  C   UNL     1       2.071   5.422  17.484  0.00  0.00    +0.000 C 
ATOM     15  C   UNL     1       2.359   4.045  18.079  0.00  0.00    +0.000 C 
ATOM     16  C   UNL     1       2.604   2.986  17.017  0.00  0.00    +0.000 C 
ATOM     17  C   UNL     1       4.073   3.208  16.673  0.00  0.00    +0.000 C 
ATOM     18  C   UNL     1       4.715   3.553  18.032  0.00  0.00    +0.000 C 
ATOM     19  N   UNL     1       3.646   4.229  18.767  0.00  0.00    +0.000 N 
ATOM     20  C   UNL     1       3.681   5.269  19.720  0.00  0.00    +0.000 C 
ATOM     21  O   UNL     1       4.717   5.760  20.171  0.00  0.00    +0.000 OA
ATOM     22  C   UNL     1       2.193   5.830  19.989  0.00  0.00    +0.000 C 
ATOM     23  C   UNL     1       1.955   6.802  21.196  0.00  0.00    +0.000 C 
ATOM     24  N   UNL     1       1.443   4.562  20.239  0.00  0.00    +0.000 N 
ATOM     25  C   UNL     1       1.411   3.624  19.221  0.00  0.00    +0.000 C 
ATOM     26  O   UNL     1       0.716   2.622  19.256  0.00  0.00    +0.000 OA
ATOM     27  H   UNL     1       0.891  10.496  18.685  0.00  0.00    +0.000 HD
ATOM     28  H   UNL     1       0.910   4.379  21.080  0.00  0.00    +0.000 HD
ENDROOT
BRANCH   2  29
ATOM     29  O   UNL     1      -1.508  12.442  22.905  0.00  0.00    +0.000 OA
ATOM     30  H   UNL     1      -2.454  12.220  22.897  0.00  0.00    +0.000 HD
ENDBRANCH   2  29
BRANCH   1  31
ATOM     31  C   UNL     1      -0.731  12.415  20.057  0.00  0.00    +0.000 C 
BRANCH  31  35
ATOM     32  C   UNL     1      -4.192  11.766  18.372  0.00  0.00    +0.000 C 
ATOM     33  C   UNL     1      -2.717  11.662  18.656  0.00  0.00    +0.000 C 
ATOM     34  C   UNL     1      -1.905  10.775  17.754  0.00  0.00    +0.000 C 
ATOM     35  C   UNL     1      -2.180  12.381  19.662  0.00  0.00    +0.000 C 
ENDBRANCH  31  35
ENDBRANCH   1  31
TORSDOF 3
ENDMDL
