MODEL 1
REMARK VINA RESULT:      -7.0      0.000      0.000
REMARK  Name = 
REMARK  2 active torsions:
REMARK  status: ('A' for Active; 'I' for Inactive)
REMARK    1  A    between atoms: C_4  and  S_5
REMARK    2  A    between atoms: S_5  and  C_6
REMARK                            x       y       z     vdW  Elec       q    Type
REMARK                         _______ _______ _______ _____ _____    ______ ____
ROOT
ATOM      1  C   UNL     1       3.309   7.102  17.895  0.00  0.00    +0.000 A 
ATOM      2  N   UNL     1       3.478   5.905  18.437  0.00  0.00    +0.000 NA
ATOM      3  C   UNL     1       2.845   5.704  19.588  0.00  0.00    +0.000 A 
ATOM      4  N   UNL     1       2.882   4.446  20.138  0.00  0.00    +0.000 N 
ATOM      5  C   UNL     1       3.587   3.362  19.473  0.00  0.00    +0.000 C 
ATOM      6  C   UNL     1       2.604   2.238  19.143  0.00  0.00    +0.000 C 
ATOM      7  C   UNL     1       1.794   1.822  20.372  0.00  0.00    +0.000 C 
ATOM      8  C   UNL     1       1.138   3.025  21.051  0.00  0.00    +0.000 C 
ATOM      9  C   UNL     1       2.151   4.132  21.350  0.00  0.00    +0.000 C 
ATOM     10  N   UNL     1       2.159   6.654  20.203  0.00  0.00    +0.000 NA
ATOM     11  C   UNL     1       2.084   7.837  19.623  0.00  0.00    +0.000 A 
ATOM     12  N   UNL     1       1.431   8.863  20.268  0.00  0.00    +0.000 N 
ATOM     13  C   UNL     1       0.825   8.674  21.570  0.00  0.00    +0.000 C 
ATOM     14  C   UNL     1      -0.666   9.009  21.483  0.00  0.00    +0.000 C 
ATOM     15  C   UNL     1      -0.903  10.379  20.841  0.00  0.00    +0.000 C 
ATOM     16  C   UNL     1      -0.155  10.522  19.513  0.00  0.00    +0.000 C 
ATOM     17  C   UNL     1       1.326  10.175  19.660  0.00  0.00    +0.000 C 
ATOM     18  N   UNL     1       2.614   8.086  18.434  0.00  0.00    +0.000 NA
ENDROOT
BRANCH   1  19
ATOM     19  S   UNL     1       4.164   7.465  16.388  0.00  0.00    +0.000 S 
BRANCH  19  23
ATOM     20  C   UNL     1       7.365   4.256  16.140  0.00  0.00    +0.000 A 
ATOM     21  C   UNL     1       6.378   4.254  15.163  0.00  0.00    +0.000 A 
ATOM     22  C   UNL     1       5.365   5.219  15.195  0.00  0.00    +0.000 A 
ATOM     23  C   UNL     1       5.358   6.160  16.220  0.00  0.00    +0.000 A 
ATOM     24  N   UNL     1       6.335   6.179  17.165  0.00  0.00    +0.000 NA
ATOM     25  C   UNL     1       7.302   5.237  17.110  0.00  0.00    +0.000 A 
ENDBRANCH  19  23
ENDBRANCH   1  19
TORSDOF 2
ENDMDL
MODEL 2
REMARK VINA RESULT:      -6.8      1.494      5.168
REMARK  Name = 
REMARK  2 active torsions:
REMARK  status: ('A' for Active; 'I' for Inactive)
REMARK    1  A    between atoms: C_4  and  S_5
REMARK    2  A    between atoms: S_5  and  C_6
REMARK                            x       y       z     vdW  Elec       q    Type
REMARK                         _______ _______ _______ _____ _____    ______ ____
ROOT
ATOM      1  C   UNL     1       4.704   6.620  17.771  0.00  0.00    +0.000 A 
ATOM      2  N   UNL     1       3.920   7.675  17.601  0.00  0.00    +0.000 NA
ATOM      3  C   UNL     1       2.689   7.557  18.089  0.00  0.00    +0.000 A 
ATOM      4  N   UNL     1       1.869   8.658  18.054  0.00  0.00    +0.000 N 
ATOM      5  C   UNL     1       2.339   9.920  17.507  0.00  0.00    +0.000 C 
ATOM      6  C   UNL     1       2.283  11.000  18.589  0.00  0.00    +0.000 C 
ATOM      7  C   UNL     1       0.907  11.058  19.254  0.00  0.00    +0.000 C 
ATOM      8  C   UNL     1       0.456   9.680  19.743  0.00  0.00    +0.000 C 
ATOM      9  C   UNL     1       0.542   8.627  18.637  0.00  0.00    +0.000 C 
ATOM     10  N   UNL     1       2.239   6.437  18.631  0.00  0.00    +0.000 NA
ATOM     11  C   UNL     1       3.067   5.413  18.713  0.00  0.00    +0.000 A 
ATOM     12  N   UNL     1       2.609   4.215  19.214  0.00  0.00    +0.000 N 
ATOM     13  C   UNL     1       1.239   4.053  19.654  0.00  0.00    +0.000 C 
ATOM     14  C   UNL     1       1.230   3.618  21.122  0.00  0.00    +0.000 C 
ATOM     15  C   UNL     1       2.142   2.411  21.360  0.00  0.00    +0.000 C 
ATOM     16  C   UNL     1       3.544   2.636  20.786  0.00  0.00    +0.000 C 
ATOM     17  C   UNL     1       3.490   3.069  19.321  0.00  0.00    +0.000 C 
ATOM     18  N   UNL     1       4.334   5.483  18.330  0.00  0.00    +0.000 NA
ENDROOT
BRANCH   1  19
ATOM     19  S   UNL     1       6.341   6.680  17.101  0.00  0.00    +0.000 S 
BRANCH  19  23
ATOM     20  C   UNL     1       6.447   4.015  13.428  0.00  0.00    +0.000 A 
ATOM     21  C   UNL     1       5.280   4.021  14.182  0.00  0.00    +0.000 A 
ATOM     22  C   UNL     1       5.196   4.822  15.326  0.00  0.00    +0.000 A 
ATOM     23  C   UNL     1       6.295   5.591  15.697  0.00  0.00    +0.000 A 
ATOM     24  N   UNL     1       7.431   5.605  14.949  0.00  0.00    +0.000 NA
ATOM     25  C   UNL     1       7.485   4.823  13.849  0.00  0.00    +0.000 A 
ENDBRANCH  19  23
ENDBRANCH   1  19
TORSDOF 2
ENDMDL
MODEL 3
REMARK VINA RESULT:      -6.5      0.908      5.022
REMARK  Name = 
REMARK  2 active torsions:
REMARK  status: ('A' for Active; 'I' for Inactive)
REMARK    1  A    between atoms: C_4  and  S_5
REMARK    2  A    between atoms: S_5  and  C_6
REMARK                            x       y       z     vdW  Elec       q    Type
REMARK                         _______ _______ _______ _____ _____    ______ ____
ROOT
ATOM      1  C   UNL     1       3.220   7.279  18.201  0.00  0.00    +0.000 A 
ATOM      2  N   UNL     1       2.377   8.196  18.652  0.00  0.00    +0.000 NA
ATOM      3  C   UNL     1       1.536   7.785  19.595  0.00  0.00    +0.000 A 
ATOM      4  N   UNL     1       0.721   8.718  20.189  0.00  0.00    +0.000 N 
ATOM      5  C   UNL     1       0.786  10.118  19.803  0.00  0.00    +0.000 C 
ATOM      6  C   UNL     1       1.172  10.967  21.015  0.00  0.00    +0.000 C 
ATOM      7  C   UNL     1       0.275  10.670  22.218  0.00  0.00    +0.000 C 
ATOM      8  C   UNL     1       0.208   9.172  22.518  0.00  0.00    +0.000 C 
ATOM      9  C   UNL     1      -0.166   8.358  21.278  0.00  0.00    +0.000 C 
ATOM     10  N   UNL     1       1.477   6.527  20.002  0.00  0.00    +0.000 NA
ATOM     11  C   UNL     1       2.314   5.663  19.463  0.00  0.00    +0.000 A 
ATOM     12  N   UNL     1       2.235   4.336  19.819  0.00  0.00    +0.000 N 
ATOM     13  C   UNL     1       1.251   3.866  20.773  0.00  0.00    +0.000 C 
ATOM     14  C   UNL     1       1.969   3.187  21.943  0.00  0.00    +0.000 C 
ATOM     15  C   UNL     1       2.968   2.133  21.458  0.00  0.00    +0.000 C 
ATOM     16  C   UNL     1       3.911   2.691  20.388  0.00  0.00    +0.000 C 
ATOM     17  C   UNL     1       3.140   3.357  19.249  0.00  0.00    +0.000 C 
ATOM     18  N   UNL     1       3.240   6.016  18.582  0.00  0.00    +0.000 NA
ENDROOT
BRANCH   1  19
ATOM     19  S   UNL     1       4.336   7.736  16.905  0.00  0.00    +0.000 S 
BRANCH  19  23
ATOM     20  C   UNL     1       7.460   4.443  16.851  0.00  0.00    +0.000 A 
ATOM     21  C   UNL     1       6.470   4.403  15.878  0.00  0.00    +0.000 A 
ATOM     22  C   UNL     1       5.480   5.392  15.852  0.00  0.00    +0.000 A 
ATOM     23  C   UNL     1       5.499   6.395  16.816  0.00  0.00    +0.000 A 
ATOM     24  N   UNL     1       6.480   6.450  17.756  0.00  0.00    +0.000 NA
ATOM     25  C   UNL     1       7.424   5.484  17.758  0.00  0.00    +0.000 A 
ENDBRANCH  19  23
ENDBRANCH   1  19
TORSDOF 2
ENDMDL
MODEL 4
REMARK VINA RESULT:      -6.5      7.519     10.205
REMARK  Name = 
REMARK  2 active torsions:
REMARK  status: ('A' for Active; 'I' for Inactive)
REMARK    1  A    between atoms: C_4  and  S_5
REMARK    2  A    between atoms: S_5  and  C_6
REMARK                            x       y       z     vdW  Elec       q    Type
REMARK                         _______ _______ _______ _____ _____    ______ ____
ROOT
ATOM      1  C   UNL     1      -2.135  13.009  21.702  0.00  0.00    +0.000 A 
ATOM      2  N   UNL     1      -3.332  13.329  22.170  0.00  0.00    +0.000 NA
ATOM      3  C   UNL     1      -4.355  13.039  21.373  0.00  0.00    +0.000 A 
ATOM      4  N   UNL     1      -5.628  13.234  21.852  0.00  0.00    +0.000 N 
ATOM      5  C   UNL     1      -5.848  13.734  23.200  0.00  0.00    +0.000 C 
ATOM      6  C   UNL     1      -6.643  12.705  24.004  0.00  0.00    +0.000 C 
ATOM      7  C   UNL     1      -7.907  12.267  23.264  0.00  0.00    +0.000 C 
ATOM      8  C   UNL     1      -7.599  11.818  21.835  0.00  0.00    +0.000 C 
ATOM      9  C   UNL     1      -6.791  12.867  21.069  0.00  0.00    +0.000 C 
ATOM     10  N   UNL     1      -4.195  12.544  20.156  0.00  0.00    +0.000 NA
ATOM     11  C   UNL     1      -2.966  12.305  19.742  0.00  0.00    +0.000 A 
ATOM     12  N   UNL     1      -2.764  11.849  18.459  0.00  0.00    +0.000 N 
ATOM     13  C   UNL     1      -3.871  11.627  17.552  0.00  0.00    +0.000 C 
ATOM     14  C   UNL     1      -3.857  10.167  17.090  0.00  0.00    +0.000 C 
ATOM     15  C   UNL     1      -2.481   9.755  16.559  0.00  0.00    +0.000 C 
ATOM     16  C   UNL     1      -1.362  10.107  17.544  0.00  0.00    +0.000 C 
ATOM     17  C   UNL     1      -1.427  11.573  17.970  0.00  0.00    +0.000 C 
ATOM     18  N   UNL     1      -1.903  12.485  20.513  0.00  0.00    +0.000 NA
ENDROOT
BRANCH   1  19
ATOM     19  S   UNL     1      -0.719  13.414  22.683  0.00  0.00    +0.000 S 
BRANCH  19  23
ATOM     20  C   UNL     1       2.519  14.744  19.792  0.00  0.00    +0.000 A 
ATOM     21  C   UNL     1       1.431  15.588  19.968  0.00  0.00    +0.000 A 
ATOM     22  C   UNL     1       0.403  15.224  20.845  0.00  0.00    +0.000 A 
ATOM     23  C   UNL     1       0.484  14.008  21.517  0.00  0.00    +0.000 A 
ATOM     24  N   UNL     1       1.558  13.189  21.364  0.00  0.00    +0.000 NA
ATOM     25  C   UNL     1       2.537  13.565  20.513  0.00  0.00    +0.000 A 
ENDBRANCH  19  23
ENDBRANCH   1  19
TORSDOF 2
ENDMDL
MODEL 5
REMARK VINA RESULT:      -6.4      6.160     10.349
REMARK  Name = 
REMARK  2 active torsions:
REMARK  status: ('A' for Active; 'I' for Inactive)
REMARK    1  A    between atoms: C_4  and  S_5
REMARK    2  A    between atoms: S_5  and  C_6
REMARK                            x       y       z     vdW  Elec       q    Type
REMARK                         _______ _______ _______ _____ _____    ______ ____
ROOT
ATOM      1  C   UNL     1      -2.337  13.292  21.016  0.00  0.00    +0.000 A 
ATOM      2  N   UNL     1      -3.191  12.654  20.229  0.00  0.00    +0.000 NA
ATOM      3  C   UNL     1      -4.476  12.828  20.519  0.00  0.00    +0.000 A 
ATOM      4  N   UNL     1      -5.412  12.293  19.668  0.00  0.00    +0.000 N 
ATOM      5  C   UNL     1      -5.006  11.566  18.476  0.00  0.00    +0.000 C 
ATOM      6  C   UNL     1      -5.557  12.268  17.234  0.00  0.00    +0.000 C 
ATOM      7  C   UNL     1      -7.060  12.524  17.353  0.00  0.00    +0.000 C 
ATOM      8  C   UNL     1      -7.411  13.234  18.662  0.00  0.00    +0.000 C 
ATOM      9  C   UNL     1      -6.830  12.508  19.877  0.00  0.00    +0.000 C 
ATOM     10  N   UNL     1      -4.884  13.519  21.571  0.00  0.00    +0.000 NA
ATOM     11  C   UNL     1      -3.968  14.078  22.338  0.00  0.00    +0.000 A 
ATOM     12  N   UNL     1      -4.359  14.749  23.474  0.00  0.00    +0.000 N 
ATOM     13  C   UNL     1      -5.754  14.855  23.849  0.00  0.00    +0.000 C 
ATOM     14  C   UNL     1      -6.135  16.334  23.954  0.00  0.00    +0.000 C 
ATOM     15  C   UNL     1      -5.157  17.109  24.842  0.00  0.00    +0.000 C 
ATOM     16  C   UNL     1      -3.702  16.869  24.429  0.00  0.00    +0.000 C 
ATOM     17  C   UNL     1      -3.380  15.378  24.340  0.00  0.00    +0.000 C 
ATOM     18  N   UNL     1      -2.673  14.022  22.062  0.00  0.00    +0.000 NA
ENDROOT
BRANCH   1  19
ATOM     19  S   UNL     1      -0.606  13.067  20.726  0.00  0.00    +0.000 S 
BRANCH  19  23
ATOM     20  C   UNL     1       0.469   8.978  22.378  0.00  0.00    +0.000 A 
ATOM     21  C   UNL     1      -0.371   9.777  23.142  0.00  0.00    +0.000 A 
ATOM     22  C   UNL     1      -0.731  11.048  22.681  0.00  0.00    +0.000 A 
ATOM     23  C   UNL     1      -0.224  11.496  21.465  0.00  0.00    +0.000 A 
ATOM     24  N   UNL     1       0.580  10.707  20.704  0.00  0.00    +0.000 NA
ATOM     25  C   UNL     1       0.911   9.484  21.171  0.00  0.00    +0.000 A 
ENDBRANCH  19  23
ENDBRANCH   1  19
TORSDOF 2
ENDMDL
MODEL 6
REMARK VINA RESULT:      -6.3      7.113      9.238
REMARK  Name = 
REMARK  2 active torsions:
REMARK  status: ('A' for Active; 'I' for Inactive)
REMARK    1  A    between atoms: C_4  and  S_5
REMARK    2  A    between atoms: S_5  and  C_6
REMARK                            x       y       z     vdW  Elec       q    Type
REMARK                         _______ _______ _______ _____ _____    ______ ____
ROOT
ATOM      1  C   UNL     1      -0.125  11.436  20.073  0.00  0.00    +0.000 A 
ATOM      2  N   UNL     1      -0.838  11.559  21.183  0.00  0.00    +0.000 NA
ATOM      3  C   UNL     1      -0.581  12.641  21.912  0.00  0.00    +0.000 A 
ATOM      4  N   UNL     1      -1.370  12.888  23.008  0.00  0.00    +0.000 N 
ATOM      5  C   UNL     1      -2.464  11.995  23.355  0.00  0.00    +0.000 C 
ATOM      6  C   UNL     1      -3.784  12.766  23.322  0.00  0.00    +0.000 C 
ATOM      7  C   UNL     1      -3.709  14.047  24.155  0.00  0.00    +0.000 C 
ATOM      8  C   UNL     1      -2.495  14.898  23.774  0.00  0.00    +0.000 C 
ATOM      9  C   UNL     1      -1.199  14.087  23.805  0.00  0.00    +0.000 C 
ATOM     10  N   UNL     1       0.380  13.498  21.604  0.00  0.00    +0.000 NA
ATOM     11  C   UNL     1       1.082  13.274  20.511  0.00  0.00    +0.000 A 
ATOM     12  N   UNL     1       2.128  14.113  20.199  0.00  0.00    +0.000 N 
ATOM     13  C   UNL     1       2.476  15.236  21.045  0.00  0.00    +0.000 C 
ATOM     14  C   UNL     1       2.403  16.526  20.224  0.00  0.00    +0.000 C 
ATOM     15  C   UNL     1       3.201  16.413  18.921  0.00  0.00    +0.000 C 
ATOM     16  C   UNL     1       2.831  15.153  18.134  0.00  0.00    +0.000 C 
ATOM     17  C   UNL     1       2.921  13.900  19.004  0.00  0.00    +0.000 C 
ATOM     18  N   UNL     1       0.825  12.267  19.688  0.00  0.00    +0.000 NA
ENDROOT
BRANCH   1  19
ATOM     19  S   UNL     1      -0.372   9.994  19.077  0.00  0.00    +0.000 S 
BRANCH  19  23
ATOM     20  C   UNL     1      -3.980  11.149  16.576  0.00  0.00    +0.000 A 
ATOM     21  C   UNL     1      -3.043  10.304  15.996  0.00  0.00    +0.000 A 
ATOM     22  C   UNL     1      -1.910   9.921  16.722  0.00  0.00    +0.000 A 
ATOM     23  C   UNL     1      -1.736  10.407  18.015  0.00  0.00    +0.000 A 
ATOM     24  N   UNL     1      -2.663  11.216  18.593  0.00  0.00    +0.000 NA
ATOM     25  C   UNL     1      -3.748  11.570  17.871  0.00  0.00    +0.000 A 
ENDBRANCH  19  23
ENDBRANCH   1  19
TORSDOF 2
ENDMDL
MODEL 7
REMARK VINA RESULT:      -6.3      7.611     11.664
REMARK  Name = 
REMARK  2 active torsions:
REMARK  status: ('A' for Active; 'I' for Inactive)
REMARK    1  A    between atoms: C_4  and  S_5
REMARK    2  A    between atoms: S_5  and  C_6
REMARK                            x       y       z     vdW  Elec       q    Type
REMARK                         _______ _______ _______ _____ _____    ______ ____
ROOT
ATOM      1  C   UNL     1      -2.136  13.226  21.832  0.00  0.00    +0.000 A 
ATOM      2  N   UNL     1      -3.357  13.518  22.255  0.00  0.00    +0.000 NA
ATOM      3  C   UNL     1      -4.346  13.153  21.446  0.00  0.00    +0.000 A 
ATOM      4  N   UNL     1      -5.637  13.319  21.884  0.00  0.00    +0.000 N 
ATOM      5  C   UNL     1      -5.913  13.867  23.202  0.00  0.00    +0.000 C 
ATOM      6  C   UNL     1      -6.689  12.844  24.032  0.00  0.00    +0.000 C 
ATOM      7  C   UNL     1      -7.916  12.325  23.281  0.00  0.00    +0.000 C 
ATOM      8  C   UNL     1      -7.552  11.826  21.881  0.00  0.00    +0.000 C 
ATOM      9  C   UNL     1      -6.765  12.872  21.090  0.00  0.00    +0.000 C 
ATOM     10  N   UNL     1      -4.134  12.612  20.257  0.00  0.00    +0.000 NA
ATOM     11  C   UNL     1      -2.886  12.404  19.886  0.00  0.00    +0.000 A 
ATOM     12  N   UNL     1      -2.633  11.902  18.630  0.00  0.00    +0.000 N 
ATOM     13  C   UNL     1      -3.706  11.596  17.705  0.00  0.00    +0.000 C 
ATOM     14  C   UNL     1      -3.623  10.120  17.309  0.00  0.00    +0.000 C 
ATOM     15  C   UNL     1      -2.218   9.740  16.832  0.00  0.00    +0.000 C 
ATOM     16  C   UNL     1      -1.141  10.178  17.828  0.00  0.00    +0.000 C 
ATOM     17  C   UNL     1      -1.274  11.657  18.187  0.00  0.00    +0.000 C 
ATOM     18  N   UNL     1      -1.852  12.660  20.674  0.00  0.00    +0.000 NA
ENDROOT
BRANCH   1  19
ATOM     19  S   UNL     1      -0.763  13.728  22.829  0.00  0.00    +0.000 S 
BRANCH  19  23
ATOM     20  C   UNL     1      -2.185  17.507  24.903  0.00  0.00    +0.000 A 
ATOM     21  C   UNL     1      -2.086  16.354  25.671  0.00  0.00    +0.000 A 
ATOM     22  C   UNL     1      -1.656  15.160  25.079  0.00  0.00    +0.000 A 
ATOM     23  C   UNL     1      -1.349  15.149  23.722  0.00  0.00    +0.000 A 
ATOM     24  N   UNL     1      -1.423  16.281  22.973  0.00  0.00    +0.000 NA
ATOM     25  C   UNL     1      -1.839  17.420  23.569  0.00  0.00    +0.000 A 
ENDBRANCH  19  23
ENDBRANCH   1  19
TORSDOF 2
ENDMDL
MODEL 8
REMARK VINA RESULT:      -6.3      8.652      9.337
REMARK  Name = 
REMARK  2 active torsions:
REMARK  status: ('A' for Active; 'I' for Inactive)
REMARK    1  A    between atoms: C_4  and  S_5
REMARK    2  A    between atoms: S_5  and  C_6
REMARK                            x       y       z     vdW  Elec       q    Type
REMARK                         _______ _______ _______ _____ _____    ______ ____
ROOT
ATOM      1  C   UNL     1       7.841  15.135  19.419  0.00  0.00    +0.000 A 
ATOM      2  N   UNL     1       8.135  14.644  20.614  0.00  0.00    +0.000 NA
ATOM      3  C   UNL     1       7.108  14.518  21.449  0.00  0.00    +0.000 A 
ATOM      4  N   UNL     1       7.326  13.902  22.657  0.00  0.00    +0.000 N 
ATOM      5  C   UNL     1       8.642  13.392  23.008  0.00  0.00    +0.000 C 
ATOM      6  C   UNL     1       8.560  11.884  23.243  0.00  0.00    +0.000 C 
ATOM      7  C   UNL     1       7.447  11.528  24.230  0.00  0.00    +0.000 C 
ATOM      8  C   UNL     1       6.112  12.155  23.826  0.00  0.00    +0.000 C 
ATOM      9  C   UNL     1       6.239  13.660  23.586  0.00  0.00    +0.000 C 
ATOM     10  N   UNL     1       5.888  14.933  21.149  0.00  0.00    +0.000 NA
ATOM     11  C   UNL     1       5.690  15.462  19.957  0.00  0.00    +0.000 A 
ATOM     12  N   UNL     1       4.446  15.959  19.640  0.00  0.00    +0.000 N 
ATOM     13  C   UNL     1       3.349  15.915  20.585  0.00  0.00    +0.000 C 
ATOM     14  C   UNL     1       2.183  15.140  19.966  0.00  0.00    +0.000 C 
ATOM     15  C   UNL     1       1.828  15.668  18.573  0.00  0.00    +0.000 C 
ATOM     16  C   UNL     1       3.061  15.764  17.670  0.00  0.00    +0.000 C 
ATOM     17  C   UNL     1       4.190  16.546  18.339  0.00  0.00    +0.000 C 
ATOM     18  N   UNL     1       6.643  15.539  19.040  0.00  0.00    +0.000 NA
ENDROOT
BRANCH   1  19
ATOM     19  S   UNL     1       9.164  15.383  18.270  0.00  0.00    +0.000 S 
BRANCH  19  23
ATOM     20  C   UNL     1      11.796  11.696  18.564  0.00  0.00    +0.000 A 
ATOM     21  C   UNL     1      10.625  11.590  17.825  0.00  0.00    +0.000 A 
ATOM     22  C   UNL     1       9.776  12.696  17.706  0.00  0.00    +0.000 A 
ATOM     23  C   UNL     1      10.116  13.884  18.346  0.00  0.00    +0.000 A 
ATOM     24  N   UNL     1      11.272  13.998  19.052  0.00  0.00    +0.000 NA
ATOM     25  C   UNL     1      12.075  12.916  19.150  0.00  0.00    +0.000 A 
ENDBRANCH  19  23
ENDBRANCH   1  19
TORSDOF 2
ENDMDL
MODEL 9
REMARK VINA RESULT:      -6.3      1.202      6.402
REMARK  Name = 
REMARK  2 active torsions:
REMARK  status: ('A' for Active; 'I' for Inactive)
REMARK    1  A    between atoms: C_4  and  S_5
REMARK    2  A    between atoms: S_5  and  C_6
REMARK                            x       y       z     vdW  Elec       q    Type
REMARK                         _______ _______ _______ _____ _____    ______ ____
ROOT
ATOM      1  C   UNL     1       3.001   7.288  17.980  0.00  0.00    +0.000 A 
ATOM      2  N   UNL     1       4.039   7.064  17.188  0.00  0.00    +0.000 NA
ATOM      3  C   UNL     1       4.661   5.904  17.375  0.00  0.00    +0.000 A 
ATOM      4  N   UNL     1       5.668   5.560  16.506  0.00  0.00    +0.000 N 
ATOM      5  C   UNL     1       6.035   6.437  15.406  0.00  0.00    +0.000 C 
ATOM      6  C   UNL     1       5.828   5.707  14.078  0.00  0.00    +0.000 C 
ATOM      7  C   UNL     1       6.518   4.342  14.073  0.00  0.00    +0.000 C 
ATOM      8  C   UNL     1       6.130   3.508  15.295  0.00  0.00    +0.000 C 
ATOM      9  C   UNL     1       6.338   4.278  16.600  0.00  0.00    +0.000 C 
ATOM     10  N   UNL     1       4.328   5.062  18.340  0.00  0.00    +0.000 NA
ATOM     11  C   UNL     1       3.316   5.385  19.121  0.00  0.00    +0.000 A 
ATOM     12  N   UNL     1       2.986   4.559  20.172  0.00  0.00    +0.000 N 
ATOM     13  C   UNL     1       3.726   3.343  20.440  0.00  0.00    +0.000 C 
ATOM     14  C   UNL     1       2.766   2.151  20.402  0.00  0.00    +0.000 C 
ATOM     15  C   UNL     1       1.541   2.383  21.292  0.00  0.00    +0.000 C 
ATOM     16  C   UNL     1       0.873   3.730  21.000  0.00  0.00    +0.000 C 
ATOM     17  C   UNL     1       1.878   4.880  21.051  0.00  0.00    +0.000 C 
ATOM     18  N   UNL     1       2.593   6.480  18.940  0.00  0.00    +0.000 NA
ENDROOT
BRANCH   1  19
ATOM     19  S   UNL     1       2.154   8.835  17.828  0.00  0.00    +0.000 S 
BRANCH  19  23
ATOM     20  C   UNL     1      -0.164   9.549  21.665  0.00  0.00    +0.000 A 
ATOM     21  C   UNL     1       0.926   8.692  21.726  0.00  0.00    +0.000 A 
ATOM     22  C   UNL     1       1.673   8.434  20.571  0.00  0.00    +0.000 A 
ATOM     23  C   UNL     1       1.297   9.034  19.373  0.00  0.00    +0.000 A 
ATOM     24  N   UNL     1       0.244   9.892  19.314  0.00  0.00    +0.000 NA
ATOM     25  C   UNL     1      -0.459  10.124  20.444  0.00  0.00    +0.000 A 
ENDBRANCH  19  23
ENDBRANCH   1  19
TORSDOF 2
ENDMDL
