MODEL 1
REMARK VINA RESULT:      -7.1      0.000      0.000
REMARK  Name = 
REMARK  8 active torsions:
REMARK  status: ('A' for Active; 'I' for Inactive)
REMARK    1  A    between atoms: C_1  and  C_2
REMARK    2  A    between atoms: N_4  and  C_5
REMARK    3  A    between atoms: C_8  and  C_9
REMARK    4  A    between atoms: C_9  and  C_11
REMARK    5  A    between atoms: C_11  and  O_12
REMARK    6  A    between atoms: O_12  and  C_13
REMARK    7  A    between atoms: C_13  and  C_15
REMARK    8  A    between atoms: C_15  and  C_16
REMARK                            x       y       z     vdW  Elec       q    Type
REMARK                         _______ _______ _______ _____ _____    ______ ____
ROOT
ATOM      1  C   UNL     1       5.710   4.537  14.572  0.00  0.00    +0.000 A 
ATOM      2  C   UNL     1       6.894   4.035  15.110  0.00  0.00    +0.000 A 
ATOM      3  C   UNL     1       7.516   4.658  16.193  0.00  0.00    +0.000 A 
ATOM      4  C   UNL     1       6.949   5.792  16.776  0.00  0.00    +0.000 A 
ATOM      5  C   UNL     1       5.795   6.333  16.200  0.00  0.00    +0.000 A 
ATOM      6  F   UNL     1       5.210   7.424  16.712  0.00  0.00    +0.000 F 
ATOM      7  C   UNL     1       5.186   5.724  15.094  0.00  0.00    +0.000 A 
ENDROOT
BRANCH   1  11
ATOM      8  C   UNL     1       4.606   2.898  11.359  0.00  0.00    +0.000 C 
ATOM      9  C   UNL     1       5.589   3.543  12.295  0.00  0.00    +0.000 C 
ATOM     10  O   UNL     1       6.757   3.701  11.958  0.00  0.00    +0.000 OA
ATOM     11  N   UNL     1       5.028   3.893  13.517  0.00  0.00    +0.000 N 
ATOM     12  H   UNL     1       4.096   3.549  13.713  0.00  0.00    +0.000 HD
ENDBRANCH   1  11
BRANCH   4  13
ATOM     13  C   UNL     1       7.566   6.409  17.980  0.00  0.00    +0.000 C 
ATOM     14  O   UNL     1       7.882   7.597  17.970  0.00  0.00    +0.000 OA
BRANCH  13  15
ATOM     15  C   UNL     1       7.745   5.540  19.231  0.00  0.00    +0.000 C 
BRANCH  15  16
ATOM     16  O   UNL     1       6.568   5.479  20.035  0.00  0.00    +0.000 OA
BRANCH  16  17
ATOM     17  C   UNL     1       5.556   4.753  19.479  0.00  0.00    +0.000 C 
ATOM     18  O   UNL     1       5.664   3.589  19.102  0.00  0.00    +0.000 OA
BRANCH  17  19
ATOM     19  C   UNL     1       4.296   5.577  19.380  0.00  0.00    +0.000 C 
BRANCH  19  20
ATOM     20  C   UNL     1       3.075   4.719  19.258  0.00  0.00    +0.000 A 
ATOM     21  C   UNL     1       2.421   4.404  18.020  0.00  0.00    +0.000 A 
ATOM     22  C   UNL     1       1.301   3.623  18.195  0.00  0.00    +0.000 A 
ATOM     23  S   UNL     1       1.046   3.227  19.836  0.00  0.00    +0.000 S 
ATOM     24  C   UNL     1       2.423   4.118  20.320  0.00  0.00    +0.000 A 
ENDBRANCH  19  20
ENDBRANCH  17  19
ENDBRANCH  16  17
ENDBRANCH  15  16
ENDBRANCH  13  15
ENDBRANCH   4  13
TORSDOF 7
ENDMDL
MODEL 2
REMARK VINA RESULT:      -7.0      4.875      7.438
REMARK  Name = 
REMARK  8 active torsions:
REMARK  status: ('A' for Active; 'I' for Inactive)
REMARK    1  A    between atoms: C_1  and  C_2
REMARK    2  A    between atoms: N_4  and  C_5
REMARK    3  A    between atoms: C_8  and  C_9
REMARK    4  A    between atoms: C_9  and  C_11
REMARK    5  A    between atoms: C_11  and  O_12
REMARK    6  A    between atoms: O_12  and  C_13
REMARK    7  A    between atoms: C_13  and  C_15
REMARK    8  A    between atoms: C_15  and  C_16
REMARK                            x       y       z     vdW  Elec       q    Type
REMARK                         _______ _______ _______ _____ _____    ______ ____
ROOT
ATOM      1  C   UNL     1       3.732   5.115  18.661  0.00  0.00    +0.000 A 
ATOM      2  C   UNL     1       3.634   6.030  17.615  0.00  0.00    +0.000 A 
ATOM      3  C   UNL     1       4.758   6.706  17.138  0.00  0.00    +0.000 A 
ATOM      4  C   UNL     1       6.016   6.460  17.691  0.00  0.00    +0.000 A 
ATOM      5  C   UNL     1       6.108   5.589  18.780  0.00  0.00    +0.000 A 
ATOM      6  F   UNL     1       7.287   5.319  19.355  0.00  0.00    +0.000 F 
ATOM      7  C   UNL     1       4.975   4.931  19.277  0.00  0.00    +0.000 A 
ENDROOT
BRANCH   1  11
ATOM      8  C   UNL     1       0.972   2.618  19.279  0.00  0.00    +0.000 C 
ATOM      9  C   UNL     1       2.206   3.152  18.605  0.00  0.00    +0.000 C 
ATOM     10  O   UNL     1       2.747   2.517  17.707  0.00  0.00    +0.000 OA
ATOM     11  N   UNL     1       2.623   4.372  19.121  0.00  0.00    +0.000 N 
ATOM     12  H   UNL     1       2.175   4.693  19.971  0.00  0.00    +0.000 HD
ENDBRANCH   1  11
BRANCH   4  13
ATOM     13  C   UNL     1       7.226   7.118  17.131  0.00  0.00    +0.000 C 
ATOM     14  O   UNL     1       7.904   6.542  16.283  0.00  0.00    +0.000 OA
BRANCH  13  15
ATOM     15  C   UNL     1       7.565   8.538  17.601  0.00  0.00    +0.000 C 
BRANCH  15  16
ATOM     16  O   UNL     1       8.555   8.560  18.628  0.00  0.00    +0.000 OA
BRANCH  16  17
ATOM     17  C   UNL     1       8.949   9.815  18.988  0.00  0.00    +0.000 C 
ATOM     18  O   UNL     1       9.388  10.113  20.096  0.00  0.00    +0.000 OA
BRANCH  17  19
ATOM     19  C   UNL     1       8.761  10.784  17.847  0.00  0.00    +0.000 C 
BRANCH  19  20
ATOM     20  C   UNL     1       9.725  11.928  17.920  0.00  0.00    +0.000 A 
ATOM     21  C   UNL     1      11.144  11.811  17.742  0.00  0.00    +0.000 A 
ATOM     22  C   UNL     1      11.799  13.013  17.892  0.00  0.00    +0.000 A 
ATOM     23  S   UNL     1      10.718  14.296  18.208  0.00  0.00    +0.000 S 
ATOM     24  C   UNL     1       9.372  13.243  18.164  0.00  0.00    +0.000 A 
ENDBRANCH  19  20
ENDBRANCH  17  19
ENDBRANCH  16  17
ENDBRANCH  15  16
ENDBRANCH  13  15
ENDBRANCH   4  13
TORSDOF 7
ENDMDL
MODEL 3
REMARK VINA RESULT:      -6.9      4.113      7.277
REMARK  Name = 
REMARK  8 active torsions:
REMARK  status: ('A' for Active; 'I' for Inactive)
REMARK    1  A    between atoms: C_1  and  C_2
REMARK    2  A    between atoms: N_4  and  C_5
REMARK    3  A    between atoms: C_8  and  C_9
REMARK    4  A    between atoms: C_9  and  C_11
REMARK    5  A    between atoms: C_11  and  O_12
REMARK    6  A    between atoms: O_12  and  C_13
REMARK    7  A    between atoms: C_13  and  C_15
REMARK    8  A    between atoms: C_15  and  C_16
REMARK                            x       y       z     vdW  Elec       q    Type
REMARK                         _______ _______ _______ _____ _____    ______ ____
ROOT
ATOM      1  C   UNL     1       1.822   6.637  20.231  0.00  0.00    +0.000 A 
ATOM      2  C   UNL     1       2.038   6.464  18.865  0.00  0.00    +0.000 A 
ATOM      3  C   UNL     1       1.926   5.206  18.270  0.00  0.00    +0.000 A 
ATOM      4  C   UNL     1       1.571   4.094  19.033  0.00  0.00    +0.000 A 
ATOM      5  C   UNL     1       1.413   4.253  20.413  0.00  0.00    +0.000 A 
ATOM      6  F   UNL     1       1.078   3.219  21.197  0.00  0.00    +0.000 F 
ATOM      7  C   UNL     1       1.554   5.510  21.016  0.00  0.00    +0.000 A 
ENDROOT
BRANCH   1  11
ATOM      8  C   UNL     1       1.130   9.930  21.936  0.00  0.00    +0.000 C 
ATOM      9  C   UNL     1       0.774   8.583  21.371  0.00  0.00    +0.000 C 
ATOM     10  O   UNL     1      -0.382   8.177  21.414  0.00  0.00    +0.000 OA
ATOM     11  N   UNL     1       1.868   7.906  20.848  0.00  0.00    +0.000 N 
ATOM     12  H   UNL     1       2.785   8.294  21.034  0.00  0.00    +0.000 HD
ENDBRANCH   1  11
BRANCH   4  13
ATOM     13  C   UNL     1       1.372   2.769  18.386  0.00  0.00    +0.000 C 
ATOM     14  O   UNL     1       0.286   2.200  18.470  0.00  0.00    +0.000 OA
BRANCH  13  15
ATOM     15  C   UNL     1       2.532   2.171  17.581  0.00  0.00    +0.000 C 
BRANCH  15  16
ATOM     16  O   UNL     1       3.663   1.855  18.391  0.00  0.00    +0.000 OA
BRANCH  16  17
ATOM     17  C   UNL     1       4.554   2.879  18.519  0.00  0.00    +0.000 C 
ATOM     18  O   UNL     1       5.032   3.253  19.587  0.00  0.00    +0.000 OA
BRANCH  17  19
ATOM     19  C   UNL     1       4.861   3.494  17.176  0.00  0.00    +0.000 C 
BRANCH  19  20
ATOM     20  C   UNL     1       5.632   4.771  17.309  0.00  0.00    +0.000 A 
ATOM     21  C   UNL     1       5.143   6.063  16.918  0.00  0.00    +0.000 A 
ATOM     22  C   UNL     1       6.068   7.063  17.118  0.00  0.00    +0.000 A 
ATOM     23  S   UNL     1       7.512   6.472  17.811  0.00  0.00    +0.000 S 
ATOM     24  C   UNL     1       6.911   4.871  17.827  0.00  0.00    +0.000 A 
ENDBRANCH  19  20
ENDBRANCH  17  19
ENDBRANCH  16  17
ENDBRANCH  15  16
ENDBRANCH  13  15
ENDBRANCH   4  13
TORSDOF 7
ENDMDL
MODEL 4
REMARK VINA RESULT:      -6.8      4.992      7.824
REMARK  Name = 
REMARK  8 active torsions:
REMARK  status: ('A' for Active; 'I' for Inactive)
REMARK    1  A    between atoms: C_1  and  C_2
REMARK    2  A    between atoms: N_4  and  C_5
REMARK    3  A    between atoms: C_8  and  C_9
REMARK    4  A    between atoms: C_9  and  C_11
REMARK    5  A    between atoms: C_11  and  O_12
REMARK    6  A    between atoms: O_12  and  C_13
REMARK    7  A    between atoms: C_13  and  C_15
REMARK    8  A    between atoms: C_15  and  C_16
REMARK                            x       y       z     vdW  Elec       q    Type
REMARK                         _______ _______ _______ _____ _____    ______ ____
ROOT
ATOM      1  C   UNL     1       3.789   4.954  18.656  0.00  0.00    +0.000 A 
ATOM      2  C   UNL     1       3.654   5.860  17.606  0.00  0.00    +0.000 A 
ATOM      3  C   UNL     1       4.744   6.600  17.146  0.00  0.00    +0.000 A 
ATOM      4  C   UNL     1       6.005   6.429  17.718  0.00  0.00    +0.000 A 
ATOM      5  C   UNL     1       6.131   5.567  18.812  0.00  0.00    +0.000 A 
ATOM      6  F   UNL     1       7.314   5.368  19.406  0.00  0.00    +0.000 F 
ATOM      7  C   UNL     1       5.030   4.845  19.293  0.00  0.00    +0.000 A 
ENDROOT
BRANCH   1  11
ATOM      8  C   UNL     1       0.939   3.306  20.499  0.00  0.00    +0.000 C 
ATOM      9  C   UNL     1       2.003   4.345  20.276  0.00  0.00    +0.000 C 
ATOM     10  O   UNL     1       2.160   5.255  21.082  0.00  0.00    +0.000 OA
ATOM     11  N   UNL     1       2.718   4.149  19.101  0.00  0.00    +0.000 N 
ATOM     12  H   UNL     1       2.365   3.453  18.455  0.00  0.00    +0.000 HD
ENDBRANCH   1  11
BRANCH   4  13
ATOM     13  C   UNL     1       7.183   7.156  17.176  0.00  0.00    +0.000 C 
ATOM     14  O   UNL     1       7.954   6.591  16.403  0.00  0.00    +0.000 OA
BRANCH  13  15
ATOM     15  C   UNL     1       7.373   8.628  17.566  0.00  0.00    +0.000 C 
BRANCH  15  16
ATOM     16  O   UNL     1       8.457   8.825  18.471  0.00  0.00    +0.000 OA
BRANCH  16  17
ATOM     17  C   UNL     1       8.854  10.126  18.582  0.00  0.00    +0.000 C 
ATOM     18  O   UNL     1       8.679  10.980  17.717  0.00  0.00    +0.000 OA
BRANCH  17  19
ATOM     19  C   UNL     1       9.541  10.365  19.903  0.00  0.00    +0.000 C 
BRANCH  19  20
ATOM     20  C   UNL     1      10.333  11.637  19.899  0.00  0.00    +0.000 A 
ATOM     21  C   UNL     1      11.693  11.749  19.456  0.00  0.00    +0.000 A 
ATOM     22  C   UNL     1      12.192  13.026  19.589  0.00  0.00    +0.000 A 
ATOM     23  S   UNL     1      11.025  14.108  20.208  0.00  0.00    +0.000 S 
ATOM     24  C   UNL     1       9.854  12.866  20.318  0.00  0.00    +0.000 A 
ENDBRANCH  19  20
ENDBRANCH  17  19
ENDBRANCH  16  17
ENDBRANCH  15  16
ENDBRANCH  13  15
ENDBRANCH   4  13
TORSDOF 7
ENDMDL
MODEL 5
REMARK VINA RESULT:      -6.8      2.238      3.112
REMARK  Name = 
REMARK  8 active torsions:
REMARK  status: ('A' for Active; 'I' for Inactive)
REMARK    1  A    between atoms: C_1  and  C_2
REMARK    2  A    between atoms: N_4  and  C_5
REMARK    3  A    between atoms: C_8  and  C_9
REMARK    4  A    between atoms: C_9  and  C_11
REMARK    5  A    between atoms: C_11  and  O_12
REMARK    6  A    between atoms: O_12  and  C_13
REMARK    7  A    between atoms: C_13  and  C_15
REMARK    8  A    between atoms: C_15  and  C_16
REMARK                            x       y       z     vdW  Elec       q    Type
REMARK                         _______ _______ _______ _____ _____    ______ ____
ROOT
ATOM      1  C   UNL     1       6.569   4.766  15.201  0.00  0.00    +0.000 A 
ATOM      2  C   UNL     1       5.240   4.409  15.422  0.00  0.00    +0.000 A 
ATOM      3  C   UNL     1       4.763   4.167  16.711  0.00  0.00    +0.000 A 
ATOM      4  C   UNL     1       5.609   4.300  17.813  0.00  0.00    +0.000 A 
ATOM      5  C   UNL     1       6.956   4.598  17.589  0.00  0.00    +0.000 A 
ATOM      6  F   UNL     1       7.816   4.732  18.608  0.00  0.00    +0.000 F 
ATOM      7  C   UNL     1       7.442   4.813  16.293  0.00  0.00    +0.000 A 
ENDROOT
BRANCH   1  11
ATOM      8  C   UNL     1       7.572   4.860  11.565  0.00  0.00    +0.000 C 
ATOM      9  C   UNL     1       6.908   4.283  12.784  0.00  0.00    +0.000 C 
ATOM     10  O   UNL     1       6.296   3.224  12.716  0.00  0.00    +0.000 OA
ATOM     11  N   UNL     1       7.063   5.076  13.915  0.00  0.00    +0.000 N 
ATOM     12  H   UNL     1       7.450   6.002  13.781  0.00  0.00    +0.000 HD
ENDBRANCH   1  11
BRANCH   4  13
ATOM     13  C   UNL     1       5.082   4.122  19.193  0.00  0.00    +0.000 C 
ATOM     14  O   UNL     1       5.053   5.074  19.969  0.00  0.00    +0.000 OA
BRANCH  13  15
ATOM     15  C   UNL     1       4.537   2.744  19.591  0.00  0.00    +0.000 C 
BRANCH  15  16
ATOM     16  O   UNL     1       3.438   2.824  20.496  0.00  0.00    +0.000 OA
BRANCH  16  17
ATOM     17  C   UNL     1       2.222   2.638  19.906  0.00  0.00    +0.000 C 
ATOM     18  O   UNL     1       1.964   1.729  19.122  0.00  0.00    +0.000 OA
BRANCH  17  19
ATOM     19  C   UNL     1       1.247   3.704  20.341  0.00  0.00    +0.000 C 
BRANCH  19  20
ATOM     20  C   UNL     1       1.622   5.054  19.813  0.00  0.00    +0.000 A 
ATOM     21  C   UNL     1       1.930   5.336  18.439  0.00  0.00    +0.000 A 
ATOM     22  C   UNL     1       2.274   6.652  18.232  0.00  0.00    +0.000 A 
ATOM     23  S   UNL     1       2.193   7.570  19.669  0.00  0.00    +0.000 S 
ATOM     24  C   UNL     1       1.716   6.203  20.578  0.00  0.00    +0.000 A 
ENDBRANCH  19  20
ENDBRANCH  17  19
ENDBRANCH  16  17
ENDBRANCH  15  16
ENDBRANCH  13  15
ENDBRANCH   4  13
TORSDOF 7
ENDMDL
MODEL 6
REMARK VINA RESULT:      -6.7      4.917      7.595
REMARK  Name = 
REMARK  8 active torsions:
REMARK  status: ('A' for Active; 'I' for Inactive)
REMARK    1  A    between atoms: C_1  and  C_2
REMARK    2  A    between atoms: N_4  and  C_5
REMARK    3  A    between atoms: C_8  and  C_9
REMARK    4  A    between atoms: C_9  and  C_11
REMARK    5  A    between atoms: C_11  and  O_12
REMARK    6  A    between atoms: O_12  and  C_13
REMARK    7  A    between atoms: C_13  and  C_15
REMARK    8  A    between atoms: C_15  and  C_16
REMARK                            x       y       z     vdW  Elec       q    Type
REMARK                         _______ _______ _______ _____ _____    ______ ____
ROOT
ATOM      1  C   UNL     1       3.746   5.058  18.946  0.00  0.00    +0.000 A 
ATOM      2  C   UNL     1       4.988   4.828  19.537  0.00  0.00    +0.000 A 
ATOM      3  C   UNL     1       6.159   5.345  18.980  0.00  0.00    +0.000 A 
ATOM      4  C   UNL     1       6.107   6.125  17.825  0.00  0.00    +0.000 A 
ATOM      5  C   UNL     1       4.871   6.306  17.197  0.00  0.00    +0.000 A 
ATOM      6  F   UNL     1       4.760   7.040  16.081  0.00  0.00    +0.000 F 
ATOM      7  C   UNL     1       3.698   5.764  17.739  0.00  0.00    +0.000 A 
ENDROOT
BRANCH   1  11
ATOM      8  C   UNL     1       0.808   3.092  20.261  0.00  0.00    +0.000 C 
ATOM      9  C   UNL     1       2.163   3.268  19.635  0.00  0.00    +0.000 C 
ATOM     10  O   UNL     1       2.822   2.292  19.295  0.00  0.00    +0.000 OA
ATOM     11  N   UNL     1       2.541   4.600  19.521  0.00  0.00    +0.000 N 
ATOM     12  H   UNL     1       1.967   5.286  19.996  0.00  0.00    +0.000 HD
ENDBRANCH   1  11
BRANCH   4  13
ATOM     13  C   UNL     1       7.343   6.743  17.277  0.00  0.00    +0.000 C 
ATOM     14  O   UNL     1       7.704   6.487  16.130  0.00  0.00    +0.000 OA
BRANCH  13  15
ATOM     15  C   UNL     1       8.113   7.735  18.158  0.00  0.00    +0.000 C 
BRANCH  15  16
ATOM     16  O   UNL     1       7.846   9.096  17.823  0.00  0.00    +0.000 OA
BRANCH  16  17
ATOM     17  C   UNL     1       8.677   9.988  18.434  0.00  0.00    +0.000 C 
ATOM     18  O   UNL     1       9.283   9.768  19.479  0.00  0.00    +0.000 OA
BRANCH  17  19
ATOM     19  C   UNL     1       8.742  11.279  17.656  0.00  0.00    +0.000 C 
BRANCH  19  20
ATOM     20  C   UNL     1       9.857  12.161  18.128  0.00  0.00    +0.000 A 
ATOM     21  C   UNL     1       9.714  13.203  19.104  0.00  0.00    +0.000 A 
ATOM     22  C   UNL     1      10.890  13.883  19.331  0.00  0.00    +0.000 A 
ATOM     23  S   UNL     1      12.182  13.254  18.409  0.00  0.00    +0.000 S 
ATOM     24  C   UNL     1      11.166  12.082  17.687  0.00  0.00    +0.000 A 
ENDBRANCH  19  20
ENDBRANCH  17  19
ENDBRANCH  16  17
ENDBRANCH  15  16
ENDBRANCH  13  15
ENDBRANCH   4  13
TORSDOF 7
ENDMDL
MODEL 7
REMARK VINA RESULT:      -6.7      2.764      4.019
REMARK  Name = 
REMARK  8 active torsions:
REMARK  status: ('A' for Active; 'I' for Inactive)
REMARK    1  A    between atoms: C_1  and  C_2
REMARK    2  A    between atoms: N_4  and  C_5
REMARK    3  A    between atoms: C_8  and  C_9
REMARK    4  A    between atoms: C_9  and  C_11
REMARK    5  A    between atoms: C_11  and  O_12
REMARK    6  A    between atoms: O_12  and  C_13
REMARK    7  A    between atoms: C_13  and  C_15
REMARK    8  A    between atoms: C_15  and  C_16
REMARK                            x       y       z     vdW  Elec       q    Type
REMARK                         _______ _______ _______ _____ _____    ______ ____
ROOT
ATOM      1  C   UNL     1       5.569   6.011  17.003  0.00  0.00    +0.000 A 
ATOM      2  C   UNL     1       5.725   5.360  18.225  0.00  0.00    +0.000 A 
ATOM      3  C   UNL     1       4.778   5.494  19.241  0.00  0.00    +0.000 A 
ATOM      4  C   UNL     1       3.636   6.272  19.043  0.00  0.00    +0.000 A 
ATOM      5  C   UNL     1       3.507   6.975  17.841  0.00  0.00    +0.000 A 
ATOM      6  F   UNL     1       2.436   7.742  17.597  0.00  0.00    +0.000 F 
ATOM      7  C   UNL     1       4.472   6.863  16.832  0.00  0.00    +0.000 A 
ENDROOT
BRANCH   1  11
ATOM      8  C   UNL     1       7.450   5.014  13.888  0.00  0.00    +0.000 C 
ATOM      9  C   UNL     1       6.291   5.005  14.845  0.00  0.00    +0.000 C 
ATOM     10  O   UNL     1       5.303   4.316  14.618  0.00  0.00    +0.000 OA
ATOM     11  N   UNL     1       6.480   5.844  15.937  0.00  0.00    +0.000 N 
ATOM     12  H   UNL     1       7.270   6.476  15.904  0.00  0.00    +0.000 HD
ENDBRANCH   1  11
BRANCH   4  13
ATOM     13  C   UNL     1       2.587   6.351  20.094  0.00  0.00    +0.000 C 
ATOM     14  O   UNL     1       1.888   7.356  20.192  0.00  0.00    +0.000 OA
BRANCH  13  15
ATOM     15  C   UNL     1       2.375   5.133  21.002  0.00  0.00    +0.000 C 
BRANCH  15  16
ATOM     16  O   UNL     1       1.123   4.486  20.778  0.00  0.00    +0.000 OA
BRANCH  16  17
ATOM     17  C   UNL     1       1.149   3.141  21.002  0.00  0.00    +0.000 C 
ATOM     18  O   UNL     1       1.418   2.623  22.082  0.00  0.00    +0.000 OA
BRANCH  17  19
ATOM     19  C   UNL     1       0.814   2.381  19.743  0.00  0.00    +0.000 C 
BRANCH  19  20
ATOM     20  C   UNL     1       1.870   2.544  18.693  0.00  0.00    +0.000 A 
ATOM     21  C   UNL     1       1.803   3.483  17.608  0.00  0.00    +0.000 A 
ATOM     22  C   UNL     1       2.892   3.402  16.769  0.00  0.00    +0.000 A 
ATOM     23  S   UNL     1       4.020   2.233  17.294  0.00  0.00    +0.000 S 
ATOM     24  C   UNL     1       3.045   1.817  18.635  0.00  0.00    +0.000 A 
ENDBRANCH  19  20
ENDBRANCH  17  19
ENDBRANCH  16  17
ENDBRANCH  15  16
ENDBRANCH  13  15
ENDBRANCH   4  13
TORSDOF 7
ENDMDL
MODEL 8
REMARK VINA RESULT:      -6.7      3.068      5.133
REMARK  Name = 
REMARK  8 active torsions:
REMARK  status: ('A' for Active; 'I' for Inactive)
REMARK    1  A    between atoms: C_1  and  C_2
REMARK    2  A    between atoms: N_4  and  C_5
REMARK    3  A    between atoms: C_8  and  C_9
REMARK    4  A    between atoms: C_9  and  C_11
REMARK    5  A    between atoms: C_11  and  O_12
REMARK    6  A    between atoms: O_12  and  C_13
REMARK    7  A    between atoms: C_13  and  C_15
REMARK    8  A    between atoms: C_15  and  C_16
REMARK                            x       y       z     vdW  Elec       q    Type
REMARK                         _______ _______ _______ _____ _____    ______ ____
ROOT
ATOM      1  C   UNL     1       7.839   7.178  18.310  0.00  0.00    +0.000 A 
ATOM      2  C   UNL     1       7.890   5.867  18.781  0.00  0.00    +0.000 A 
ATOM      3  C   UNL     1       7.094   4.866  18.219  0.00  0.00    +0.000 A 
ATOM      4  C   UNL     1       6.242   5.158  17.153  0.00  0.00    +0.000 A 
ATOM      5  C   UNL     1       6.144   6.483  16.720  0.00  0.00    +0.000 A 
ATOM      6  F   UNL     1       5.338   6.824  15.705  0.00  0.00    +0.000 F 
ATOM      7  C   UNL     1       6.921   7.494  17.302  0.00  0.00    +0.000 A 
ENDROOT
BRANCH   1  11
ATOM      8  C   UNL     1       9.651  10.378  19.149  0.00  0.00    +0.000 C 
ATOM      9  C   UNL     1       8.607   9.538  18.467  0.00  0.00    +0.000 C 
ATOM     10  O   UNL     1       7.799  10.051  17.702  0.00  0.00    +0.000 OA
ATOM     11  N   UNL     1       8.675   8.195  18.818  0.00  0.00    +0.000 N 
ATOM     12  H   UNL     1       9.286   7.948  19.587  0.00  0.00    +0.000 HD
ENDBRANCH   1  11
BRANCH   4  13
ATOM     13  C   UNL     1       5.455   4.078  16.501  0.00  0.00    +0.000 C 
ATOM     14  O   UNL     1       5.675   3.776  15.330  0.00  0.00    +0.000 OA
BRANCH  13  15
ATOM     15  C   UNL     1       4.413   3.329  17.341  0.00  0.00    +0.000 C 
BRANCH  15  16
ATOM     16  O   UNL     1       3.084   3.496  16.851  0.00  0.00    +0.000 OA
BRANCH  16  17
ATOM     17  C   UNL     1       2.164   3.750  17.825  0.00  0.00    +0.000 C 
ATOM     18  O   UNL     1       0.962   3.522  17.721  0.00  0.00    +0.000 OA
BRANCH  17  19
ATOM     19  C   UNL     1       2.823   4.359  19.038  0.00  0.00    +0.000 C 
BRANCH  19  20
ATOM     20  C   UNL     1       2.490   5.811  19.187  0.00  0.00    +0.000 A 
ATOM     21  C   UNL     1       2.681   6.800  18.164  0.00  0.00    +0.000 A 
ATOM     22  C   UNL     1       2.322   8.065  18.575  0.00  0.00    +0.000 A 
ATOM     23  S   UNL     1       1.717   8.072  20.171  0.00  0.00    +0.000 S 
ATOM     24  C   UNL     1       1.952   6.385  20.325  0.00  0.00    +0.000 A 
ENDBRANCH  19  20
ENDBRANCH  17  19
ENDBRANCH  16  17
ENDBRANCH  15  16
ENDBRANCH  13  15
ENDBRANCH   4  13
TORSDOF 7
ENDMDL
MODEL 9
REMARK VINA RESULT:      -6.7      4.448      7.267
REMARK  Name = 
REMARK  8 active torsions:
REMARK  status: ('A' for Active; 'I' for Inactive)
REMARK    1  A    between atoms: C_1  and  C_2
REMARK    2  A    between atoms: N_4  and  C_5
REMARK    3  A    between atoms: C_8  and  C_9
REMARK    4  A    between atoms: C_9  and  C_11
REMARK    5  A    between atoms: C_11  and  O_12
REMARK    6  A    between atoms: O_12  and  C_13
REMARK    7  A    between atoms: C_13  and  C_15
REMARK    8  A    between atoms: C_15  and  C_16
REMARK                            x       y       z     vdW  Elec       q    Type
REMARK                         _______ _______ _______ _____ _____    ______ ____
ROOT
ATOM      1  C   UNL     1       3.793   4.980  19.154  0.00  0.00    +0.000 A 
ATOM      2  C   UNL     1       5.088   4.654  19.552  0.00  0.00    +0.000 A 
ATOM      3  C   UNL     1       6.200   5.145  18.866  0.00  0.00    +0.000 A 
ATOM      4  C   UNL     1       6.035   5.996  17.772  0.00  0.00    +0.000 A 
ATOM      5  C   UNL     1       4.737   6.275  17.333  0.00  0.00    +0.000 A 
ATOM      6  F   UNL     1       4.517   7.080  16.285  0.00  0.00    +0.000 F 
ATOM      7  C   UNL     1       3.621   5.759  18.005  0.00  0.00    +0.000 A 
ENDROOT
BRANCH   1  11
ATOM      8  C   UNL     1       0.991   3.076  20.813  0.00  0.00    +0.000 C 
ATOM      9  C   UNL     1       2.269   3.223  20.035  0.00  0.00    +0.000 C 
ATOM     10  O   UNL     1       2.869   2.233  19.632  0.00  0.00    +0.000 OA
ATOM     11  N   UNL     1       2.653   4.548  19.866  0.00  0.00    +0.000 N 
ATOM     12  H   UNL     1       2.149   5.247  20.396  0.00  0.00    +0.000 HD
ENDBRANCH   1  11
BRANCH   4  13
ATOM     13  C   UNL     1       7.218   6.584  17.090  0.00  0.00    +0.000 C 
ATOM     14  O   UNL     1       7.575   6.156  15.995  0.00  0.00    +0.000 OA
BRANCH  13  15
ATOM     15  C   UNL     1       7.935   7.761  17.765  0.00  0.00    +0.000 C 
BRANCH  15  16
ATOM     16  O   UNL     1       7.412   9.028  17.369  0.00  0.00    +0.000 OA
BRANCH  16  17
ATOM     17  C   UNL     1       8.143  10.090  17.815  0.00  0.00    +0.000 C 
ATOM     18  O   UNL     1       8.019  11.239  17.401  0.00  0.00    +0.000 OA
BRANCH  17  19
ATOM     19  C   UNL     1       9.126   9.657  18.874  0.00  0.00    +0.000 C 
BRANCH  19  20
ATOM     20  C   UNL     1       9.750  10.827  19.570  0.00  0.00    +0.000 A 
ATOM     21  C   UNL     1      10.999  11.427  19.196  0.00  0.00    +0.000 A 
ATOM     22  C   UNL     1      11.357  12.468  20.023  0.00  0.00    +0.000 A 
ATOM     23  S   UNL     1      10.185  12.760  21.229  0.00  0.00    +0.000 S 
ATOM     24  C   UNL     1       9.203  11.481  20.659  0.00  0.00    +0.000 A 
ENDBRANCH  19  20
ENDBRANCH  17  19
ENDBRANCH  16  17
ENDBRANCH  15  16
ENDBRANCH  13  15
ENDBRANCH   4  13
TORSDOF 7
ENDMDL
