MODEL 1
REMARK VINA RESULT:      -8.2      0.000      0.000
REMARK  Name = 
REMARK  10 active torsions:
REMARK  status: ('A' for Active; 'I' for Inactive)
REMARK    1  A    between atoms: N_3  and  C_4
REMARK    2  A    between atoms: C_4  and  C_6
REMARK    3  A    between atoms: C_9  and  C_10
REMARK    4  A    between atoms: C_10  and  CA_11
REMARK    5  A    between atoms: CA_11  and  N_12
REMARK    6  A    between atoms: CA_11  and  C_13
REMARK    7  A    between atoms: C_13  and  OXT_15
REMARK    8  A    between atoms: N_18  and  C_19
REMARK    9  A    between atoms: C_19  and  C_20
REMARK   10  A    between atoms: C_25  and  N_26
REMARK                            x       y       z     vdW  Elec       q    Type
REMARK                         _______ _______ _______ _____ _____    ______ ____
ROOT
ATOM      1  N   UNL     1       1.798   8.096  19.778  0.00  0.00    +0.000 N 
ATOM      2  C   UNL     1       1.897   8.383  18.457  0.00  0.00    +0.000 C 
ATOM      3  N   UNL     1       1.478   9.451  17.853  0.00  0.00    +0.000 NA
ATOM      4  N   UNL     1       2.524   7.402  17.738  0.00  0.00    +0.000 N 
ATOM      5  H   UNL     1       1.134   8.711  20.254  0.00  0.00    +0.000 HD
ATOM      6  H   UNL     1       1.564   7.128  19.964  0.00  0.00    +0.000 HD
ATOM      7  H   UNL     1       2.665   7.644  16.765  0.00  0.00    +0.000 HD
ENDROOT
BRANCH   3   8
ATOM      8  C   UNL     1       0.810  10.387  18.614  0.00  0.00    +0.000 C 
ATOM      9  O   UNL     1       1.327  11.071  19.498  0.00  0.00    +0.000 OA
BRANCH   8  10
ATOM     10  C   UNL     1      -0.644  10.573  18.339  0.00  0.00    +0.000 A 
ATOM     11  C   UNL     1      -1.336  11.545  19.077  0.00  0.00    +0.000 A 
ATOM     12  C   UNL     1      -2.700  11.753  18.876  0.00  0.00    +0.000 A 
ATOM     13  C   UNL     1      -3.393  11.015  17.909  0.00  0.00    +0.000 A 
ATOM     14  C   UNL     1      -2.697  10.044  17.170  0.00  0.00    +0.000 A 
ATOM     15  C   UNL     1      -1.331   9.821  17.384  0.00  0.00    +0.000 A 
BRANCH  13  16
ATOM     16  C   UNL     1      -4.870  11.239  17.675  0.00  0.00    +0.000 C 
BRANCH  16  17
ATOM     17  CA  UNL     1      -5.547  12.163  18.701  0.00  0.00    +0.000 C 
BRANCH  17  18
ATOM     18  N   UNL     1      -6.402  11.354  19.608  0.00  0.00    +0.000 NA
ATOM     19  H1  UNL     1      -6.713  11.961  20.371  0.00  0.00    +0.000 HD
ATOM     20  H2  UNL     1      -5.806  10.670  20.084  0.00  0.00    +0.000 HD
ENDBRANCH  17  18
BRANCH  17  21
ATOM     21  C   UNL     1      -6.409  13.225  17.997  0.00  0.00    +0.000 C 
ATOM     22  O   UNL     1      -7.267  12.963  17.163  0.00  0.00    +0.000 OA
BRANCH  21  23
ATOM     23  OXT UNL     1      -6.169  14.492  18.403  0.00  0.00    +0.000 OA
ATOM     24  HXT UNL     1      -6.650  15.177  17.898  0.00  0.00    +0.000 HD
ENDBRANCH  21  23
ENDBRANCH  17  21
ENDBRANCH  16  17
ENDBRANCH  13  16
ENDBRANCH   8  10
ENDBRANCH   3   8
BRANCH   4  25
ATOM     25  C   UNL     1       3.542   6.511  18.281  0.00  0.00    +0.000 C 
BRANCH  25  26
ATOM     26  C   UNL     1       3.197   5.031  18.206  0.00  0.00    +0.000 A 
ATOM     27  C   UNL     1       1.912   4.623  18.657  0.00  0.00    +0.000 A 
ATOM     28  C   UNL     1       1.459   3.315  18.526  0.00  0.00    +0.000 A 
ATOM     29  C   UNL     1       2.286   2.375  17.946  0.00  0.00    +0.000 A 
ATOM     30  C   UNL     1       3.563   2.749  17.515  0.00  0.00    +0.000 A 
ATOM     31  C   UNL     1       4.071   4.069  17.617  0.00  0.00    +0.000 A 
BRANCH  31  32
ATOM     32  N   UNL     1       5.325   4.346  17.096  0.00  0.00    +0.000 N 
ATOM     33  C   UNL     1       6.526   4.750  17.850  0.00  0.00    +0.000 C 
ATOM     34  C   UNL     1       7.116   5.992  17.165  0.00  0.00    +0.000 C 
ATOM     35  O   UNL     1       7.521   5.672  15.820  0.00  0.00    +0.000 OA
ATOM     36  C   UNL     1       6.403   5.189  15.052  0.00  0.00    +0.000 C 
ATOM     37  C   UNL     1       5.706   3.982  15.711  0.00  0.00    +0.000 C 
ENDBRANCH  31  32
ENDBRANCH  25  26
ENDBRANCH   4  25
TORSDOF 10
ENDMDL
MODEL 2
REMARK VINA RESULT:      -8.2      0.934      1.379
REMARK  Name = 
REMARK  10 active torsions:
REMARK  status: ('A' for Active; 'I' for Inactive)
REMARK    1  A    between atoms: N_3  and  C_4
REMARK    2  A    between atoms: C_4  and  C_6
REMARK    3  A    between atoms: C_9  and  C_10
REMARK    4  A    between atoms: C_10  and  CA_11
REMARK    5  A    between atoms: CA_11  and  N_12
REMARK    6  A    between atoms: CA_11  and  C_13
REMARK    7  A    between atoms: C_13  and  OXT_15
REMARK    8  A    between atoms: N_18  and  C_19
REMARK    9  A    between atoms: C_19  and  C_20
REMARK   10  A    between atoms: C_25  and  N_26
REMARK                            x       y       z     vdW  Elec       q    Type
REMARK                         _______ _______ _______ _____ _____    ______ ____
ROOT
ATOM      1  N   UNL     1       1.929   8.206  19.758  0.00  0.00    +0.000 N 
ATOM      2  C   UNL     1       1.799   8.474  18.435  0.00  0.00    +0.000 C 
ATOM      3  N   UNL     1       1.267   9.527  17.897  0.00  0.00    +0.000 NA
ATOM      4  N   UNL     1       2.310   7.491  17.633  0.00  0.00    +0.000 N 
ATOM      5  H   UNL     1       1.346   8.820  20.331  0.00  0.00    +0.000 HD
ATOM      6  H   UNL     1       1.746   7.239  19.993  0.00  0.00    +0.000 HD
ATOM      7  H   UNL     1       2.280   7.719  16.647  0.00  0.00    +0.000 HD
ENDROOT
BRANCH   3   8
ATOM      8  C   UNL     1       0.723  10.466  18.749  0.00  0.00    +0.000 C 
ATOM      9  O   UNL     1       1.349  11.067  19.622  0.00  0.00    +0.000 OA
BRANCH   8  10
ATOM     10  C   UNL     1      -0.730  10.764  18.590  0.00  0.00    +0.000 A 
ATOM     11  C   UNL     1      -1.461  10.010  17.661  0.00  0.00    +0.000 A 
ATOM     12  C   UNL     1      -2.818  10.254  17.455  0.00  0.00    +0.000 A 
ATOM     13  C   UNL     1      -3.480  11.236  18.202  0.00  0.00    +0.000 A 
ATOM     14  C   UNL     1      -2.746  11.990  19.133  0.00  0.00    +0.000 A 
ATOM     15  C   UNL     1      -1.378  11.758  19.326  0.00  0.00    +0.000 A 
BRANCH  13  16
ATOM     16  C   UNL     1      -4.954  11.503  17.996  0.00  0.00    +0.000 C 
BRANCH  16  17
ATOM     17  CA  UNL     1      -5.865  10.950  19.104  0.00  0.00    +0.000 C 
BRANCH  17  18
ATOM     18  N   UNL     1      -7.123  10.438  18.502  0.00  0.00    +0.000 NA
ATOM     19  H1  UNL     1      -7.861  11.124  18.682  0.00  0.00    +0.000 HD
ATOM     20  H2  UNL     1      -7.426   9.622  19.041  0.00  0.00    +0.000 HD
ENDBRANCH  17  18
BRANCH  17  21
ATOM     21  C   UNL     1      -6.199  12.042  20.135  0.00  0.00    +0.000 C 
ATOM     22  O   UNL     1      -5.937  11.955  21.328  0.00  0.00    +0.000 OA
BRANCH  21  23
ATOM     23  OXT UNL     1      -6.785  13.141  19.609  0.00  0.00    +0.000 OA
ATOM     24  HXT UNL     1      -7.345  12.967  18.828  0.00  0.00    +0.000 HD
ENDBRANCH  21  23
ENDBRANCH  17  21
ENDBRANCH  16  17
ENDBRANCH  13  16
ENDBRANCH   8  10
ENDBRANCH   3   8
BRANCH   4  25
ATOM     25  C   UNL     1       3.419   6.621  18.007  0.00  0.00    +0.000 C 
BRANCH  25  26
ATOM     26  C   UNL     1       3.085   5.137  18.027  0.00  0.00    +0.000 A 
ATOM     27  C   UNL     1       1.784   4.753  18.453  0.00  0.00    +0.000 A 
ATOM     28  C   UNL     1       1.343   3.436  18.401  0.00  0.00    +0.000 A 
ATOM     29  C   UNL     1       2.198   2.462  17.927  0.00  0.00    +0.000 A 
ATOM     30  C   UNL     1       3.491   2.813  17.524  0.00  0.00    +0.000 A 
ATOM     31  C   UNL     1       3.987   4.142  17.548  0.00  0.00    +0.000 A 
BRANCH  31  32
ATOM     32  N   UNL     1       5.261   4.389  17.061  0.00  0.00    +0.000 N 
ATOM     33  C   UNL     1       6.463   4.714  17.852  0.00  0.00    +0.000 C 
ATOM     34  C   UNL     1       7.113   5.958  17.229  0.00  0.00    +0.000 C 
ATOM     35  O   UNL     1       7.530   5.678  15.879  0.00  0.00    +0.000 OA
ATOM     36  C   UNL     1       6.410   5.271  15.073  0.00  0.00    +0.000 C 
ATOM     37  C   UNL     1       5.654   4.067  15.669  0.00  0.00    +0.000 C 
ENDBRANCH  31  32
ENDBRANCH  25  26
ENDBRANCH   4  25
TORSDOF 10
ENDMDL
MODEL 3
REMARK VINA RESULT:      -8.2      1.005      1.422
REMARK  Name = 
REMARK  10 active torsions:
REMARK  status: ('A' for Active; 'I' for Inactive)
REMARK    1  A    between atoms: N_3  and  C_4
REMARK    2  A    between atoms: C_4  and  C_6
REMARK    3  A    between atoms: C_9  and  C_10
REMARK    4  A    between atoms: C_10  and  CA_11
REMARK    5  A    between atoms: CA_11  and  N_12
REMARK    6  A    between atoms: CA_11  and  C_13
REMARK    7  A    between atoms: C_13  and  OXT_15
REMARK    8  A    between atoms: N_18  and  C_19
REMARK    9  A    between atoms: C_19  and  C_20
REMARK   10  A    between atoms: C_25  and  N_26
REMARK                            x       y       z     vdW  Elec       q    Type
REMARK                         _______ _______ _______ _____ _____    ______ ____
ROOT
ATOM      1  N   UNL     1       2.346   9.329  17.861  0.00  0.00    +0.000 N 
ATOM      2  C   UNL     1       1.768   8.836  18.984  0.00  0.00    +0.000 C 
ATOM      3  N   UNL     1       0.846   9.398  19.703  0.00  0.00    +0.000 NA
ATOM      4  N   UNL     1       2.247   7.605  19.341  0.00  0.00    +0.000 N 
ATOM      5  H   UNL     1       2.156  10.326  17.740  0.00  0.00    +0.000 HD
ATOM      6  H   UNL     1       3.343   9.160  17.813  0.00  0.00    +0.000 HD
ATOM      7  H   UNL     1       1.768   7.202  20.137  0.00  0.00    +0.000 HD
ENDROOT
BRANCH   3   8
ATOM      8  C   UNL     1       0.433  10.658  19.327  0.00  0.00    +0.000 C 
ATOM      9  O   UNL     1       1.112  11.680  19.434  0.00  0.00    +0.000 OA
BRANCH   8  10
ATOM     10  C   UNL     1      -0.938  10.780  18.752  0.00  0.00    +0.000 A 
ATOM     11  C   UNL     1      -1.819  11.702  19.336  0.00  0.00    +0.000 A 
ATOM     12  C   UNL     1      -3.119  11.848  18.854  0.00  0.00    +0.000 A 
ATOM     13  C   UNL     1      -3.553  11.098  17.755  0.00  0.00    +0.000 A 
ATOM     14  C   UNL     1      -2.668  10.176  17.171  0.00  0.00    +0.000 A 
ATOM     15  C   UNL     1      -1.368  10.015  17.666  0.00  0.00    +0.000 A 
BRANCH  13  16
ATOM     16  C   UNL     1      -4.957  11.255  17.216  0.00  0.00    +0.000 C 
BRANCH  16  17
ATOM     17  CA  UNL     1      -5.956  11.877  18.205  0.00  0.00    +0.000 C 
BRANCH  17  18
ATOM     18  N   UNL     1      -7.104  10.953  18.397  0.00  0.00    +0.000 NA
ATOM     19  H1  UNL     1      -7.672  11.312  19.170  0.00  0.00    +0.000 HD
ATOM     20  H2  UNL     1      -6.744  10.068  18.766  0.00  0.00    +0.000 HD
ENDBRANCH  17  18
BRANCH  17  21
ATOM     21  C   UNL     1      -6.471  13.231  17.688  0.00  0.00    +0.000 C 
ATOM     22  O   UNL     1      -7.197  13.355  16.709  0.00  0.00    +0.000 OA
BRANCH  21  23
ATOM     23  OXT UNL     1      -6.081  14.292  18.429  0.00  0.00    +0.000 OA
ATOM     24  HXT UNL     1      -5.527  14.940  17.950  0.00  0.00    +0.000 HD
ENDBRANCH  21  23
ENDBRANCH  17  21
ENDBRANCH  16  17
ENDBRANCH  13  16
ENDBRANCH   8  10
ENDBRANCH   3   8
BRANCH   4  25
ATOM     25  C   UNL     1       2.764   6.620  18.399  0.00  0.00    +0.000 C 
BRANCH  25  26
ATOM     26  C   UNL     1       2.906   5.214  18.962  0.00  0.00    +0.000 A 
ATOM     27  C   UNL     1       1.856   4.714  19.779  0.00  0.00    +0.000 A 
ATOM     28  C   UNL     1       1.838   3.405  20.247  0.00  0.00    +0.000 A 
ATOM     29  C   UNL     1       2.877   2.561  19.916  0.00  0.00    +0.000 A 
ATOM     30  C   UNL     1       3.932   3.038  19.132  0.00  0.00    +0.000 A 
ATOM     31  C   UNL     1       3.996   4.359  18.621  0.00  0.00    +0.000 A 
BRANCH  31  32
ATOM     32  N   UNL     1       5.055   4.708  17.796  0.00  0.00    +0.000 N 
ATOM     33  C   UNL     1       5.047   4.762  16.323  0.00  0.00    +0.000 C 
ATOM     34  C   UNL     1       6.271   3.983  15.817  0.00  0.00    +0.000 C 
ATOM     35  O   UNL     1       7.483   4.609  16.280  0.00  0.00    +0.000 OA
ATOM     36  C   UNL     1       7.513   4.663  17.718  0.00  0.00    +0.000 C 
ATOM     37  C   UNL     1       6.277   5.368  18.312  0.00  0.00    +0.000 C 
ENDBRANCH  31  32
ENDBRANCH  25  26
ENDBRANCH   4  25
TORSDOF 10
ENDMDL
MODEL 4
REMARK VINA RESULT:      -8.2      0.574      1.451
REMARK  Name = 
REMARK  10 active torsions:
REMARK  status: ('A' for Active; 'I' for Inactive)
REMARK    1  A    between atoms: N_3  and  C_4
REMARK    2  A    between atoms: C_4  and  C_6
REMARK    3  A    between atoms: C_9  and  C_10
REMARK    4  A    between atoms: C_10  and  CA_11
REMARK    5  A    between atoms: CA_11  and  N_12
REMARK    6  A    between atoms: CA_11  and  C_13
REMARK    7  A    between atoms: C_13  and  OXT_15
REMARK    8  A    between atoms: N_18  and  C_19
REMARK    9  A    between atoms: C_19  and  C_20
REMARK   10  A    between atoms: C_25  and  N_26
REMARK                            x       y       z     vdW  Elec       q    Type
REMARK                         _______ _______ _______ _____ _____    ______ ____
ROOT
ATOM      1  N   UNL     1       1.536   8.313  19.874  0.00  0.00    +0.000 N 
ATOM      2  C   UNL     1       1.646   8.610  18.556  0.00  0.00    +0.000 C 
ATOM      3  N   UNL     1       1.211   9.673  17.953  0.00  0.00    +0.000 NA
ATOM      4  N   UNL     1       2.303   7.648  17.839  0.00  0.00    +0.000 N 
ATOM      5  H   UNL     1       0.853   8.910  20.345  0.00  0.00    +0.000 HD
ATOM      6  H   UNL     1       1.321   7.339  20.051  0.00  0.00    +0.000 HD
ATOM      7  H   UNL     1       2.450   7.898  16.869  0.00  0.00    +0.000 HD
ENDROOT
BRANCH   3   8
ATOM      8  C   UNL     1       0.513  10.589  18.712  0.00  0.00    +0.000 C 
ATOM      9  O   UNL     1       1.001  11.265  19.618  0.00  0.00    +0.000 OA
BRANCH   8  10
ATOM     10  C   UNL     1      -0.935  10.763  18.402  0.00  0.00    +0.000 A 
ATOM     11  C   UNL     1      -1.497   9.959  17.399  0.00  0.00    +0.000 A 
ATOM     12  C   UNL     1      -2.841  10.088  17.052  0.00  0.00    +0.000 A 
ATOM     13  C   UNL     1      -3.660  11.001  17.727  0.00  0.00    +0.000 A 
ATOM     14  C   UNL     1      -3.096  11.804  18.732  0.00  0.00    +0.000 A 
ATOM     15  C   UNL     1      -1.741  11.688  19.068  0.00  0.00    +0.000 A 
BRANCH  13  16
ATOM     16  C   UNL     1      -5.122  11.142  17.368  0.00  0.00    +0.000 C 
BRANCH  16  17
ATOM     17  CA  UNL     1      -5.995  11.758  18.473  0.00  0.00    +0.000 C 
BRANCH  17  18
ATOM     18  N   UNL     1      -7.172  10.885  18.720  0.00  0.00    +0.000 NA
ATOM     19  H1  UNL     1      -6.827   9.955  18.972  0.00  0.00    +0.000 HD
ATOM     20  H2  UNL     1      -7.643  10.723  17.825  0.00  0.00    +0.000 HD
ENDBRANCH  17  18
BRANCH  17  21
ATOM     21  C   UNL     1      -6.476  13.164  18.072  0.00  0.00    +0.000 C 
ATOM     22  O   UNL     1      -6.369  14.151  18.790  0.00  0.00    +0.000 OA
BRANCH  21  23
ATOM     23  OXT UNL     1      -7.006  13.236  16.831  0.00  0.00    +0.000 OA
ATOM     24  HXT UNL     1      -7.513  14.053  16.653  0.00  0.00    +0.000 HD
ENDBRANCH  21  23
ENDBRANCH  17  21
ENDBRANCH  16  17
ENDBRANCH  13  16
ENDBRANCH   8  10
ENDBRANCH   3   8
BRANCH   4  25
ATOM     25  C   UNL     1       3.333   6.775  18.389  0.00  0.00    +0.000 C 
BRANCH  25  26
ATOM     26  C   UNL     1       3.056   5.287  18.232  0.00  0.00    +0.000 A 
ATOM     27  C   UNL     1       1.814   4.786  18.709  0.00  0.00    +0.000 A 
ATOM     28  C   UNL     1       1.419   3.468  18.512  0.00  0.00    +0.000 A 
ATOM     29  C   UNL     1       2.263   2.610  17.838  0.00  0.00    +0.000 A 
ATOM     30  C   UNL     1       3.500   3.075  17.379  0.00  0.00    +0.000 A 
ATOM     31  C   UNL     1       3.947   4.410  17.545  0.00  0.00    +0.000 A 
BRANCH  31  32
ATOM     32  N   UNL     1       5.163   4.783  16.991  0.00  0.00    +0.000 N 
ATOM     33  C   UNL     1       5.422   5.130  15.582  0.00  0.00    +0.000 C 
ATOM     34  C   UNL     1       6.644   4.322  15.117  0.00  0.00    +0.000 C 
ATOM     35  O   UNL     1       7.804   4.689  15.888  0.00  0.00    +0.000 OA
ATOM     36  C   UNL     1       7.582   4.452  17.290  0.00  0.00    +0.000 C 
ATOM     37  C   UNL     1       6.326   5.172  17.822  0.00  0.00    +0.000 C 
ENDBRANCH  31  32
ENDBRANCH  25  26
ENDBRANCH   4  25
TORSDOF 10
ENDMDL
MODEL 5
REMARK VINA RESULT:      -8.1      0.695      1.210
REMARK  Name = 
REMARK  10 active torsions:
REMARK  status: ('A' for Active; 'I' for Inactive)
REMARK    1  A    between atoms: N_3  and  C_4
REMARK    2  A    between atoms: C_4  and  C_6
REMARK    3  A    between atoms: C_9  and  C_10
REMARK    4  A    between atoms: C_10  and  CA_11
REMARK    5  A    between atoms: CA_11  and  N_12
REMARK    6  A    between atoms: CA_11  and  C_13
REMARK    7  A    between atoms: C_13  and  OXT_15
REMARK    8  A    between atoms: N_18  and  C_19
REMARK    9  A    between atoms: C_19  and  C_20
REMARK   10  A    between atoms: C_25  and  N_26
REMARK                            x       y       z     vdW  Elec       q    Type
REMARK                         _______ _______ _______ _____ _____    ______ ____
ROOT
ATOM      1  N   UNL     1       2.693   9.292  17.692  0.00  0.00    +0.000 N 
ATOM      2  C   UNL     1       1.922   8.609  18.574  0.00  0.00    +0.000 C 
ATOM      3  N   UNL     1       0.848   9.029  19.167  0.00  0.00    +0.000 NA
ATOM      4  N   UNL     1       2.376   7.341  18.817  0.00  0.00    +0.000 N 
ATOM      5  H   UNL     1       2.485  10.293  17.699  0.00  0.00    +0.000 HD
ATOM      6  H   UNL     1       3.686   9.145  17.827  0.00  0.00    +0.000 HD
ATOM      7  H   UNL     1       1.764   6.803  19.419  0.00  0.00    +0.000 HD
ENDROOT
BRANCH   3   8
ATOM      8  C   UNL     1       0.461  10.330  18.924  0.00  0.00    +0.000 C 
ATOM      9  O   UNL     1       1.197  11.312  19.029  0.00  0.00    +0.000 OA
BRANCH   8  10
ATOM     10  C   UNL     1      -0.953  10.551  18.508  0.00  0.00    +0.000 A 
ATOM     11  C   UNL     1      -1.446   9.807  17.425  0.00  0.00    +0.000 A 
ATOM     12  C   UNL     1      -2.755   9.981  16.978  0.00  0.00    +0.000 A 
ATOM     13  C   UNL     1      -3.609  10.880  17.627  0.00  0.00    +0.000 A 
ATOM     14  C   UNL     1      -3.114  11.624  18.711  0.00  0.00    +0.000 A 
ATOM     15  C   UNL     1      -1.794  11.462  19.149  0.00  0.00    +0.000 A 
BRANCH  13  16
ATOM     16  C   UNL     1      -5.034  11.071  17.158  0.00  0.00    +0.000 C 
BRANCH  16  17
ATOM     17  CA  UNL     1      -5.999  11.585  18.238  0.00  0.00    +0.000 C 
BRANCH  17  18
ATOM     18  N   UNL     1      -6.989  10.526  18.564  0.00  0.00    +0.000 NA
ATOM     19  H1  UNL     1      -7.727  10.555  17.855  0.00  0.00    +0.000 HD
ATOM     20  H2  UNL     1      -7.479  10.799  19.421  0.00  0.00    +0.000 HD
ENDBRANCH  17  18
BRANCH  17  21
ATOM     21  C   UNL     1      -6.740  12.846  17.757  0.00  0.00    +0.000 C 
ATOM     22  O   UNL     1      -6.334  13.573  16.858  0.00  0.00    +0.000 OA
BRANCH  21  23
ATOM     23  OXT UNL     1      -7.912  13.076  18.390  0.00  0.00    +0.000 OA
ATOM     24  HXT UNL     1      -8.182  14.015  18.413  0.00  0.00    +0.000 HD
ENDBRANCH  21  23
ENDBRANCH  17  21
ENDBRANCH  16  17
ENDBRANCH  13  16
ENDBRANCH   8  10
ENDBRANCH   3   8
BRANCH   4  25
ATOM     25  C   UNL     1       3.119   6.537  17.855  0.00  0.00    +0.000 C 
BRANCH  25  26
ATOM     26  C   UNL     1       2.909   5.035  17.984  0.00  0.00    +0.000 A 
ATOM     27  C   UNL     1       1.633   4.575  18.409  0.00  0.00    +0.000 A 
ATOM     28  C   UNL     1       1.305   3.225  18.449  0.00  0.00    +0.000 A 
ATOM     29  C   UNL     1       2.251   2.294  18.072  0.00  0.00    +0.000 A 
ATOM     30  C   UNL     1       3.521   2.723  17.672  0.00  0.00    +0.000 A 
ATOM     31  C   UNL     1       3.904   4.087  17.604  0.00  0.00    +0.000 A 
BRANCH  31  32
ATOM     32  N   UNL     1       5.167   4.405  17.128  0.00  0.00    +0.000 N 
ATOM     33  C   UNL     1       6.318   4.875  17.921  0.00  0.00    +0.000 C 
ATOM     34  C   UNL     1       6.884   6.125  17.231  0.00  0.00    +0.000 C 
ATOM     35  O   UNL     1       7.357   5.793  15.911  0.00  0.00    +0.000 OA
ATOM     36  C   UNL     1       6.294   5.247  15.110  0.00  0.00    +0.000 C 
ATOM     37  C   UNL     1       5.620   4.026  15.769  0.00  0.00    +0.000 C 
ENDBRANCH  31  32
ENDBRANCH  25  26
ENDBRANCH   4  25
TORSDOF 10
ENDMDL
MODEL 6
REMARK VINA RESULT:      -8.1      1.811      3.094
REMARK  Name = 
REMARK  10 active torsions:
REMARK  status: ('A' for Active; 'I' for Inactive)
REMARK    1  A    between atoms: N_3  and  C_4
REMARK    2  A    between atoms: C_4  and  C_6
REMARK    3  A    between atoms: C_9  and  C_10
REMARK    4  A    between atoms: C_10  and  CA_11
REMARK    5  A    between atoms: CA_11  and  N_12
REMARK    6  A    between atoms: CA_11  and  C_13
REMARK    7  A    between atoms: C_13  and  OXT_15
REMARK    8  A    between atoms: N_18  and  C_19
REMARK    9  A    between atoms: C_19  and  C_20
REMARK   10  A    between atoms: C_25  and  N_26
REMARK                            x       y       z     vdW  Elec       q    Type
REMARK                         _______ _______ _______ _____ _____    ______ ____
ROOT
ATOM      1  N   UNL     1       1.663   8.374  20.014  0.00  0.00    +0.000 N 
ATOM      2  C   UNL     1       1.646   8.503  18.664  0.00  0.00    +0.000 C 
ATOM      3  N   UNL     1       1.095   9.453  17.974  0.00  0.00    +0.000 NA
ATOM      4  N   UNL     1       2.305   7.493  18.018  0.00  0.00    +0.000 N 
ATOM      5  H   UNL     1       0.983   8.990  20.465  0.00  0.00    +0.000 HD
ATOM      6  H   UNL     1       1.528   7.422  20.330  0.00  0.00    +0.000 HD
ATOM      7  H   UNL     1       2.357   7.622  17.015  0.00  0.00    +0.000 HD
ENDROOT
BRANCH   3   8
ATOM      8  C   UNL     1       0.403  10.420  18.670  0.00  0.00    +0.000 C 
ATOM      9  O   UNL     1       0.882  11.119  19.564  0.00  0.00    +0.000 OA
BRANCH   8  10
ATOM     10  C   UNL     1      -1.029  10.624  18.307  0.00  0.00    +0.000 A 
ATOM     11  C   UNL     1      -1.778  11.539  19.062  0.00  0.00    +0.000 A 
ATOM     12  C   UNL     1      -3.125  11.759  18.781  0.00  0.00    +0.000 A 
ATOM     13  C   UNL     1      -3.743  11.094  17.716  0.00  0.00    +0.000 A 
ATOM     14  C   UNL     1      -2.991  10.179  16.960  0.00  0.00    +0.000 A 
ATOM     15  C   UNL     1      -1.642   9.943  17.254  0.00  0.00    +0.000 A 
BRANCH  13  16
ATOM     16  C   UNL     1      -5.201  11.333  17.395  0.00  0.00    +0.000 C 
BRANCH  16  17
ATOM     17  CA  UNL     1      -6.081  11.647  18.615  0.00  0.00    +0.000 C 
BRANCH  17  18
ATOM     18  N   UNL     1      -7.131  10.604  18.752  0.00  0.00    +0.000 NA
ATOM     19  H1  UNL     1      -6.759   9.731  18.369  0.00  0.00    +0.000 HD
ATOM     20  H2  UNL     1      -7.894  10.833  18.109  0.00  0.00    +0.000 HD
ENDBRANCH  17  18
BRANCH  17  21
ATOM     21  C   UNL     1      -6.748  13.027  18.470  0.00  0.00    +0.000 C 
ATOM     22  O   UNL     1      -7.909  13.189  18.115  0.00  0.00    +0.000 OA
BRANCH  21  23
ATOM     23  OXT UNL     1      -5.950  14.066  18.803  0.00  0.00    +0.000 OA
ATOM     24  HXT UNL     1      -6.255  14.579  19.577  0.00  0.00    +0.000 HD
ENDBRANCH  21  23
ENDBRANCH  17  21
ENDBRANCH  16  17
ENDBRANCH  13  16
ENDBRANCH   8  10
ENDBRANCH   3   8
BRANCH   4  25
ATOM     25  C   UNL     1       3.431   6.757  18.579  0.00  0.00    +0.000 C 
BRANCH  25  26
ATOM     26  C   UNL     1       4.159   5.856  17.592  0.00  0.00    +0.000 A 
ATOM     27  C   UNL     1       5.121   6.451  16.732  0.00  0.00    +0.000 A 
ATOM     28  C   UNL     1       5.919   5.699  15.876  0.00  0.00    +0.000 A 
ATOM     29  C   UNL     1       5.768   4.328  15.852  0.00  0.00    +0.000 A 
ATOM     30  C   UNL     1       4.811   3.723  16.673  0.00  0.00    +0.000 A 
ATOM     31  C   UNL     1       3.979   4.441  17.570  0.00  0.00    +0.000 A 
BRANCH  31  32
ATOM     32  N   UNL     1       3.111   3.735  18.389  0.00  0.00    +0.000 N 
ATOM     33  C   UNL     1       1.640   3.695  18.292  0.00  0.00    +0.000 C 
ATOM     34  C   UNL     1       1.069   3.977  19.690  0.00  0.00    +0.000 C 
ATOM     35  O   UNL     1       1.484   2.951  20.613  0.00  0.00    +0.000 OA
ATOM     36  C   UNL     1       2.919   2.882  20.688  0.00  0.00    +0.000 C 
ATOM     37  C   UNL     1       3.578   2.673  19.310  0.00  0.00    +0.000 C 
ENDBRANCH  31  32
ENDBRANCH  25  26
ENDBRANCH   4  25
TORSDOF 10
ENDMDL
MODEL 7
REMARK VINA RESULT:      -8.1      1.785      3.024
REMARK  Name = 
REMARK  10 active torsions:
REMARK  status: ('A' for Active; 'I' for Inactive)
REMARK    1  A    between atoms: N_3  and  C_4
REMARK    2  A    between atoms: C_4  and  C_6
REMARK    3  A    between atoms: C_9  and  C_10
REMARK    4  A    between atoms: C_10  and  CA_11
REMARK    5  A    between atoms: CA_11  and  N_12
REMARK    6  A    between atoms: CA_11  and  C_13
REMARK    7  A    between atoms: C_13  and  OXT_15
REMARK    8  A    between atoms: N_18  and  C_19
REMARK    9  A    between atoms: C_19  and  C_20
REMARK   10  A    between atoms: C_25  and  N_26
REMARK                            x       y       z     vdW  Elec       q    Type
REMARK                         _______ _______ _______ _____ _____    ______ ____
ROOT
ATOM      1  N   UNL     1       1.810   8.279  19.749  0.00  0.00    +0.000 N 
ATOM      2  C   UNL     1       1.868   8.732  18.473  0.00  0.00    +0.000 C 
ATOM      3  N   UNL     1       1.279   9.779  17.984  0.00  0.00    +0.000 NA
ATOM      4  N   UNL     1       2.657   7.961  17.663  0.00  0.00    +0.000 N 
ATOM      5  H   UNL     1       1.048   8.715  20.275  0.00  0.00    +0.000 HD
ATOM      6  H   UNL     1       1.742   7.271  19.817  0.00  0.00    +0.000 HD
ATOM      7  H   UNL     1       2.761   8.335  16.728  0.00  0.00    +0.000 HD
ENDROOT
BRANCH   3   8
ATOM      8  C   UNL     1       0.457  10.494  18.830  0.00  0.00    +0.000 C 
ATOM      9  O   UNL     1       0.815  10.999  19.895  0.00  0.00    +0.000 OA
BRANCH   8  10
ATOM     10  C   UNL     1      -0.965  10.659  18.415  0.00  0.00    +0.000 A 
ATOM     11  C   UNL     1      -1.743  11.613  19.088  0.00  0.00    +0.000 A 
ATOM     12  C   UNL     1      -3.084  11.801  18.756  0.00  0.00    +0.000 A 
ATOM     13  C   UNL     1      -3.666  11.061  17.721  0.00  0.00    +0.000 A 
ATOM     14  C   UNL     1      -2.885  10.107  17.047  0.00  0.00    +0.000 A 
ATOM     15  C   UNL     1      -1.543   9.904  17.392  0.00  0.00    +0.000 A 
BRANCH  13  16
ATOM     16  C   UNL     1      -5.116  11.263  17.345  0.00  0.00    +0.000 C 
BRANCH  16  17
ATOM     17  CA  UNL     1      -6.008  11.772  18.489  0.00  0.00    +0.000 C 
BRANCH  17  18
ATOM     18  N   UNL     1      -7.214  10.911  18.598  0.00  0.00    +0.000 NA
ATOM     19  H1  UNL     1      -7.527  10.928  19.573  0.00  0.00    +0.000 HD
ATOM     20  H2  UNL     1      -6.925   9.937  18.465  0.00  0.00    +0.000 HD
ENDBRANCH  17  18
BRANCH  17  21
ATOM     21  C   UNL     1      -6.441  13.228  18.242  0.00  0.00    +0.000 C 
ATOM     22  O   UNL     1      -6.956  13.940  19.096  0.00  0.00    +0.000 OA
BRANCH  21  23
ATOM     23  OXT UNL     1      -6.174  13.682  16.997  0.00  0.00    +0.000 OA
ATOM     24  HXT UNL     1      -5.687  14.529  16.971  0.00  0.00    +0.000 HD
ENDBRANCH  21  23
ENDBRANCH  17  21
ENDBRANCH  16  17
ENDBRANCH  13  16
ENDBRANCH   8  10
ENDBRANCH   3   8
BRANCH   4  25
ATOM     25  C   UNL     1       3.806   7.194  18.126  0.00  0.00    +0.000 C 
BRANCH  25  26
ATOM     26  C   UNL     1       4.274   6.107  17.170  0.00  0.00    +0.000 A 
ATOM     27  C   UNL     1       5.185   6.472  16.141  0.00  0.00    +0.000 A 
ATOM     28  C   UNL     1       5.758   5.535  15.289  0.00  0.00    +0.000 A 
ATOM     29  C   UNL     1       5.427   4.203  15.439  0.00  0.00    +0.000 A 
ATOM     30  C   UNL     1       4.515   3.824  16.429  0.00  0.00    +0.000 A 
ATOM     31  C   UNL     1       3.909   4.738  17.329  0.00  0.00    +0.000 A 
BRANCH  31  32
ATOM     32  N   UNL     1       3.071   4.246  18.319  0.00  0.00    +0.000 N 
ATOM     33  C   UNL     1       3.412   4.024  19.736  0.00  0.00    +0.000 C 
ATOM     34  C   UNL     1       2.967   2.601  20.108  0.00  0.00    +0.000 C 
ATOM     35  O   UNL     1       1.539   2.475  19.968  0.00  0.00    +0.000 OA
ATOM     36  C   UNL     1       1.131   2.764  18.619  0.00  0.00    +0.000 C 
ATOM     37  C   UNL     1       1.604   4.152  18.139  0.00  0.00    +0.000 C 
ENDBRANCH  31  32
ENDBRANCH  25  26
ENDBRANCH   4  25
TORSDOF 10
ENDMDL
MODEL 8
REMARK VINA RESULT:      -8.1      1.375      1.760
REMARK  Name = 
REMARK  10 active torsions:
REMARK  status: ('A' for Active; 'I' for Inactive)
REMARK    1  A    between atoms: N_3  and  C_4
REMARK    2  A    between atoms: C_4  and  C_6
REMARK    3  A    between atoms: C_9  and  C_10
REMARK    4  A    between atoms: C_10  and  CA_11
REMARK    5  A    between atoms: CA_11  and  N_12
REMARK    6  A    between atoms: CA_11  and  C_13
REMARK    7  A    between atoms: C_13  and  OXT_15
REMARK    8  A    between atoms: N_18  and  C_19
REMARK    9  A    between atoms: C_19  and  C_20
REMARK   10  A    between atoms: C_25  and  N_26
REMARK                            x       y       z     vdW  Elec       q    Type
REMARK                         _______ _______ _______ _____ _____    ______ ____
ROOT
ATOM      1  N   UNL     1       2.137   9.105  17.721  0.00  0.00    +0.000 N 
ATOM      2  C   UNL     1       1.612   8.842  18.943  0.00  0.00    +0.000 C 
ATOM      3  N   UNL     1       0.742   9.553  19.592  0.00  0.00    +0.000 NA
ATOM      4  N   UNL     1       2.086   7.684  19.496  0.00  0.00    +0.000 N 
ATOM      5  H   UNL     1       1.961  10.068  17.428  0.00  0.00    +0.000 HD
ATOM      6  H   UNL     1       3.127   8.901  17.655  0.00  0.00    +0.000 HD
ATOM      7  H   UNL     1       1.644   7.447  20.375  0.00  0.00    +0.000 HD
ENDROOT
BRANCH   3   8
ATOM      8  C   UNL     1       0.333  10.735  19.012  0.00  0.00    +0.000 C 
ATOM      9  O   UNL     1       1.074  11.685  18.758  0.00  0.00    +0.000 OA
BRANCH   8  10
ATOM     10  C   UNL     1      -1.114  10.860  18.673  0.00  0.00    +0.000 A 
ATOM     11  C   UNL     1      -1.642   9.995  17.702  0.00  0.00    +0.000 A 
ATOM     12  C   UNL     1      -2.983  10.075  17.331  0.00  0.00    +0.000 A 
ATOM     13  C   UNL     1      -3.833  11.000  17.948  0.00  0.00    +0.000 A 
ATOM     14  C   UNL     1      -3.303  11.864  18.921  0.00  0.00    +0.000 A 
ATOM     15  C   UNL     1      -1.951  11.797  19.281  0.00  0.00    +0.000 A 
BRANCH  13  16
ATOM     16  C   UNL     1      -5.292  11.090  17.562  0.00  0.00    +0.000 C 
BRANCH  16  17
ATOM     17  CA  UNL     1      -6.264  11.178  18.750  0.00  0.00    +0.000 C 
BRANCH  17  18
ATOM     18  N   UNL     1      -7.076   9.936  18.819  0.00  0.00    +0.000 NA
ATOM     19  H1  UNL     1      -7.012   9.466  17.912  0.00  0.00    +0.000 HD
ATOM     20  H2  UNL     1      -8.063  10.202  18.873  0.00  0.00    +0.000 HD
ENDBRANCH  17  18
BRANCH  17  21
ATOM     21  C   UNL     1      -7.198  12.393  18.605  0.00  0.00    +0.000 C 
ATOM     22  O   UNL     1      -7.491  12.903  17.530  0.00  0.00    +0.000 OA
BRANCH  21  23
ATOM     23  OXT UNL     1      -7.708  12.842  19.773  0.00  0.00    +0.000 OA
ATOM     24  HXT UNL     1      -7.229  12.538  20.568  0.00  0.00    +0.000 HD
ENDBRANCH  21  23
ENDBRANCH  17  21
ENDBRANCH  16  17
ENDBRANCH  13  16
ENDBRANCH   8  10
ENDBRANCH   3   8
BRANCH   4  25
ATOM     25  C   UNL     1       2.531   6.529  18.726  0.00  0.00    +0.000 C 
BRANCH  25  26
ATOM     26  C   UNL     1       2.669   5.244  19.529  0.00  0.00    +0.000 A 
ATOM     27  C   UNL     1       1.630   4.915  20.442  0.00  0.00    +0.000 A 
ATOM     28  C   UNL     1       1.606   3.711  21.137  0.00  0.00    +0.000 A 
ATOM     29  C   UNL     1       2.628   2.805  20.942  0.00  0.00    +0.000 A 
ATOM     30  C   UNL     1       3.672   3.117  20.066  0.00  0.00    +0.000 A 
ATOM     31  C   UNL     1       3.741   4.325  19.326  0.00  0.00    +0.000 A 
BRANCH  31  32
ATOM     32  N   UNL     1       4.785   4.504  18.432  0.00  0.00    +0.000 N 
ATOM     33  C   UNL     1       6.142   4.992  18.743  0.00  0.00    +0.000 C 
ATOM     34  C   UNL     1       6.477   6.113  17.748  0.00  0.00    +0.000 C 
ATOM     35  O   UNL     1       6.487   5.598  16.403  0.00  0.00    +0.000 OA
ATOM     36  C   UNL     1       5.209   5.028  16.066  0.00  0.00    +0.000 C 
ATOM     37  C   UNL     1       4.762   3.939  17.063  0.00  0.00    +0.000 C 
ENDBRANCH  31  32
ENDBRANCH  25  26
ENDBRANCH   4  25
TORSDOF 10
ENDMDL
MODEL 9
REMARK VINA RESULT:      -8.1      1.227      1.356
REMARK  Name = 
REMARK  10 active torsions:
REMARK  status: ('A' for Active; 'I' for Inactive)
REMARK    1  A    between atoms: N_3  and  C_4
REMARK    2  A    between atoms: C_4  and  C_6
REMARK    3  A    between atoms: C_9  and  C_10
REMARK    4  A    between atoms: C_10  and  CA_11
REMARK    5  A    between atoms: CA_11  and  N_12
REMARK    6  A    between atoms: CA_11  and  C_13
REMARK    7  A    between atoms: C_13  and  OXT_15
REMARK    8  A    between atoms: N_18  and  C_19
REMARK    9  A    between atoms: C_19  and  C_20
REMARK   10  A    between atoms: C_25  and  N_26
REMARK                            x       y       z     vdW  Elec       q    Type
REMARK                         _______ _______ _______ _____ _____    ______ ____
ROOT
ATOM      1  N   UNL     1       2.000   7.836  20.206  0.00  0.00    +0.000 N 
ATOM      2  C   UNL     1       1.830   8.237  18.922  0.00  0.00    +0.000 C 
ATOM      3  N   UNL     1       1.267   9.330  18.509  0.00  0.00    +0.000 NA
ATOM      4  N   UNL     1       2.336   7.351  18.010  0.00  0.00    +0.000 N 
ATOM      5  H   UNL     1       1.422   8.376  20.854  0.00  0.00    +0.000 HD
ATOM      6  H   UNL     1       1.838   6.846  20.344  0.00  0.00    +0.000 HD
ATOM      7  H   UNL     1       2.276   7.679  17.054  0.00  0.00    +0.000 HD
ENDROOT
BRANCH   3   8
ATOM      8  C   UNL     1       0.731  10.165  19.466  0.00  0.00    +0.000 C 
ATOM      9  O   UNL     1       1.313  10.523  20.491  0.00  0.00    +0.000 OA
BRANCH   8  10
ATOM     10  C   UNL     1      -0.655  10.663  19.232  0.00  0.00    +0.000 A 
ATOM     11  C   UNL     1      -1.159  11.642  20.101  0.00  0.00    +0.000 A 
ATOM     12  C   UNL     1      -2.454  12.134  19.944  0.00  0.00    +0.000 A 
ATOM     13  C   UNL     1      -3.260  11.681  18.893  0.00  0.00    +0.000 A 
ATOM     14  C   UNL     1      -2.752  10.700  18.024  0.00  0.00    +0.000 A 
ATOM     15  C   UNL     1      -1.458  10.192  18.193  0.00  0.00    +0.000 A 
BRANCH  13  16
ATOM     16  C   UNL     1      -4.662  12.214  18.706  0.00  0.00    +0.000 C 
BRANCH  16  17
ATOM     17  CA  UNL     1      -5.632  11.238  18.020  0.00  0.00    +0.000 C 
BRANCH  17  18
ATOM     18  N   UNL     1      -6.406  11.959  16.977  0.00  0.00    +0.000 NA
ATOM     19  H1  UNL     1      -6.679  12.869  17.359  0.00  0.00    +0.000 HD
ATOM     20  H2  UNL     1      -7.303  11.480  16.857  0.00  0.00    +0.000 HD
ENDBRANCH  17  18
BRANCH  17  21
ATOM     21  C   UNL     1      -6.602  10.620  19.042  0.00  0.00    +0.000 C 
ATOM     22  O   UNL     1      -6.881   9.428  19.082  0.00  0.00    +0.000 OA
BRANCH  21  23
ATOM     23  OXT UNL     1      -7.108  11.503  19.932  0.00  0.00    +0.000 OA
ATOM     24  HXT UNL     1      -7.729  11.116  20.580  0.00  0.00    +0.000 HD
ENDBRANCH  21  23
ENDBRANCH  17  21
ENDBRANCH  16  17
ENDBRANCH  13  16
ENDBRANCH   8  10
ENDBRANCH   3   8
BRANCH   4  25
ATOM     25  C   UNL     1       3.468   6.468  18.264  0.00  0.00    +0.000 C 
BRANCH  25  26
ATOM     26  C   UNL     1       3.146   4.983  18.190  0.00  0.00    +0.000 A 
ATOM     27  C   UNL     1       1.859   4.558  18.618  0.00  0.00    +0.000 A 
ATOM     28  C   UNL     1       1.428   3.243  18.485  0.00  0.00    +0.000 A 
ATOM     29  C   UNL     1       2.279   2.313  17.925  0.00  0.00    +0.000 A 
ATOM     30  C   UNL     1       3.559   2.704  17.518  0.00  0.00    +0.000 A 
ATOM     31  C   UNL     1       4.045   4.032  17.622  0.00  0.00    +0.000 A 
BRANCH  31  32
ATOM     32  N   UNL     1       5.306   4.325  17.124  0.00  0.00    +0.000 N 
ATOM     33  C   UNL     1       6.492   4.728  17.902  0.00  0.00    +0.000 C 
ATOM     34  C   UNL     1       7.082   5.983  17.242  0.00  0.00    +0.000 C 
ATOM     35  O   UNL     1       7.510   5.684  15.899  0.00  0.00    +0.000 OA
ATOM     36  C   UNL     1       6.408   5.202  15.108  0.00  0.00    +0.000 C 
ATOM     37  C   UNL     1       5.710   3.981  15.741  0.00  0.00    +0.000 C 
ENDBRANCH  31  32
ENDBRANCH  25  26
ENDBRANCH   4  25
TORSDOF 10
ENDMDL
