MODEL 1
REMARK VINA RESULT:      -6.7      0.000      0.000
REMARK  Name = 
REMARK  15 active torsions:
REMARK  status: ('A' for Active; 'I' for Inactive)
REMARK    1  A    between atoms: C_1  and  S_2
REMARK    2  A    between atoms: S_2  and  C_3
REMARK    3  A    between atoms: C_5  and  C_6
REMARK    4  A    between atoms: C_6  and  O_7
REMARK    5  A    between atoms: O_7  and  C_8
REMARK    6  A    between atoms: N_10  and  C_11
REMARK    7  A    between atoms: C_11  and  C_12
REMARK    8  A    between atoms: C_11  and  C_13
REMARK    9  A    between atoms: C_14  and  C_15
REMARK   10  A    between atoms: C_15  and  O_16
REMARK   11  A    between atoms: O_16  and  C_17
REMARK   12  A    between atoms: N_19  and  C_20
REMARK   13  A    between atoms: C_20  and  C_21
REMARK   14  A    between atoms: C_20  and  C_22
REMARK   15  A    between atoms: N_23  and  C_24
REMARK                            x       y       z     vdW  Elec       q    Type
REMARK                         _______ _______ _______ _____ _____    ______ ____
ROOT
ATOM      1  C   UNL     1       4.217   3.919  19.166  0.00  0.00    +0.000 A 
ATOM      2  N   UNL     1       5.470   4.294  19.109  0.00  0.00    +0.000 NA
ATOM      3  C   UNL     1       5.464   5.517  18.473  0.00  0.00    +0.000 A 
ATOM      4  C   UNL     1       4.160   5.914  18.186  0.00  0.00    +0.000 A 
ATOM      5  N   UNL     1       3.376   4.851  18.604  0.00  0.00    +0.000 N 
ATOM      6  C   UNL     1       1.946   4.681  18.469  0.00  0.00    +0.000 C 
ENDROOT
BRANCH   1   8
ATOM      7  C   UNL     1       3.727   1.343  18.398  0.00  0.00    +0.000 C 
ATOM      8  S   UNL     1       3.644   2.425  19.838  0.00  0.00    +0.000 S 
ENDBRANCH   1   8
BRANCH   3   9
ATOM      9  C   UNL     1       6.748   6.239  18.198  0.00  0.00    +0.000 C 
BRANCH   9  10
ATOM     10  O   UNL     1       6.973   6.517  16.795  0.00  0.00    +0.000 OA
BRANCH  10  11
ATOM     11  C   UNL     1       7.289   5.430  16.059  0.00  0.00    +0.000 C 
ATOM     12  O   UNL     1       7.933   4.469  16.456  0.00  0.00    +0.000 OA
ATOM     13  N   UNL     1       6.732   5.516  14.810  0.00  0.00    +0.000 N 
ATOM     14  H   UNL     1       6.276   6.389  14.583  0.00  0.00    +0.000 HD
BRANCH  13  15
ATOM     15  C   UNL     1       6.937   4.489  13.798  0.00  0.00    +0.000 C 
ATOM     16  C   UNL     1       5.617   3.841  13.391  0.00  0.00    +0.000 C 
ATOM     17  C   UNL     1       7.645   5.043  12.563  0.00  0.00    +0.000 C 
ENDBRANCH  13  15
ENDBRANCH  10  11
ENDBRANCH   9  10
ENDBRANCH   3   9
BRANCH   4  18
ATOM     18  C   UNL     1       3.656   7.165  17.547  0.00  0.00    +0.000 C 
BRANCH  18  19
ATOM     19  O   UNL     1       2.321   7.424  18.028  0.00  0.00    +0.000 OA
BRANCH  19  20
ATOM     20  C   UNL     1       2.011   8.737  18.169  0.00  0.00    +0.000 C 
ATOM     21  O   UNL     1       2.296   9.614  17.365  0.00  0.00    +0.000 OA
ATOM     22  N   UNL     1       1.328   8.945  19.337  0.00  0.00    +0.000 N 
ATOM     23  H   UNL     1       1.242   8.153  19.962  0.00  0.00    +0.000 HD
BRANCH  22  24
ATOM     24  C   UNL     1       0.802  10.251  19.709  0.00  0.00    +0.000 C 
ATOM     25  C   UNL     1      -0.599  10.458  19.143  0.00  0.00    +0.000 C 
ATOM     26  C   UNL     1       0.785  10.455  21.224  0.00  0.00    +0.000 C 
ENDBRANCH  22  24
ENDBRANCH  19  20
ENDBRANCH  18  19
ENDBRANCH   4  18
TORSDOF 9
ENDMDL
MODEL 2
REMARK VINA RESULT:      -6.7      1.491      7.422
REMARK  Name = 
REMARK  15 active torsions:
REMARK  status: ('A' for Active; 'I' for Inactive)
REMARK    1  A    between atoms: C_1  and  S_2
REMARK    2  A    between atoms: S_2  and  C_3
REMARK    3  A    between atoms: C_5  and  C_6
REMARK    4  A    between atoms: C_6  and  O_7
REMARK    5  A    between atoms: O_7  and  C_8
REMARK    6  A    between atoms: N_10  and  C_11
REMARK    7  A    between atoms: C_11  and  C_12
REMARK    8  A    between atoms: C_11  and  C_13
REMARK    9  A    between atoms: C_14  and  C_15
REMARK   10  A    between atoms: C_15  and  O_16
REMARK   11  A    between atoms: O_16  and  C_17
REMARK   12  A    between atoms: N_19  and  C_20
REMARK   13  A    between atoms: C_20  and  C_21
REMARK   14  A    between atoms: C_20  and  C_22
REMARK   15  A    between atoms: N_23  and  C_24
REMARK                            x       y       z     vdW  Elec       q    Type
REMARK                         _______ _______ _______ _____ _____    ______ ____
ROOT
ATOM      1  C   UNL     1       2.709   4.888  19.169  0.00  0.00    +0.000 A 
ATOM      2  N   UNL     1       2.320   6.138  19.211  0.00  0.00    +0.000 NA
ATOM      3  C   UNL     1       3.041   6.784  18.228  0.00  0.00    +0.000 A 
ATOM      4  C   UNL     1       3.849   5.883  17.540  0.00  0.00    +0.000 A 
ATOM      5  N   UNL     1       3.651   4.676  18.189  0.00  0.00    +0.000 N 
ATOM      6  C   UNL     1       4.307   3.409  17.950  0.00  0.00    +0.000 C 
ENDROOT
BRANCH   1   8
ATOM      7  C   UNL     1       0.924   2.820  19.170  0.00  0.00    +0.000 C 
ATOM      8  S   UNL     1       2.150   3.625  20.219  0.00  0.00    +0.000 S 
ENDBRANCH   1   8
BRANCH   3   9
ATOM      9  C   UNL     1       2.877   8.258  18.010  0.00  0.00    +0.000 C 
BRANCH   9  10
ATOM     10  O   UNL     1       1.515   8.658  17.725  0.00  0.00    +0.000 OA
BRANCH  10  11
ATOM     11  C   UNL     1       0.993   9.520  18.624  0.00  0.00    +0.000 C 
ATOM     12  O   UNL     1       1.077   9.413  19.840  0.00  0.00    +0.000 OA
ATOM     13  N   UNL     1       0.401  10.580  17.988  0.00  0.00    +0.000 N 
ATOM     14  H   UNL     1       0.343  10.520  16.980  0.00  0.00    +0.000 HD
BRANCH  13  15
ATOM     15  C   UNL     1      -0.268  11.648  18.717  0.00  0.00    +0.000 C 
ATOM     16  C   UNL     1       0.562  12.928  18.710  0.00  0.00    +0.000 C 
ATOM     17  C   UNL     1      -1.662  11.929  18.158  0.00  0.00    +0.000 C 
ENDBRANCH  13  15
ENDBRANCH  10  11
ENDBRANCH   9  10
ENDBRANCH   3   9
BRANCH   4  18
ATOM     18  C   UNL     1       4.767   6.107  16.384  0.00  0.00    +0.000 C 
BRANCH  18  19
ATOM     19  O   UNL     1       6.127   5.965  16.841  0.00  0.00    +0.000 OA
BRANCH  19  20
ATOM     20  C   UNL     1       6.917   5.197  16.049  0.00  0.00    +0.000 C 
ATOM     21  O   UNL     1       7.857   4.520  16.443  0.00  0.00    +0.000 OA
ATOM     22  N   UNL     1       6.513   5.282  14.744  0.00  0.00    +0.000 N 
ATOM     23  H   UNL     1       5.785   5.953  14.535  0.00  0.00    +0.000 HD
BRANCH  22  24
ATOM     24  C   UNL     1       7.135   4.500  13.684  0.00  0.00    +0.000 C 
ATOM     25  C   UNL     1       6.091   3.702  12.908  0.00  0.00    +0.000 C 
ATOM     26  C   UNL     1       7.942   5.371  12.723  0.00  0.00    +0.000 C 
ENDBRANCH  22  24
ENDBRANCH  19  20
ENDBRANCH  18  19
ENDBRANCH   4  18
TORSDOF 9
ENDMDL
MODEL 3
REMARK VINA RESULT:      -6.7      3.112      7.300
REMARK  Name = 
REMARK  15 active torsions:
REMARK  status: ('A' for Active; 'I' for Inactive)
REMARK    1  A    between atoms: C_1  and  S_2
REMARK    2  A    between atoms: S_2  and  C_3
REMARK    3  A    between atoms: C_5  and  C_6
REMARK    4  A    between atoms: C_6  and  O_7
REMARK    5  A    between atoms: O_7  and  C_8
REMARK    6  A    between atoms: N_10  and  C_11
REMARK    7  A    between atoms: C_11  and  C_12
REMARK    8  A    between atoms: C_11  and  C_13
REMARK    9  A    between atoms: C_14  and  C_15
REMARK   10  A    between atoms: C_15  and  O_16
REMARK   11  A    between atoms: O_16  and  C_17
REMARK   12  A    between atoms: N_19  and  C_20
REMARK   13  A    between atoms: C_20  and  C_21
REMARK   14  A    between atoms: C_20  and  C_22
REMARK   15  A    between atoms: N_23  and  C_24
REMARK                            x       y       z     vdW  Elec       q    Type
REMARK                         _______ _______ _______ _____ _____    ______ ____
ROOT
ATOM      1  C   UNL     1       3.664   6.511  17.617  0.00  0.00    +0.000 A 
ATOM      2  N   UNL     1       3.074   5.343  17.565  0.00  0.00    +0.000 NA
ATOM      3  C   UNL     1       4.059   4.445  17.212  0.00  0.00    +0.000 A 
ATOM      4  C   UNL     1       5.290   5.086  17.102  0.00  0.00    +0.000 A 
ATOM      5  N   UNL     1       5.005   6.422  17.326  0.00  0.00    +0.000 N 
ATOM      6  C   UNL     1       5.898   7.557  17.247  0.00  0.00    +0.000 C 
ENDROOT
BRANCH   1   8
ATOM      7  C   UNL     1       2.140   7.643  19.582  0.00  0.00    +0.000 C 
ATOM      8  S   UNL     1       2.882   8.016  17.982  0.00  0.00    +0.000 S 
ENDBRANCH   1   8
BRANCH   3   9
ATOM      9  C   UNL     1       3.733   2.994  17.021  0.00  0.00    +0.000 C 
BRANCH   9  10
ATOM     10  O   UNL     1       4.161   2.150  18.117  0.00  0.00    +0.000 OA
BRANCH  10  11
ATOM     11  C   UNL     1       3.978   2.696  19.339  0.00  0.00    +0.000 C 
ATOM     12  O   UNL     1       4.869   2.993  20.123  0.00  0.00    +0.000 OA
ATOM     13  N   UNL     1       2.648   2.936  19.565  0.00  0.00    +0.000 N 
ATOM     14  H   UNL     1       2.006   2.587  18.866  0.00  0.00    +0.000 HD
BRANCH  13  15
ATOM     15  C   UNL     1       2.163   3.497  20.818  0.00  0.00    +0.000 C 
ATOM     16  C   UNL     1       0.986   4.439  20.585  0.00  0.00    +0.000 C 
ATOM     17  C   UNL     1       1.766   2.406  21.811  0.00  0.00    +0.000 C 
ENDBRANCH  13  15
ENDBRANCH  10  11
ENDBRANCH   9  10
ENDBRANCH   3   9
BRANCH   4  18
ATOM     18  C   UNL     1       6.638   4.527  16.783  0.00  0.00    +0.000 C 
BRANCH  18  19
ATOM     19  O   UNL     1       6.496   3.557  15.725  0.00  0.00    +0.000 OA
BRANCH  19  20
ATOM     20  C   UNL     1       6.528   4.075  14.470  0.00  0.00    +0.000 C 
ATOM     21  O   UNL     1       6.994   5.166  14.175  0.00  0.00    +0.000 OA
ATOM     22  N   UNL     1       5.968   3.200  13.578  0.00  0.00    +0.000 N 
ATOM     23  H   UNL     1       5.530   2.373  13.963  0.00  0.00    +0.000 HD
BRANCH  22  24
ATOM     24  C   UNL     1       5.938   3.464  12.146  0.00  0.00    +0.000 C 
ATOM     25  C   UNL     1       6.962   2.607  11.409  0.00  0.00    +0.000 C 
ATOM     26  C   UNL     1       4.549   3.240  11.549  0.00  0.00    +0.000 C 
ENDBRANCH  22  24
ENDBRANCH  19  20
ENDBRANCH  18  19
ENDBRANCH   4  18
TORSDOF 9
ENDMDL
MODEL 4
REMARK VINA RESULT:      -6.7      2.966      5.969
REMARK  Name = 
REMARK  15 active torsions:
REMARK  status: ('A' for Active; 'I' for Inactive)
REMARK    1  A    between atoms: C_1  and  S_2
REMARK    2  A    between atoms: S_2  and  C_3
REMARK    3  A    between atoms: C_5  and  C_6
REMARK    4  A    between atoms: C_6  and  O_7
REMARK    5  A    between atoms: O_7  and  C_8
REMARK    6  A    between atoms: N_10  and  C_11
REMARK    7  A    between atoms: C_11  and  C_12
REMARK    8  A    between atoms: C_11  and  C_13
REMARK    9  A    between atoms: C_14  and  C_15
REMARK   10  A    between atoms: C_15  and  O_16
REMARK   11  A    between atoms: O_16  and  C_17
REMARK   12  A    between atoms: N_19  and  C_20
REMARK   13  A    between atoms: C_20  and  C_21
REMARK   14  A    between atoms: C_20  and  C_22
REMARK   15  A    between atoms: N_23  and  C_24
REMARK                            x       y       z     vdW  Elec       q    Type
REMARK                         _______ _______ _______ _____ _____    ______ ____
ROOT
ATOM      1  C   UNL     1       1.676   9.065  18.846  0.00  0.00    +0.000 A 
ATOM      2  N   UNL     1       2.411   8.428  17.970  0.00  0.00    +0.000 NA
ATOM      3  C   UNL     1       2.735   7.225  18.561  0.00  0.00    +0.000 A 
ATOM      4  C   UNL     1       2.131   7.115  19.811  0.00  0.00    +0.000 A 
ATOM      5  N   UNL     1       1.488   8.327  19.992  0.00  0.00    +0.000 N 
ATOM      6  C   UNL     1       0.771   8.799  21.156  0.00  0.00    +0.000 C 
ENDROOT
BRANCH   1   8
ATOM      7  C   UNL     1      -0.672  10.273  18.144  0.00  0.00    +0.000 C 
ATOM      8  S   UNL     1       1.019  10.658  18.639  0.00  0.00    +0.000 S 
ENDBRANCH   1   8
BRANCH   3   9
ATOM      9  C   UNL     1       3.612   6.239  17.849  0.00  0.00    +0.000 C 
BRANCH   9  10
ATOM     10  O   UNL     1       4.127   6.722  16.585  0.00  0.00    +0.000 OA
BRANCH  10  11
ATOM     11  C   UNL     1       5.465   6.605  16.452  0.00  0.00    +0.000 C 
ATOM     12  O   UNL     1       6.042   6.101  15.498  0.00  0.00    +0.000 OA
ATOM     13  N   UNL     1       6.107   7.191  17.512  0.00  0.00    +0.000 N 
ATOM     14  H   UNL     1       5.518   7.517  18.267  0.00  0.00    +0.000 HD
BRANCH  13  15
ATOM     15  C   UNL     1       7.558   7.186  17.640  0.00  0.00    +0.000 C 
ATOM     16  C   UNL     1       8.098   8.594  17.873  0.00  0.00    +0.000 C 
ATOM     17  C   UNL     1       8.026   6.258  18.760  0.00  0.00    +0.000 C 
ENDBRANCH  13  15
ENDBRANCH  10  11
ENDBRANCH   9  10
ENDBRANCH   3   9
BRANCH   4  18
ATOM     18  C   UNL     1       2.159   5.991  20.793  0.00  0.00    +0.000 C 
BRANCH  18  19
ATOM     19  O   UNL     1       1.219   4.983  20.367  0.00  0.00    +0.000 OA
BRANCH  19  20
ATOM     20  C   UNL     1       1.646   3.704  20.521  0.00  0.00    +0.000 C 
ATOM     21  O   UNL     1       1.210   2.916  21.349  0.00  0.00    +0.000 OA
ATOM     22  N   UNL     1       2.633   3.417  19.617  0.00  0.00    +0.000 N 
ATOM     23  H   UNL     1       2.972   4.186  19.053  0.00  0.00    +0.000 HD
BRANCH  22  24
ATOM     24  C   UNL     1       3.222   2.090  19.504  0.00  0.00    +0.000 C 
ATOM     25  C   UNL     1       3.455   1.716  18.044  0.00  0.00    +0.000 C 
ATOM     26  C   UNL     1       4.531   1.974  20.284  0.00  0.00    +0.000 C 
ENDBRANCH  22  24
ENDBRANCH  19  20
ENDBRANCH  18  19
ENDBRANCH   4  18
TORSDOF 9
ENDMDL
MODEL 5
REMARK VINA RESULT:      -6.6      1.300      7.375
REMARK  Name = 
REMARK  15 active torsions:
REMARK  status: ('A' for Active; 'I' for Inactive)
REMARK    1  A    between atoms: C_1  and  S_2
REMARK    2  A    between atoms: S_2  and  C_3
REMARK    3  A    between atoms: C_5  and  C_6
REMARK    4  A    between atoms: C_6  and  O_7
REMARK    5  A    between atoms: O_7  and  C_8
REMARK    6  A    between atoms: N_10  and  C_11
REMARK    7  A    between atoms: C_11  and  C_12
REMARK    8  A    between atoms: C_11  and  C_13
REMARK    9  A    between atoms: C_14  and  C_15
REMARK   10  A    between atoms: C_15  and  O_16
REMARK   11  A    between atoms: O_16  and  C_17
REMARK   12  A    between atoms: N_19  and  C_20
REMARK   13  A    between atoms: C_20  and  C_21
REMARK   14  A    between atoms: C_20  and  C_22
REMARK   15  A    between atoms: N_23  and  C_24
REMARK                            x       y       z     vdW  Elec       q    Type
REMARK                         _______ _______ _______ _____ _____    ______ ____
ROOT
ATOM      1  C   UNL     1       2.520   4.702  19.555  0.00  0.00    +0.000 A 
ATOM      2  N   UNL     1       2.153   5.893  19.155  0.00  0.00    +0.000 NA
ATOM      3  C   UNL     1       3.213   6.382  18.420  0.00  0.00    +0.000 A 
ATOM      4  C   UNL     1       4.228   5.432  18.332  0.00  0.00    +0.000 A 
ATOM      5  N   UNL     1       3.778   4.374  19.104  0.00  0.00    +0.000 N 
ATOM      6  C   UNL     1       4.469   3.148  19.439  0.00  0.00    +0.000 C 
ENDROOT
BRANCH   1   8
ATOM      7  C   UNL     1       0.771   2.618  19.306  0.00  0.00    +0.000 C 
ATOM      8  S   UNL     1       1.577   3.641  20.553  0.00  0.00    +0.000 S 
ENDBRANCH   1   8
BRANCH   3   9
ATOM      9  C   UNL     1       3.158   7.758  17.828  0.00  0.00    +0.000 C 
BRANCH   9  10
ATOM     10  O   UNL     1       1.823   8.314  17.766  0.00  0.00    +0.000 OA
BRANCH  10  11
ATOM     11  C   UNL     1       1.641   9.402  18.545  0.00  0.00    +0.000 C 
ATOM     12  O   UNL     1       1.856  10.558  18.209  0.00  0.00    +0.000 OA
ATOM     13  N   UNL     1       1.115   9.043  19.759  0.00  0.00    +0.000 N 
ATOM     14  H   UNL     1       1.043   8.050  19.938  0.00  0.00    +0.000 HD
BRANCH  13  15
ATOM     15  C   UNL     1       0.843  10.017  20.806  0.00  0.00    +0.000 C 
ATOM     16  C   UNL     1      -0.550  10.620  20.654  0.00  0.00    +0.000 C 
ATOM     17  C   UNL     1       0.997   9.410  22.199  0.00  0.00    +0.000 C 
ENDBRANCH  13  15
ENDBRANCH  10  11
ENDBRANCH   9  10
ENDBRANCH   3   9
BRANCH   4  18
ATOM     18  C   UNL     1       5.537   5.490  17.617  0.00  0.00    +0.000 C 
BRANCH  18  19
ATOM     19  O   UNL     1       5.293   5.376  16.200  0.00  0.00    +0.000 OA
BRANCH  19  20
ATOM     20  C   UNL     1       6.323   4.859  15.484  0.00  0.00    +0.000 C 
ATOM     21  O   UNL     1       7.430   4.602  15.936  0.00  0.00    +0.000 OA
ATOM     22  N   UNL     1       5.949   4.660  14.182  0.00  0.00    +0.000 N 
ATOM     23  H   UNL     1       5.036   5.004  13.912  0.00  0.00    +0.000 HD
BRANCH  22  24
ATOM     24  C   UNL     1       6.834   4.041  13.205  0.00  0.00    +0.000 C 
ATOM     25  C   UNL     1       6.052   3.148  12.246  0.00  0.00    +0.000 C 
ATOM     26  C   UNL     1       7.632   5.078  12.415  0.00  0.00    +0.000 C 
ENDBRANCH  22  24
ENDBRANCH  19  20
ENDBRANCH  18  19
ENDBRANCH   4  18
TORSDOF 9
ENDMDL
MODEL 6
REMARK VINA RESULT:      -6.6      1.666      7.263
REMARK  Name = 
REMARK  15 active torsions:
REMARK  status: ('A' for Active; 'I' for Inactive)
REMARK    1  A    between atoms: C_1  and  S_2
REMARK    2  A    between atoms: S_2  and  C_3
REMARK    3  A    between atoms: C_5  and  C_6
REMARK    4  A    between atoms: C_6  and  O_7
REMARK    5  A    between atoms: O_7  and  C_8
REMARK    6  A    between atoms: N_10  and  C_11
REMARK    7  A    between atoms: C_11  and  C_12
REMARK    8  A    between atoms: C_11  and  C_13
REMARK    9  A    between atoms: C_14  and  C_15
REMARK   10  A    between atoms: C_15  and  O_16
REMARK   11  A    between atoms: O_16  and  C_17
REMARK   12  A    between atoms: N_19  and  C_20
REMARK   13  A    between atoms: C_20  and  C_21
REMARK   14  A    between atoms: C_20  and  C_22
REMARK   15  A    between atoms: N_23  and  C_24
REMARK                            x       y       z     vdW  Elec       q    Type
REMARK                         _______ _______ _______ _____ _____    ______ ____
ROOT
ATOM      1  C   UNL     1       2.060   4.292  19.207  0.00  0.00    +0.000 A 
ATOM      2  N   UNL     1       2.051   5.593  19.352  0.00  0.00    +0.000 NA
ATOM      3  C   UNL     1       2.944   6.076  18.418  0.00  0.00    +0.000 A 
ATOM      4  C   UNL     1       3.465   5.036  17.653  0.00  0.00    +0.000 A 
ATOM      5  N   UNL     1       2.914   3.892  18.205  0.00  0.00    +0.000 N 
ATOM      6  C   UNL     1       3.176   2.512  17.861  0.00  0.00    +0.000 C 
ENDROOT
BRANCH   1   8
ATOM      7  C   UNL     1       2.251   2.909  21.556  0.00  0.00    +0.000 C 
ATOM      8  S   UNL     1       1.141   3.168  20.158  0.00  0.00    +0.000 S 
ENDBRANCH   1   8
BRANCH   3   9
ATOM      9  C   UNL     1       3.220   7.546  18.319  0.00  0.00    +0.000 C 
BRANCH   9  10
ATOM     10  O   UNL     1       2.151   8.301  17.701  0.00  0.00    +0.000 OA
BRANCH  10  11
ATOM     11  C   UNL     1       1.397   9.007  18.571  0.00  0.00    +0.000 C 
ATOM     12  O   UNL     1       1.463   8.930  19.791  0.00  0.00    +0.000 OA
ATOM     13  N   UNL     1       0.580   9.881  17.903  0.00  0.00    +0.000 N 
ATOM     14  H   UNL     1       0.573   9.803  16.894  0.00  0.00    +0.000 HD
BRANCH  13  15
ATOM     15  C   UNL     1      -0.361  10.748  18.596  0.00  0.00    +0.000 C 
ATOM     16  C   UNL     1       0.075  12.208  18.526  0.00  0.00    +0.000 C 
ATOM     17  C   UNL     1      -1.779  10.603  18.044  0.00  0.00    +0.000 C 
ENDBRANCH  13  15
ENDBRANCH  10  11
ENDBRANCH   9  10
ENDBRANCH   3   9
BRANCH   4  18
ATOM     18  C   UNL     1       4.425   5.073  16.511  0.00  0.00    +0.000 C 
BRANCH  18  19
ATOM     19  O   UNL     1       5.716   4.633  16.980  0.00  0.00    +0.000 OA
BRANCH  19  20
ATOM     20  C   UNL     1       6.647   4.460  16.008  0.00  0.00    +0.000 C 
ATOM     21  O   UNL     1       7.857   4.472  16.187  0.00  0.00    +0.000 OA
ATOM     22  N   UNL     1       6.042   4.266  14.795  0.00  0.00    +0.000 N 
ATOM     23  H   UNL     1       5.037   4.377  14.764  0.00  0.00    +0.000 HD
BRANCH  22  24
ATOM     24  C   UNL     1       6.800   3.977  13.585  0.00  0.00    +0.000 C 
ATOM     25  C   UNL     1       5.898   3.402  12.498  0.00  0.00    +0.000 C 
ATOM     26  C   UNL     1       7.530   5.211  13.055  0.00  0.00    +0.000 C 
ENDBRANCH  22  24
ENDBRANCH  19  20
ENDBRANCH  18  19
ENDBRANCH   4  18
TORSDOF 9
ENDMDL
MODEL 7
REMARK VINA RESULT:      -6.6      2.505      6.483
REMARK  Name = 
REMARK  15 active torsions:
REMARK  status: ('A' for Active; 'I' for Inactive)
REMARK    1  A    between atoms: C_1  and  S_2
REMARK    2  A    between atoms: S_2  and  C_3
REMARK    3  A    between atoms: C_5  and  C_6
REMARK    4  A    between atoms: C_6  and  O_7
REMARK    5  A    between atoms: O_7  and  C_8
REMARK    6  A    between atoms: N_10  and  C_11
REMARK    7  A    between atoms: C_11  and  C_12
REMARK    8  A    between atoms: C_11  and  C_13
REMARK    9  A    between atoms: C_14  and  C_15
REMARK   10  A    between atoms: C_15  and  O_16
REMARK   11  A    between atoms: O_16  and  C_17
REMARK   12  A    between atoms: N_19  and  C_20
REMARK   13  A    between atoms: C_20  and  C_21
REMARK   14  A    between atoms: C_20  and  C_22
REMARK   15  A    between atoms: N_23  and  C_24
REMARK                            x       y       z     vdW  Elec       q    Type
REMARK                         _______ _______ _______ _____ _____    ______ ____
ROOT
ATOM      1  C   UNL     1       6.135   5.410  15.842  0.00  0.00    +0.000 A 
ATOM      2  N   UNL     1       4.943   5.953  15.853  0.00  0.00    +0.000 NA
ATOM      3  C   UNL     1       4.530   5.917  17.168  0.00  0.00    +0.000 A 
ATOM      4  C   UNL     1       5.527   5.383  17.980  0.00  0.00    +0.000 A 
ATOM      5  N   UNL     1       6.534   5.025  17.101  0.00  0.00    +0.000 N 
ATOM      6  C   UNL     1       7.777   4.342  17.388  0.00  0.00    +0.000 C 
ENDROOT
BRANCH   1   8
ATOM      7  C   UNL     1       6.185   3.869  13.586  0.00  0.00    +0.000 C 
ATOM      8  S   UNL     1       7.115   5.162  14.432  0.00  0.00    +0.000 S 
ENDBRANCH   1   8
BRANCH   3   9
ATOM      9  C   UNL     1       3.176   6.431  17.554  0.00  0.00    +0.000 C 
BRANCH   9  10
ATOM     10  O   UNL     1       3.094   7.875  17.612  0.00  0.00    +0.000 OA
BRANCH  10  11
ATOM     11  C   UNL     1       2.164   8.341  18.473  0.00  0.00    +0.000 C 
ATOM     12  O   UNL     1       1.975   7.922  19.607  0.00  0.00    +0.000 OA
ATOM     13  N   UNL     1       1.492   9.404  17.928  0.00  0.00    +0.000 N 
ATOM     14  H   UNL     1       1.698   9.613  16.960  0.00  0.00    +0.000 HD
BRANCH  13  15
ATOM     15  C   UNL     1       0.414  10.084  18.631  0.00  0.00    +0.000 C 
ATOM     16  C   UNL     1       0.791  11.524  18.965  0.00  0.00    +0.000 C 
ATOM     17  C   UNL     1      -0.888  10.060  17.832  0.00  0.00    +0.000 C 
ENDBRANCH  13  15
ENDBRANCH  10  11
ENDBRANCH   9  10
ENDBRANCH   3   9
BRANCH   4  18
ATOM     18  C   UNL     1       5.553   5.183  19.460  0.00  0.00    +0.000 C 
BRANCH  18  19
ATOM     19  O   UNL     1       5.465   3.770  19.735  0.00  0.00    +0.000 OA
BRANCH  19  20
ATOM     20  C   UNL     1       4.241   3.223  19.518  0.00  0.00    +0.000 C 
ATOM     21  O   UNL     1       3.999   2.355  18.691  0.00  0.00    +0.000 OA
ATOM     22  N   UNL     1       3.315   3.776  20.360  0.00  0.00    +0.000 N 
ATOM     23  H   UNL     1       3.622   4.554  20.930  0.00  0.00    +0.000 HD
BRANCH  22  24
ATOM     24  C   UNL     1       1.931   3.322  20.400  0.00  0.00    +0.000 C 
ATOM     25  C   UNL     1       1.644   2.553  21.686  0.00  0.00    +0.000 C 
ATOM     26  C   UNL     1       0.942   4.477  20.254  0.00  0.00    +0.000 C 
ENDBRANCH  22  24
ENDBRANCH  19  20
ENDBRANCH  18  19
ENDBRANCH   4  18
TORSDOF 9
ENDMDL
MODEL 8
REMARK VINA RESULT:      -6.6      0.998      1.061
REMARK  Name = 
REMARK  15 active torsions:
REMARK  status: ('A' for Active; 'I' for Inactive)
REMARK    1  A    between atoms: C_1  and  S_2
REMARK    2  A    between atoms: S_2  and  C_3
REMARK    3  A    between atoms: C_5  and  C_6
REMARK    4  A    between atoms: C_6  and  O_7
REMARK    5  A    between atoms: O_7  and  C_8
REMARK    6  A    between atoms: N_10  and  C_11
REMARK    7  A    between atoms: C_11  and  C_12
REMARK    8  A    between atoms: C_11  and  C_13
REMARK    9  A    between atoms: C_14  and  C_15
REMARK   10  A    between atoms: C_15  and  O_16
REMARK   11  A    between atoms: O_16  and  C_17
REMARK   12  A    between atoms: N_19  and  C_20
REMARK   13  A    between atoms: C_20  and  C_21
REMARK   14  A    between atoms: C_20  and  C_22
REMARK   15  A    between atoms: N_23  and  C_24
REMARK                            x       y       z     vdW  Elec       q    Type
REMARK                         _______ _______ _______ _____ _____    ______ ____
ROOT
ATOM      1  C   UNL     1       3.514   3.481  18.723  0.00  0.00    +0.000 A 
ATOM      2  N   UNL     1       4.767   3.726  19.016  0.00  0.00    +0.000 NA
ATOM      3  C   UNL     1       4.997   5.022  18.605  0.00  0.00    +0.000 A 
ATOM      4  C   UNL     1       3.832   5.590  18.098  0.00  0.00    +0.000 A 
ATOM      5  N   UNL     1       2.900   4.567  18.145  0.00  0.00    +0.000 N 
ATOM      6  C   UNL     1       1.537   4.570  17.661  0.00  0.00    +0.000 C 
ENDROOT
BRANCH   1   8
ATOM      7  C   UNL     1       1.751   2.354  20.480  0.00  0.00    +0.000 C 
ATOM      8  S   UNL     1       2.695   1.975  18.991  0.00  0.00    +0.000 S 
ENDBRANCH   1   8
BRANCH   3   9
ATOM      9  C   UNL     1       6.357   5.637  18.753  0.00  0.00    +0.000 C 
BRANCH   9  10
ATOM     10  O   UNL     1       6.907   6.141  17.513  0.00  0.00    +0.000 OA
BRANCH  10  11
ATOM     11  C   UNL     1       7.287   5.178  16.645  0.00  0.00    +0.000 C 
ATOM     12  O   UNL     1       7.994   4.218  16.917  0.00  0.00    +0.000 OA
ATOM     13  N   UNL     1       6.716   5.385  15.416  0.00  0.00    +0.000 N 
ATOM     14  H   UNL     1       6.203   6.249  15.302  0.00  0.00    +0.000 HD
BRANCH  13  15
ATOM     15  C   UNL     1       6.978   4.510  14.282  0.00  0.00    +0.000 C 
ATOM     16  C   UNL     1       5.679   3.993  13.671  0.00  0.00    +0.000 C 
ATOM     17  C   UNL     1       7.815   5.207  13.210  0.00  0.00    +0.000 C 
ENDBRANCH  13  15
ENDBRANCH  10  11
ENDBRANCH   9  10
ENDBRANCH   3   9
BRANCH   4  18
ATOM     18  C   UNL     1       3.584   6.967  17.575  0.00  0.00    +0.000 C 
BRANCH  18  19
ATOM     19  O   UNL     1       3.130   7.798  18.663  0.00  0.00    +0.000 OA
BRANCH  19  20
ATOM     20  C   UNL     1       2.229   8.751  18.314  0.00  0.00    +0.000 C 
ATOM     21  O   UNL     1       2.126   9.243  17.199  0.00  0.00    +0.000 OA
ATOM     22  N   UNL     1       1.445   9.083  19.386  0.00  0.00    +0.000 N 
ATOM     23  H   UNL     1       1.695   8.675  20.278  0.00  0.00    +0.000 HD
BRANCH  22  24
ATOM     24  C   UNL     1       0.340  10.026  19.279  0.00  0.00    +0.000 C 
ATOM     25  C   UNL     1      -0.675   9.809  20.397  0.00  0.00    +0.000 C 
ATOM     26  C   UNL     1       0.820  11.477  19.287  0.00  0.00    +0.000 C 
ENDBRANCH  22  24
ENDBRANCH  19  20
ENDBRANCH  18  19
ENDBRANCH   4  18
TORSDOF 9
ENDMDL
MODEL 9
REMARK VINA RESULT:      -6.5      1.289      7.156
REMARK  Name = 
REMARK  15 active torsions:
REMARK  status: ('A' for Active; 'I' for Inactive)
REMARK    1  A    between atoms: C_1  and  S_2
REMARK    2  A    between atoms: S_2  and  C_3
REMARK    3  A    between atoms: C_5  and  C_6
REMARK    4  A    between atoms: C_6  and  O_7
REMARK    5  A    between atoms: O_7  and  C_8
REMARK    6  A    between atoms: N_10  and  C_11
REMARK    7  A    between atoms: C_11  and  C_12
REMARK    8  A    between atoms: C_11  and  C_13
REMARK    9  A    between atoms: C_14  and  C_15
REMARK   10  A    between atoms: C_15  and  O_16
REMARK   11  A    between atoms: O_16  and  C_17
REMARK   12  A    between atoms: N_19  and  C_20
REMARK   13  A    between atoms: C_20  and  C_21
REMARK   14  A    between atoms: C_20  and  C_22
REMARK   15  A    between atoms: N_23  and  C_24
REMARK                            x       y       z     vdW  Elec       q    Type
REMARK                         _______ _______ _______ _____ _____    ______ ____
ROOT
ATOM      1  C   UNL     1       2.534   4.389  19.516  0.00  0.00    +0.000 A 
ATOM      2  N   UNL     1       2.220   5.583  19.080  0.00  0.00    +0.000 NA
ATOM      3  C   UNL     1       3.362   6.072  18.483  0.00  0.00    +0.000 A 
ATOM      4  C   UNL     1       4.378   5.120  18.514  0.00  0.00    +0.000 A 
ATOM      5  N   UNL     1       3.836   4.060  19.220  0.00  0.00    +0.000 N 
ATOM      6  C   UNL     1       4.479   2.831  19.629  0.00  0.00    +0.000 C 
ENDROOT
BRANCH   1   8
ATOM      7  C   UNL     1       0.778   2.350  19.039  0.00  0.00    +0.000 C 
ATOM      8  S   UNL     1       1.474   3.326  20.387  0.00  0.00    +0.000 S 
ENDBRANCH   1   8
BRANCH   3   9
ATOM      9  C   UNL     1       3.383   7.451  17.895  0.00  0.00    +0.000 C 
BRANCH   9  10
ATOM     10  O   UNL     1       2.070   7.967  17.571  0.00  0.00    +0.000 OA
BRANCH  10  11
ATOM     11  C   UNL     1       1.803   9.178  18.106  0.00  0.00    +0.000 C 
ATOM     12  O   UNL     1       2.074  10.255  17.593  0.00  0.00    +0.000 OA
ATOM     13  N   UNL     1       1.123   9.043  19.288  0.00  0.00    +0.000 N 
ATOM     14  H   UNL     1       1.016   8.099  19.637  0.00  0.00    +0.000 HD
BRANCH  13  15
ATOM     15  C   UNL     1       0.733  10.191  20.094  0.00  0.00    +0.000 C 
ATOM     16  C   UNL     1      -0.698  10.623  19.787  0.00  0.00    +0.000 C 
ATOM     17  C   UNL     1       0.880   9.911  21.589  0.00  0.00    +0.000 C 
ENDBRANCH  13  15
ENDBRANCH  10  11
ENDBRANCH   9  10
ENDBRANCH   3   9
BRANCH   4  18
ATOM     18  C   UNL     1       5.765   5.179  17.963  0.00  0.00    +0.000 C 
BRANCH  18  19
ATOM     19  O   UNL     1       5.844   4.299  16.822  0.00  0.00    +0.000 OA
BRANCH  19  20
ATOM     20  C   UNL     1       5.877   4.928  15.619  0.00  0.00    +0.000 C 
ATOM     21  O   UNL     1       5.606   6.107  15.438  0.00  0.00    +0.000 OA
ATOM     22  N   UNL     1       6.260   4.057  14.635  0.00  0.00    +0.000 N 
ATOM     23  H   UNL     1       6.361   3.086  14.899  0.00  0.00    +0.000 HD
BRANCH  22  24
ATOM     24  C   UNL     1       6.456   4.481  13.255  0.00  0.00    +0.000 C 
ATOM     25  C   UNL     1       7.847   5.073  13.056  0.00  0.00    +0.000 C 
ATOM     26  C   UNL     1       6.231   3.338  12.265  0.00  0.00    +0.000 C 
ENDBRANCH  22  24
ENDBRANCH  19  20
ENDBRANCH  18  19
ENDBRANCH   4  18
TORSDOF 9
ENDMDL
