MODEL 1
REMARK VINA RESULT:      -8.9      0.000      0.000
REMARK  Name = 
REMARK  7 active torsions:
REMARK  status: ('A' for Active; 'I' for Inactive)
REMARK    1  A    between atoms: C_2  and  O_3
REMARK    2  A    between atoms: C_2  and  C_4
REMARK    3  A    between atoms: C_8  and  N_9
REMARK    4  A    between atoms: N_9  and  C_10
REMARK    5  A    between atoms: C_10  and  N_12
REMARK    6  A    between atoms: N_12  and  N_13
REMARK    7  A    between atoms: C_14  and  C_15
REMARK                            x       y       z     vdW  Elec       q    Type
REMARK                         _______ _______ _______ _____ _____    ______ ____
ROOT
ATOM      1  C   UNL     1       6.056   5.808  16.697  0.00  0.00    +0.000 C 
ATOM      2  S   UNL     1       6.634   4.658  15.620  0.00  0.00    +0.000 S 
ENDROOT
BRANCH   1   3
ATOM      3  N   UNL     1       4.607   6.192  16.884  0.00  0.00    +0.000 N 
ATOM      4  H   UNL     1       4.171   6.860  16.246  0.00  0.00    +0.000 HD
BRANCH   3   9
ATOM      5  C   UNL     1       1.989   3.844  18.676  0.00  0.00    +0.000 A 
ATOM      6  C   UNL     1       1.609   4.607  19.806  0.00  0.00    +0.000 A 
ATOM      7  C   UNL     1       2.170   5.899  19.976  0.00  0.00    +0.000 A 
ATOM      8  C   UNL     1       3.124   6.425  19.049  0.00  0.00    +0.000 A 
ATOM      9  C   UNL     1       3.591   5.687  17.903  0.00  0.00    +0.000 A 
ATOM     10  C   UNL     1       2.966   4.417  17.808  0.00  0.00    +0.000 A 
BRANCH   5  12
ATOM     11  O   UNL     1       0.317   2.223  18.569  0.00  0.00    +0.000 OA
ATOM     12  C   UNL     1       1.467   2.538  18.342  0.00  0.00    +0.000 C 
BRANCH  12  13
ATOM     13  O   UNL     1       2.390   1.678  17.864  0.00  0.00    +0.000 OA
ATOM     14  H   UNL     1       2.079   0.781  17.655  0.00  0.00    +0.000 HD
ENDBRANCH  12  13
ENDBRANCH   5  12
ENDBRANCH   3   9
ENDBRANCH   1   3
BRANCH   1  15
ATOM     15  N   UNL     1       7.053   6.505  17.574  0.00  0.00    +0.000 N 
ATOM     16  H   UNL     1       7.470   6.009  18.353  0.00  0.00    +0.000 HD
BRANCH  15  17
ATOM     17  N   UNL     1       7.488   8.103  17.405  0.00  0.00    +0.000 NA
ATOM     18  C   UNL     1       8.463   8.689  18.171  0.00  0.00    +0.000 C 
BRANCH  18  19
ATOM     19  C   UNL     1       8.874  10.363  18.391  0.00  0.00    +0.000 A 
ATOM     20  C   UNL     1       9.612  10.362  19.559  0.00  0.00    +0.000 A 
ATOM     21  N   UNL     1       9.075  11.532  20.017  0.00  0.00    +0.000 N 
ATOM     22  C   UNL     1       9.695  12.446  19.184  0.00  0.00    +0.000 A 
ATOM     23  C   UNL     1      10.209  13.713  19.803  0.00  0.00    +0.000 A 
ATOM     24  C   UNL     1      10.975  14.684  19.253  0.00  0.00    +0.000 A 
ATOM     25  C   UNL     1      11.246  14.293  17.990  0.00  0.00    +0.000 A 
ATOM     26  C   UNL     1      10.616  13.003  17.374  0.00  0.00    +0.000 A 
ATOM     27  C   UNL     1       9.798  11.761  17.832  0.00  0.00    +0.000 A 
ATOM     28  H   UNL     1       8.099  11.714  20.192  0.00  0.00    +0.000 HD
ENDBRANCH  18  19
ENDBRANCH  15  17
ENDBRANCH   1  15
TORSDOF 7
ENDMDL
MODEL 2
REMARK VINA RESULT:      -8.5      1.404      1.602
REMARK  Name = 
REMARK  7 active torsions:
REMARK  status: ('A' for Active; 'I' for Inactive)
REMARK    1  A    between atoms: C_2  and  O_3
REMARK    2  A    between atoms: C_2  and  C_4
REMARK    3  A    between atoms: C_8  and  N_9
REMARK    4  A    between atoms: N_9  and  C_10
REMARK    5  A    between atoms: C_10  and  N_12
REMARK    6  A    between atoms: N_12  and  N_13
REMARK    7  A    between atoms: C_14  and  C_15
REMARK                            x       y       z     vdW  Elec       q    Type
REMARK                         _______ _______ _______ _____ _____    ______ ____
ROOT
ATOM      1  C   UNL     1       6.177   5.721  16.225  0.00  0.00    +0.000 C 
ATOM      2  S   UNL     1       6.986   5.105  14.890  0.00  0.00    +0.000 S 
ENDROOT
BRANCH   1   3
ATOM      3  N   UNL     1       4.691   5.621  16.479  0.00  0.00    +0.000 N 
ATOM      4  H   UNL     1       4.032   6.003  15.800  0.00  0.00    +0.000 HD
BRANCH   3   9
ATOM      5  C   UNL     1       3.803   3.079  19.365  0.00  0.00    +0.000 A 
ATOM      6  C   UNL     1       2.589   3.598  19.874  0.00  0.00    +0.000 A 
ATOM      7  C   UNL     1       2.032   4.751  19.264  0.00  0.00    +0.000 A 
ATOM      8  C   UNL     1       2.685   5.407  18.174  0.00  0.00    +0.000 A 
ATOM      9  C   UNL     1       3.945   4.963  17.635  0.00  0.00    +0.000 A 
ATOM     10  C   UNL     1       4.416   3.799  18.296  0.00  0.00    +0.000 A 
BRANCH   5  12
ATOM     11  O   UNL     1       5.014   1.843  20.928  0.00  0.00    +0.000 OA
ATOM     12  C   UNL     1       4.464   1.887  19.847  0.00  0.00    +0.000 C 
BRANCH  12  13
ATOM     13  O   UNL     1       4.508   0.877  18.952  0.00  0.00    +0.000 OA
ATOM     14  H   UNL     1       5.379   0.670  18.576  0.00  0.00    +0.000 HD
ENDBRANCH  12  13
ENDBRANCH   5  12
ENDBRANCH   3   9
ENDBRANCH   1   3
BRANCH   1  15
ATOM     15  N   UNL     1       6.993   6.412  17.276  0.00  0.00    +0.000 N 
ATOM     16  H   UNL     1       7.198   5.935  18.147  0.00  0.00    +0.000 HD
BRANCH  15  17
ATOM     17  N   UNL     1       7.544   7.978  17.151  0.00  0.00    +0.000 NA
ATOM     18  C   UNL     1       8.374   8.547  18.083  0.00  0.00    +0.000 C 
BRANCH  18  19
ATOM     19  C   UNL     1       8.826  10.206  18.330  0.00  0.00    +0.000 A 
ATOM     20  C   UNL     1       9.488  10.182  19.543  0.00  0.00    +0.000 A 
ATOM     21  N   UNL     1       8.962  11.370  19.966  0.00  0.00    +0.000 N 
ATOM     22  C   UNL     1       9.665  12.261  19.175  0.00  0.00    +0.000 A 
ATOM     23  C   UNL     1      10.181  13.512  19.827  0.00  0.00    +0.000 A 
ATOM     24  C   UNL     1      11.013  14.455  19.327  0.00  0.00    +0.000 A 
ATOM     25  C   UNL     1      11.351  14.053  18.084  0.00  0.00    +0.000 A 
ATOM     26  C   UNL     1      10.719  12.784  17.428  0.00  0.00    +0.000 A 
ATOM     27  C   UNL     1       9.832  11.571  17.832  0.00  0.00    +0.000 A 
ATOM     28  H   UNL     1       7.984  11.586  20.078  0.00  0.00    +0.000 HD
ENDBRANCH  18  19
ENDBRANCH  15  17
ENDBRANCH   1  15
TORSDOF 7
ENDMDL
MODEL 3
REMARK VINA RESULT:      -8.5      1.617      2.156
REMARK  Name = 
REMARK  7 active torsions:
REMARK  status: ('A' for Active; 'I' for Inactive)
REMARK    1  A    between atoms: C_2  and  O_3
REMARK    2  A    between atoms: C_2  and  C_4
REMARK    3  A    between atoms: C_8  and  N_9
REMARK    4  A    between atoms: N_9  and  C_10
REMARK    5  A    between atoms: C_10  and  N_12
REMARK    6  A    between atoms: N_12  and  N_13
REMARK    7  A    between atoms: C_14  and  C_15
REMARK                            x       y       z     vdW  Elec       q    Type
REMARK                         _______ _______ _______ _____ _____    ______ ____
ROOT
ATOM      1  C   UNL     1       6.223   5.545  17.094  0.00  0.00    +0.000 C 
ATOM      2  S   UNL     1       5.493   4.870  15.742  0.00  0.00    +0.000 S 
ENDROOT
BRANCH   1   3
ATOM      3  N   UNL     1       5.798   5.325  18.527  0.00  0.00    +0.000 N 
ATOM      4  H   UNL     1       6.499   5.108  19.238  0.00  0.00    +0.000 HD
BRANCH   3   9
ATOM      5  C   UNL     1       2.518   4.308  20.472  0.00  0.00    +0.000 A 
ATOM      6  C   UNL     1       1.739   5.488  20.406  0.00  0.00    +0.000 A 
ATOM      7  C   UNL     1       2.254   6.606  19.703  0.00  0.00    +0.000 A 
ATOM      8  C   UNL     1       3.545   6.571  19.090  0.00  0.00    +0.000 A 
ATOM      9  C   UNL     1       4.412   5.422  19.156  0.00  0.00    +0.000 A 
ATOM     10  C   UNL     1       3.809   4.351  19.864  0.00  0.00    +0.000 A 
BRANCH   5  12
ATOM     11  O   UNL     1       2.534   2.732  22.190  0.00  0.00    +0.000 OA
ATOM     12  C   UNL     1       2.108   3.076  21.107  0.00  0.00    +0.000 C 
BRANCH  12  13
ATOM     13  O   UNL     1       1.304   2.302  20.348  0.00  0.00    +0.000 OA
ATOM     14  H   UNL     1       0.785   1.627  20.815  0.00  0.00    +0.000 HD
ENDBRANCH  12  13
ENDBRANCH   5  12
ENDBRANCH   3   9
ENDBRANCH   1   3
BRANCH   1  15
ATOM     15  N   UNL     1       7.417   6.426  16.875  0.00  0.00    +0.000 N 
ATOM     16  H   UNL     1       7.925   6.373  15.999  0.00  0.00    +0.000 HD
BRANCH  15  17
ATOM     17  N   UNL     1       8.036   7.462  18.021  0.00  0.00    +0.000 NA
ATOM     18  C   UNL     1       8.136   8.814  17.818  0.00  0.00    +0.000 C 
BRANCH  18  19
ATOM     19  C   UNL     1       9.001  10.029  18.709  0.00  0.00    +0.000 A 
ATOM     20  C   UNL     1       8.869  11.159  17.925  0.00  0.00    +0.000 A 
ATOM     21  N   UNL     1      10.143  11.592  18.160  0.00  0.00    +0.000 N 
ATOM     22  C   UNL     1      10.030  12.031  19.467  0.00  0.00    +0.000 A 
ATOM     23  C   UNL     1      10.691  13.331  19.823  0.00  0.00    +0.000 A 
ATOM     24  C   UNL     1      10.606  14.048  20.969  0.00  0.00    +0.000 A 
ATOM     25  C   UNL     1       9.756  13.383  21.778  0.00  0.00    +0.000 A 
ATOM     26  C   UNL     1       9.161  11.993  21.385  0.00  0.00    +0.000 A 
ATOM     27  C   UNL     1       9.078  11.060  20.142  0.00  0.00    +0.000 A 
ATOM     28  H   UNL     1      10.994  11.092  17.954  0.00  0.00    +0.000 HD
ENDBRANCH  18  19
ENDBRANCH  15  17
ENDBRANCH   1  15
TORSDOF 7
ENDMDL
MODEL 4
REMARK VINA RESULT:      -8.4      6.700      9.841
REMARK  Name = 
REMARK  7 active torsions:
REMARK  status: ('A' for Active; 'I' for Inactive)
REMARK    1  A    between atoms: C_2  and  O_3
REMARK    2  A    between atoms: C_2  and  C_4
REMARK    3  A    between atoms: C_8  and  N_9
REMARK    4  A    between atoms: N_9  and  C_10
REMARK    5  A    between atoms: C_10  and  N_12
REMARK    6  A    between atoms: N_12  and  N_13
REMARK    7  A    between atoms: C_14  and  C_15
REMARK                            x       y       z     vdW  Elec       q    Type
REMARK                         _______ _______ _______ _____ _____    ______ ____
ROOT
ATOM      1  C   UNL     1       0.482  11.644  18.722  0.00  0.00    +0.000 C 
ATOM      2  S   UNL     1       0.932  13.238  18.991  0.00  0.00    +0.000 S 
ENDROOT
BRANCH   1   3
ATOM      3  N   UNL     1      -0.865  11.041  19.045  0.00  0.00    +0.000 N 
ATOM      4  H   UNL     1      -0.991  10.509  19.907  0.00  0.00    +0.000 HD
BRANCH   3   9
ATOM      5  C   UNL     1      -3.499  10.684  16.127  0.00  0.00    +0.000 A 
ATOM      6  C   UNL     1      -4.665  11.255  16.689  0.00  0.00    +0.000 A 
ATOM      7  C   UNL     1      -4.598  11.791  18.001  0.00  0.00    +0.000 A 
ATOM      8  C   UNL     1      -3.391  11.739  18.766  0.00  0.00    +0.000 A 
ATOM      9  C   UNL     1      -2.179  11.131  18.277  0.00  0.00    +0.000 A 
ATOM     10  C   UNL     1      -2.338  10.638  16.956  0.00  0.00    +0.000 A 
BRANCH   5  12
ATOM     11  O   UNL     1      -2.332   9.974  14.237  0.00  0.00    +0.000 OA
ATOM     12  C   UNL     1      -3.400  10.146  14.789  0.00  0.00    +0.000 C 
BRANCH  12  13
ATOM     13  O   UNL     1      -4.588   9.958  14.177  0.00  0.00    +0.000 OA
ATOM     14  H   UNL     1      -5.377  10.244  14.666  0.00  0.00    +0.000 HD
ENDBRANCH  12  13
ENDBRANCH   5  12
ENDBRANCH   3   9
ENDBRANCH   1   3
BRANCH   1  15
ATOM     15  N   UNL     1       1.489  10.734  18.084  0.00  0.00    +0.000 N 
ATOM     16  H   UNL     1       2.204  11.123  17.479  0.00  0.00    +0.000 HD
BRANCH  15  17
ATOM     17  N   UNL     1       1.479   9.077  18.237  0.00  0.00    +0.000 NA
ATOM     18  C   UNL     1       2.577   8.302  17.965  0.00  0.00    +0.000 C 
BRANCH  18  19
ATOM     19  C   UNL     1       2.725   6.584  17.759  0.00  0.00    +0.000 A 
ATOM     20  C   UNL     1       3.753   6.244  18.617  0.00  0.00    +0.000 A 
ATOM     21  N   UNL     1       4.294   5.323  17.765  0.00  0.00    +0.000 N 
ATOM     22  C   UNL     1       3.369   4.300  17.868  0.00  0.00    +0.000 A 
ATOM     23  C   UNL     1       3.893   2.896  17.969  0.00  0.00    +0.000 A 
ATOM     24  C   UNL     1       3.222   1.750  18.228  0.00  0.00    +0.000 A 
ATOM     25  C   UNL     1       1.933   2.093  18.424  0.00  0.00    +0.000 A 
ATOM     26  C   UNL     1       1.430   3.559  18.227  0.00  0.00    +0.000 A 
ATOM     27  C   UNL     1       2.019   4.983  18.005  0.00  0.00    +0.000 A 
ATOM     28  H   UNL     1       4.630   5.497  16.831  0.00  0.00    +0.000 HD
ENDBRANCH  18  19
ENDBRANCH  15  17
ENDBRANCH   1  15
TORSDOF 7
ENDMDL
MODEL 5
REMARK VINA RESULT:      -8.4      1.794      2.117
REMARK  Name = 
REMARK  7 active torsions:
REMARK  status: ('A' for Active; 'I' for Inactive)
REMARK    1  A    between atoms: C_2  and  O_3
REMARK    2  A    between atoms: C_2  and  C_4
REMARK    3  A    between atoms: C_8  and  N_9
REMARK    4  A    between atoms: N_9  and  C_10
REMARK    5  A    between atoms: C_10  and  N_12
REMARK    6  A    between atoms: N_12  and  N_13
REMARK    7  A    between atoms: C_14  and  C_15
REMARK                            x       y       z     vdW  Elec       q    Type
REMARK                         _______ _______ _______ _____ _____    ______ ____
ROOT
ATOM      1  C   UNL     1       6.910   5.321  18.294  0.00  0.00    +0.000 C 
ATOM      2  S   UNL     1       7.933   5.698  19.569  0.00  0.00    +0.000 S 
ENDROOT
BRANCH   1   3
ATOM      3  N   UNL     1       6.040   4.091  18.195  0.00  0.00    +0.000 N 
ATOM      4  H   UNL     1       6.467   3.175  18.044  0.00  0.00    +0.000 HD
BRANCH   3   9
ATOM      5  C   UNL     1       2.505   3.359  19.792  0.00  0.00    +0.000 A 
ATOM      6  C   UNL     1       1.618   3.651  18.730  0.00  0.00    +0.000 A 
ATOM      7  C   UNL     1       2.157   4.053  17.481  0.00  0.00    +0.000 A 
ATOM      8  C   UNL     1       3.567   4.191  17.289  0.00  0.00    +0.000 A 
ATOM      9  C   UNL     1       4.527   3.956  18.337  0.00  0.00    +0.000 A 
ATOM     10  C   UNL     1       3.898   3.546  19.541  0.00  0.00    +0.000 A 
BRANCH   5  12
ATOM     11  O   UNL     1       2.916   2.541  21.936  0.00  0.00    +0.000 OA
ATOM     12  C   UNL     1       2.109   2.892  21.101  0.00  0.00    +0.000 C 
BRANCH  12  13
ATOM     13  O   UNL     1       0.774   2.779  21.269  0.00  0.00    +0.000 OA
ATOM     14  H   UNL     1       0.224   3.453  20.836  0.00  0.00    +0.000 HD
ENDBRANCH  12  13
ENDBRANCH   5  12
ENDBRANCH   3   9
ENDBRANCH   1   3
BRANCH   1  15
ATOM     15  N   UNL     1       6.826   6.296  17.157  0.00  0.00    +0.000 N 
ATOM     16  H   UNL     1       6.694   5.954  16.211  0.00  0.00    +0.000 HD
BRANCH  15  17
ATOM     17  N   UNL     1       7.013   7.941  17.322  0.00  0.00    +0.000 NA
ATOM     18  C   UNL     1       8.174   8.512  17.777  0.00  0.00    +0.000 C 
BRANCH  18  19
ATOM     19  C   UNL     1       8.504  10.132  18.311  0.00  0.00    +0.000 A 
ATOM     20  C   UNL     1       9.531   9.968  19.220  0.00  0.00    +0.000 A 
ATOM     21  N   UNL     1       9.054  10.916  20.081  0.00  0.00    +0.000 N 
ATOM     22  C   UNL     1       9.353  12.073  19.384  0.00  0.00    +0.000 A 
ATOM     23  C   UNL     1       9.921  13.225  20.162  0.00  0.00    +0.000 A 
ATOM     24  C   UNL     1      10.432  14.393  19.708  0.00  0.00    +0.000 A 
ATOM     25  C   UNL     1      10.375  14.342  18.361  0.00  0.00    +0.000 A 
ATOM     26  C   UNL     1       9.699  13.152  17.609  0.00  0.00    +0.000 A 
ATOM     27  C   UNL     1       9.133  11.735  17.920  0.00  0.00    +0.000 A 
ATOM     28  H   UNL     1       8.153  10.915  20.532  0.00  0.00    +0.000 HD
ENDBRANCH  18  19
ENDBRANCH  15  17
ENDBRANCH   1  15
TORSDOF 7
ENDMDL
MODEL 6
REMARK VINA RESULT:      -8.3      1.283      1.814
REMARK  Name = 
REMARK  7 active torsions:
REMARK  status: ('A' for Active; 'I' for Inactive)
REMARK    1  A    between atoms: C_2  and  O_3
REMARK    2  A    between atoms: C_2  and  C_4
REMARK    3  A    between atoms: C_8  and  N_9
REMARK    4  A    between atoms: N_9  and  C_10
REMARK    5  A    between atoms: C_10  and  N_12
REMARK    6  A    between atoms: N_12  and  N_13
REMARK    7  A    between atoms: C_14  and  C_15
REMARK                            x       y       z     vdW  Elec       q    Type
REMARK                         _______ _______ _______ _____ _____    ______ ____
ROOT
ATOM      1  C   UNL     1       6.128   6.285  17.756  0.00  0.00    +0.000 C 
ATOM      2  S   UNL     1       7.002   5.478  18.939  0.00  0.00    +0.000 S 
ENDROOT
BRANCH   1   3
ATOM      3  N   UNL     1       4.657   6.102  17.467  0.00  0.00    +0.000 N 
ATOM      4  H   UNL     1       4.288   6.326  16.542  0.00  0.00    +0.000 HD
BRANCH   3   9
ATOM      5  C   UNL     1       1.859   3.706  18.884  0.00  0.00    +0.000 A 
ATOM      6  C   UNL     1       1.398   4.406  20.024  0.00  0.00    +0.000 A 
ATOM      7  C   UNL     1       1.963   5.672  20.322  0.00  0.00    +0.000 A 
ATOM      8  C   UNL     1       3.000   6.234  19.512  0.00  0.00    +0.000 A 
ATOM      9  C   UNL     1       3.550   5.558  18.365  0.00  0.00    +0.000 A 
ATOM     10  C   UNL     1       2.915   4.309  18.138  0.00  0.00    +0.000 A 
BRANCH   5  12
ATOM     11  O   UNL     1       0.194   2.097  18.608  0.00  0.00    +0.000 OA
ATOM     12  C   UNL     1       1.346   2.434  18.427  0.00  0.00    +0.000 C 
BRANCH  12  13
ATOM     13  O   UNL     1       2.278   1.622  17.886  0.00  0.00    +0.000 OA
ATOM     14  H   UNL     1       2.799   1.086  18.507  0.00  0.00    +0.000 HD
ENDBRANCH  12  13
ENDBRANCH   5  12
ENDBRANCH   3   9
ENDBRANCH   1   3
BRANCH   1  15
ATOM     15  N   UNL     1       6.855   7.298  16.922  0.00  0.00    +0.000 N 
ATOM     16  H   UNL     1       7.052   7.097  15.947  0.00  0.00    +0.000 HD
BRANCH  15  17
ATOM     17  N   UNL     1       7.447   8.739  17.508  0.00  0.00    +0.000 NA
ATOM     18  C   UNL     1       8.628   8.826  18.200  0.00  0.00    +0.000 C 
BRANCH  18  19
ATOM     19  C   UNL     1       9.287  10.123  19.149  0.00  0.00    +0.000 A 
ATOM     20  C   UNL     1       9.319  11.185  18.266  0.00  0.00    +0.000 A 
ATOM     21  N   UNL     1      10.516  11.659  18.722  0.00  0.00    +0.000 N 
ATOM     22  C   UNL     1      10.135  12.196  19.938  0.00  0.00    +0.000 A 
ATOM     23  C   UNL     1      10.707  13.533  20.317  0.00  0.00    +0.000 A 
ATOM     24  C   UNL     1      10.387  14.335  21.359  0.00  0.00    +0.000 A 
ATOM     25  C   UNL     1       9.389  13.720  22.027  0.00  0.00    +0.000 A 
ATOM     26  C   UNL     1       8.890  12.293  21.634  0.00  0.00    +0.000 A 
ATOM     27  C   UNL     1       9.066  11.264  20.479  0.00  0.00    +0.000 A 
ATOM     28  H   UNL     1      11.391  11.160  18.736  0.00  0.00    +0.000 HD
ENDBRANCH  18  19
ENDBRANCH  15  17
ENDBRANCH   1  15
TORSDOF 7
ENDMDL
MODEL 7
REMARK VINA RESULT:      -8.3      7.038      9.996
REMARK  Name = 
REMARK  7 active torsions:
REMARK  status: ('A' for Active; 'I' for Inactive)
REMARK    1  A    between atoms: C_2  and  O_3
REMARK    2  A    between atoms: C_2  and  C_4
REMARK    3  A    between atoms: C_8  and  N_9
REMARK    4  A    between atoms: N_9  and  C_10
REMARK    5  A    between atoms: C_10  and  N_12
REMARK    6  A    between atoms: N_12  and  N_13
REMARK    7  A    between atoms: C_14  and  C_15
REMARK                            x       y       z     vdW  Elec       q    Type
REMARK                         _______ _______ _______ _____ _____    ______ ____
ROOT
ATOM      1  C   UNL     1       0.997  11.836  18.650  0.00  0.00    +0.000 C 
ATOM      2  S   UNL     1       1.240  13.490  18.796  0.00  0.00    +0.000 S 
ENDROOT
BRANCH   1   3
ATOM      3  N   UNL     1      -0.252  11.089  19.054  0.00  0.00    +0.000 N 
ATOM      4  H   UNL     1      -0.309  10.654  19.977  0.00  0.00    +0.000 HD
BRANCH   3   9
ATOM      5  C   UNL     1      -4.048  11.433  18.028  0.00  0.00    +0.000 A 
ATOM      6  C   UNL     1      -4.142  10.589  16.896  0.00  0.00    +0.000 A 
ATOM      7  C   UNL     1      -2.988   9.877  16.479  0.00  0.00    +0.000 A 
ATOM      8  C   UNL     1      -1.739  10.018  17.161  0.00  0.00    +0.000 A 
ATOM      9  C   UNL     1      -1.558  10.893  18.291  0.00  0.00    +0.000 A 
ATOM     10  C   UNL     1      -2.765  11.550  18.643  0.00  0.00    +0.000 A 
BRANCH   5  12
ATOM     11  O   UNL     1      -5.917  12.822  17.918  0.00  0.00    +0.000 OA
ATOM     12  C   UNL     1      -5.145  12.180  18.600  0.00  0.00    +0.000 C 
BRANCH  12  13
ATOM     13  O   UNL     1      -5.167  12.188  19.950  0.00  0.00    +0.000 OA
ATOM     14  H   UNL     1      -4.563  11.572  20.397  0.00  0.00    +0.000 HD
ENDBRANCH  12  13
ENDBRANCH   5  12
ENDBRANCH   3   9
ENDBRANCH   1   3
BRANCH   1  15
ATOM     15  N   UNL     1       2.100  11.020  18.044  0.00  0.00    +0.000 N 
ATOM     16  H   UNL     1       3.004  11.447  17.873  0.00  0.00    +0.000 HD
BRANCH  15  17
ATOM     17  N   UNL     1       1.929   9.441  17.548  0.00  0.00    +0.000 NA
ATOM     18  C   UNL     1       2.266   8.375  18.343  0.00  0.00    +0.000 C 
BRANCH  18  19
ATOM     19  C   UNL     1       2.463   6.693  17.954  0.00  0.00    +0.000 A 
ATOM     20  C   UNL     1       3.636   6.349  18.598  0.00  0.00    +0.000 A 
ATOM     21  N   UNL     1       4.071   5.541  17.585  0.00  0.00    +0.000 N 
ATOM     22  C   UNL     1       3.228   4.455  17.740  0.00  0.00    +0.000 A 
ATOM     23  C   UNL     1       3.831   3.085  17.621  0.00  0.00    +0.000 A 
ATOM     24  C   UNL     1       3.271   1.880  17.876  0.00  0.00    +0.000 A 
ATOM     25  C   UNL     1       2.017   2.121  18.310  0.00  0.00    +0.000 A 
ATOM     26  C   UNL     1       1.417   3.563  18.337  0.00  0.00    +0.000 A 
ATOM     27  C   UNL     1       1.889   5.035  18.159  0.00  0.00    +0.000 A 
ATOM     28  H   UNL     1       4.237   5.815  16.630  0.00  0.00    +0.000 HD
ENDBRANCH  18  19
ENDBRANCH  15  17
ENDBRANCH   1  15
TORSDOF 7
ENDMDL
MODEL 8
REMARK VINA RESULT:      -8.2      6.477      7.794
REMARK  Name = 
REMARK  7 active torsions:
REMARK  status: ('A' for Active; 'I' for Inactive)
REMARK    1  A    between atoms: C_2  and  O_3
REMARK    2  A    between atoms: C_2  and  C_4
REMARK    3  A    between atoms: C_8  and  N_9
REMARK    4  A    between atoms: N_9  and  C_10
REMARK    5  A    between atoms: C_10  and  N_12
REMARK    6  A    between atoms: N_12  and  N_13
REMARK    7  A    between atoms: C_14  and  C_15
REMARK                            x       y       z     vdW  Elec       q    Type
REMARK                         _______ _______ _______ _____ _____    ______ ____
ROOT
ATOM      1  C   UNL     1       2.201   3.905  20.284  0.00  0.00    +0.000 C 
ATOM      2  S   UNL     1       1.859   3.080  21.705  0.00  0.00    +0.000 S 
ENDROOT
BRANCH   1   3
ATOM      3  N   UNL     1       2.934   5.222  20.184  0.00  0.00    +0.000 N 
ATOM      4  H   UNL     1       3.914   5.282  20.465  0.00  0.00    +0.000 HD
BRANCH   3   9
ATOM      5  C   UNL     1       1.349   8.836  20.111  0.00  0.00    +0.000 A 
ATOM      6  C   UNL     1       1.463   9.198  18.748  0.00  0.00    +0.000 A 
ATOM      7  C   UNL     1       2.019   8.263  17.838  0.00  0.00    +0.000 A 
ATOM      8  C   UNL     1       2.488   6.985  18.277  0.00  0.00    +0.000 A 
ATOM      9  C   UNL     1       2.447   6.567  19.655  0.00  0.00    +0.000 A 
ATOM     10  C   UNL     1       1.863   7.558  20.485  0.00  0.00    +0.000 A 
BRANCH   5  12
ATOM     11  O   UNL     1       1.296   9.834  22.217  0.00  0.00    +0.000 OA
ATOM     12  C   UNL     1       0.760   9.660  21.142  0.00  0.00    +0.000 C 
BRANCH  12  13
ATOM     13  O   UNL     1      -0.474  10.120  20.847  0.00  0.00    +0.000 OA
ATOM     14  H   UNL     1      -0.997   9.589  20.224  0.00  0.00    +0.000 HD
ENDBRANCH  12  13
ENDBRANCH   5  12
ENDBRANCH   3   9
ENDBRANCH   1   3
BRANCH   1  15
ATOM     15  N   UNL     1       1.767   3.278  18.993  0.00  0.00    +0.000 N 
ATOM     16  H   UNL     1       1.059   2.552  19.000  0.00  0.00    +0.000 HD
BRANCH  15  17
ATOM     17  N   UNL     1       2.430   3.640  17.510  0.00  0.00    +0.000 NA
ATOM     18  C   UNL     1       3.779   3.588  17.270  0.00  0.00    +0.000 C 
BRANCH  18  19
ATOM     19  C   UNL     1       4.715   4.195  15.938  0.00  0.00    +0.000 A 
ATOM     20  C   UNL     1       6.011   4.168  16.416  0.00  0.00    +0.000 A 
ATOM     21  N   UNL     1       6.362   5.346  15.820  0.00  0.00    +0.000 N 
ATOM     22  C   UNL     1       6.444   4.952  14.496  0.00  0.00    +0.000 A 
ATOM     23  C   UNL     1       7.602   5.464  13.690  0.00  0.00    +0.000 A 
ATOM     24  C   UNL     1       7.995   5.116  12.442  0.00  0.00    +0.000 A 
ATOM     25  C   UNL     1       7.145   4.155  12.024  0.00  0.00    +0.000 A 
ATOM     26  C   UNL     1       5.910   3.720  12.874  0.00  0.00    +0.000 A 
ATOM     27  C   UNL     1       5.334   3.933  14.305  0.00  0.00    +0.000 A 
ATOM     28  H   UNL     1       5.928   6.244  15.967  0.00  0.00    +0.000 HD
ENDBRANCH  18  19
ENDBRANCH  15  17
ENDBRANCH   1  15
TORSDOF 7
ENDMDL
MODEL 9
REMARK VINA RESULT:      -8.2      1.491      1.705
REMARK  Name = 
REMARK  7 active torsions:
REMARK  status: ('A' for Active; 'I' for Inactive)
REMARK    1  A    between atoms: C_2  and  O_3
REMARK    2  A    between atoms: C_2  and  C_4
REMARK    3  A    between atoms: C_8  and  N_9
REMARK    4  A    between atoms: N_9  and  C_10
REMARK    5  A    between atoms: C_10  and  N_12
REMARK    6  A    between atoms: N_12  and  N_13
REMARK    7  A    between atoms: C_14  and  C_15
REMARK                            x       y       z     vdW  Elec       q    Type
REMARK                         _______ _______ _______ _____ _____    ______ ____
ROOT
ATOM      1  C   UNL     1       6.165   5.485  16.916  0.00  0.00    +0.000 C 
ATOM      2  S   UNL     1       5.632   5.450  15.325  0.00  0.00    +0.000 S 
ENDROOT
BRANCH   1   3
ATOM      3  N   UNL     1       5.514   4.776  18.079  0.00  0.00    +0.000 N 
ATOM      4  H   UNL     1       5.943   3.933  18.466  0.00  0.00    +0.000 HD
BRANCH   3   9
ATOM      5  C   UNL     1       2.417   4.460  20.506  0.00  0.00    +0.000 A 
ATOM      6  C   UNL     1       1.834   5.748  20.435  0.00  0.00    +0.000 A 
ATOM      7  C   UNL     1       2.417   6.714  19.576  0.00  0.00    +0.000 A 
ATOM      8  C   UNL     1       3.588   6.420  18.810  0.00  0.00    +0.000 A 
ATOM      9  C   UNL     1       4.262   5.147  18.867  0.00  0.00    +0.000 A 
ATOM     10  C   UNL     1       3.601   4.244  19.739  0.00  0.00    +0.000 A 
BRANCH   5  12
ATOM     11  O   UNL     1       2.579   2.807  22.142  0.00  0.00    +0.000 OA
ATOM     12  C   UNL     1       1.909   3.361  21.295  0.00  0.00    +0.000 C 
BRANCH  12  13
ATOM     13  O   UNL     1       0.678   2.941  20.933  0.00  0.00    +0.000 OA
ATOM     14  H   UNL     1       0.562   1.983  20.826  0.00  0.00    +0.000 HD
ENDBRANCH  12  13
ENDBRANCH   5  12
ENDBRANCH   3   9
ENDBRANCH   1   3
BRANCH   1  15
ATOM     15  N   UNL     1       7.409   6.266  17.216  0.00  0.00    +0.000 N 
ATOM     16  H   UNL     1       8.315   5.882  16.971  0.00  0.00    +0.000 HD
BRANCH  15  17
ATOM     17  N   UNL     1       7.425   7.728  18.013  0.00  0.00    +0.000 NA
ATOM     18  C   UNL     1       8.145   8.806  17.567  0.00  0.00    +0.000 C 
BRANCH  18  19
ATOM     19  C   UNL     1       8.556  10.296  18.360  0.00  0.00    +0.000 A 
ATOM     20  C   UNL     1       9.611   9.945  19.179  0.00  0.00    +0.000 A 
ATOM     21  N   UNL     1       9.204  10.741  20.213  0.00  0.00    +0.000 N 
ATOM     22  C   UNL     1       9.518  11.993  19.715  0.00  0.00    +0.000 A 
ATOM     23  C   UNL     1      10.159  12.973  20.655  0.00  0.00    +0.000 A 
ATOM     24  C   UNL     1      10.696  14.187  20.388  0.00  0.00    +0.000 A 
ATOM     25  C   UNL     1      10.585  14.374  19.057  0.00  0.00    +0.000 A 
ATOM     26  C   UNL     1       9.836  13.355  18.140  0.00  0.00    +0.000 A 
ATOM     27  C   UNL     1       9.229  11.924  18.225  0.00  0.00    +0.000 A 
ATOM     28  H   UNL     1       8.321  10.689  20.697  0.00  0.00    +0.000 HD
ENDBRANCH  18  19
ENDBRANCH  15  17
ENDBRANCH   1  15
TORSDOF 7
ENDMDL
