MODEL 1
REMARK VINA RESULT:      -8.2      0.000      0.000
REMARK  Name = 
REMARK  3 active torsions:
REMARK  status: ('A' for Active; 'I' for Inactive)
REMARK    1  A    between atoms: C_4  and  C_5
REMARK    2  A    between atoms: C_5  and  N_6
REMARK    3  A    between atoms: N_6  and  N_7
REMARK                            x       y       z     vdW  Elec       q    Type
REMARK                         _______ _______ _______ _____ _____    ______ ____
ROOT
ATOM      1  N   UNL     1       2.122   6.024  18.877  0.00  0.00    +0.000 N 
ATOM      2  C   UNL     1       2.509   5.208  17.795  0.00  0.00    +0.000 A 
ATOM      3  N   UNL     1       3.835   5.076  17.436  0.00  0.00    +0.000 N 
ATOM      4  C   UNL     1       4.919   5.773  18.185  0.00  0.00    +0.000 C 
ATOM      5  C   UNL     1       6.127   5.878  17.229  0.00  0.00    +0.000 C 
ATOM      6  O   UNL     1       6.614   4.575  16.920  0.00  0.00    +0.000 OA
ATOM      7  C   UNL     1       5.581   3.752  16.335  0.00  0.00    +0.000 C 
ATOM      8  C   UNL     1       4.307   3.684  17.197  0.00  0.00    +0.000 C 
ATOM      9  N   UNL     1       1.519   4.337  17.651  0.00  0.00    +0.000 NA
ATOM     10  C   UNL     1       1.302   4.033  18.973  0.00  0.00    +0.000 A 
ATOM     11  C   UNL     1       0.832   2.826  19.508  0.00  0.00    +0.000 A 
ATOM     12  C   UNL     1       1.419   2.419  20.709  0.00  0.00    +0.000 A 
ATOM     13  C   UNL     1       2.338   3.242  21.378  0.00  0.00    +0.000 A 
ATOM     14  C   UNL     1       2.566   4.580  20.991  0.00  0.00    +0.000 A 
ATOM     15  C   UNL     1       1.965   4.978  19.790  0.00  0.00    +0.000 A 
ENDROOT
BRANCH   1  16
ATOM     16  N   UNL     1       2.644   7.405  19.007  0.00  0.00    +0.000 N 
ATOM     17  H   UNL     1       3.316   7.474  18.234  0.00  0.00    +0.000 HD
BRANCH  16  18
ATOM     18  C   UNL     1       1.721   8.510  18.699  0.00  0.00    +0.000 C 
BRANCH  18  22
ATOM     19  C   UNL     1      -0.231  10.177  22.281  0.00  0.00    +0.000 A 
ATOM     20  C   UNL     1      -0.475  10.707  21.028  0.00  0.00    +0.000 A 
ATOM     21  C   UNL     1       0.160  10.176  19.886  0.00  0.00    +0.000 A 
ATOM     22  C   UNL     1       1.056   9.093  19.977  0.00  0.00    +0.000 A 
ATOM     23  C   UNL     1       1.268   8.559  21.272  0.00  0.00    +0.000 A 
ATOM     24  C   UNL     1       0.658   9.107  22.403  0.00  0.00    +0.000 A 
ENDBRANCH  18  22
ENDBRANCH  16  18
ENDBRANCH   1  16
TORSDOF 3
ENDMDL
MODEL 2
REMARK VINA RESULT:      -8.1      0.027      1.000
REMARK  Name = 
REMARK  3 active torsions:
REMARK  status: ('A' for Active; 'I' for Inactive)
REMARK    1  A    between atoms: C_4  and  C_5
REMARK    2  A    between atoms: C_5  and  N_6
REMARK    3  A    between atoms: N_6  and  N_7
REMARK                            x       y       z     vdW  Elec       q    Type
REMARK                         _______ _______ _______ _____ _____    ______ ____
ROOT
ATOM      1  N   UNL     1       2.125   6.029  18.888  0.00  0.00    +0.000 N 
ATOM      2  C   UNL     1       2.513   5.225  17.798  0.00  0.00    +0.000 A 
ATOM      3  N   UNL     1       3.838   5.095  17.440  0.00  0.00    +0.000 N 
ATOM      4  C   UNL     1       4.923   5.781  18.198  0.00  0.00    +0.000 C 
ATOM      5  C   UNL     1       6.133   5.894  17.245  0.00  0.00    +0.000 C 
ATOM      6  O   UNL     1       6.618   4.594  16.923  0.00  0.00    +0.000 OA
ATOM      7  C   UNL     1       5.584   3.780  16.327  0.00  0.00    +0.000 C 
ATOM      8  C   UNL     1       4.308   3.705  17.186  0.00  0.00    +0.000 C 
ATOM      9  N   UNL     1       1.522   4.358  17.642  0.00  0.00    +0.000 NA
ATOM     10  C   UNL     1       1.302   4.040  18.961  0.00  0.00    +0.000 A 
ATOM     11  C   UNL     1       0.829   2.827  19.482  0.00  0.00    +0.000 A 
ATOM     12  C   UNL     1       1.414   2.406  20.679  0.00  0.00    +0.000 A 
ATOM     13  C   UNL     1       2.333   3.220  21.359  0.00  0.00    +0.000 A 
ATOM     14  C   UNL     1       2.563   4.562  20.987  0.00  0.00    +0.000 A 
ATOM     15  C   UNL     1       1.965   4.974  19.789  0.00  0.00    +0.000 A 
ENDROOT
BRANCH   1  16
ATOM     16  N   UNL     1       2.650   7.408  19.034  0.00  0.00    +0.000 N 
ATOM     17  H   UNL     1       3.347   7.473  18.284  0.00  0.00    +0.000 HD
BRANCH  16  18
ATOM     18  C   UNL     1       1.743   8.518  18.694  0.00  0.00    +0.000 C 
BRANCH  18  22
ATOM     19  C   UNL     1      -0.189  10.169  22.293  0.00  0.00    +0.000 A 
ATOM     20  C   UNL     1       0.684   9.102  22.383  0.00  0.00    +0.000 A 
ATOM     21  C   UNL     1       1.292   8.571  21.227  0.00  0.00    +0.000 A 
ATOM     22  C   UNL     1       1.039   9.106  19.949  0.00  0.00    +0.000 A 
ATOM     23  C   UNL     1       0.156  10.212  19.893  0.00  0.00    +0.000 A 
ATOM     24  C   UNL     1      -0.465  10.716  21.038  0.00  0.00    +0.000 A 
ENDBRANCH  18  22
ENDBRANCH  16  18
ENDBRANCH   1  16
TORSDOF 3
ENDMDL
MODEL 3
REMARK VINA RESULT:      -8.1      1.898      4.048
REMARK  Name = 
REMARK  3 active torsions:
REMARK  status: ('A' for Active; 'I' for Inactive)
REMARK    1  A    between atoms: C_4  and  C_5
REMARK    2  A    between atoms: C_5  and  N_6
REMARK    3  A    between atoms: N_6  and  N_7
REMARK                            x       y       z     vdW  Elec       q    Type
REMARK                         _______ _______ _______ _____ _____    ______ ____
ROOT
ATOM      1  N   UNL     1       3.972   6.360  18.126  0.00  0.00    +0.000 N 
ATOM      2  C   UNL     1       4.021   5.342  19.099  0.00  0.00    +0.000 A 
ATOM      3  N   UNL     1       3.136   4.283  19.073  0.00  0.00    +0.000 N 
ATOM      4  C   UNL     1       2.102   4.157  18.007  0.00  0.00    +0.000 C 
ATOM      5  C   UNL     1       0.986   3.251  18.571  0.00  0.00    +0.000 C 
ATOM      6  O   UNL     1       1.497   1.942  18.805  0.00  0.00    +0.000 OA
ATOM      7  C   UNL     1       2.624   1.970  19.707  0.00  0.00    +0.000 C 
ATOM      8  C   UNL     1       3.736   2.932  19.250  0.00  0.00    +0.000 C 
ATOM      9  N   UNL     1       5.260   5.377  19.570  0.00  0.00    +0.000 NA
ATOM     10  C   UNL     1       5.940   5.521  18.385  0.00  0.00    +0.000 A 
ATOM     11  C   UNL     1       7.230   5.070  18.077  0.00  0.00    +0.000 A 
ATOM     12  C   UNL     1       7.413   4.570  16.785  0.00  0.00    +0.000 A 
ATOM     13  C   UNL     1       6.382   4.634  15.835  0.00  0.00    +0.000 A 
ATOM     14  C   UNL     1       5.199   5.368  16.062  0.00  0.00    +0.000 A 
ATOM     15  C   UNL     1       5.031   5.870  17.359  0.00  0.00    +0.000 A 
ENDROOT
BRANCH   1  16
ATOM     16  N   UNL     1       2.686   7.006  17.772  0.00  0.00    +0.000 N 
ATOM     17  H   UNL     1       2.039   6.643  18.482  0.00  0.00    +0.000 HD
BRANCH  16  18
ATOM     18  C   UNL     1       2.575   8.459  17.983  0.00  0.00    +0.000 C 
BRANCH  18  22
ATOM     19  C   UNL     1      -0.194   9.472  21.257  0.00  0.00    +0.000 A 
ATOM     20  C   UNL     1      -0.239  10.151  20.054  0.00  0.00    +0.000 A 
ATOM     21  C   UNL     1       0.656   9.830  19.013  0.00  0.00    +0.000 A 
ATOM     22  C   UNL     1       1.618   8.811  19.156  0.00  0.00    +0.000 A 
ATOM     23  C   UNL     1       1.624   8.120  20.393  0.00  0.00    +0.000 A 
ATOM     24  C   UNL     1       0.753   8.462  21.431  0.00  0.00    +0.000 A 
ENDBRANCH  18  22
ENDBRANCH  16  18
ENDBRANCH   1  16
TORSDOF 3
ENDMDL
MODEL 4
REMARK VINA RESULT:      -8.0      1.900      4.195
REMARK  Name = 
REMARK  3 active torsions:
REMARK  status: ('A' for Active; 'I' for Inactive)
REMARK    1  A    between atoms: C_4  and  C_5
REMARK    2  A    between atoms: C_5  and  N_6
REMARK    3  A    between atoms: N_6  and  N_7
REMARK                            x       y       z     vdW  Elec       q    Type
REMARK                         _______ _______ _______ _____ _____    ______ ____
ROOT
ATOM      1  N   UNL     1       3.992   6.344  18.168  0.00  0.00    +0.000 N 
ATOM      2  C   UNL     1       4.068   5.322  19.135  0.00  0.00    +0.000 A 
ATOM      3  N   UNL     1       3.190   4.258  19.123  0.00  0.00    +0.000 N 
ATOM      4  C   UNL     1       2.134   4.130  18.080  0.00  0.00    +0.000 C 
ATOM      5  C   UNL     1       1.035   3.215  18.664  0.00  0.00    +0.000 C 
ATOM      6  O   UNL     1       1.559   1.908  18.880  0.00  0.00    +0.000 OA
ATOM      7  C   UNL     1       2.706   1.939  19.758  0.00  0.00    +0.000 C 
ATOM      8  C   UNL     1       3.802   2.910  19.280  0.00  0.00    +0.000 C 
ATOM      9  N   UNL     1       5.317   5.362  19.579  0.00  0.00    +0.000 NA
ATOM     10  C   UNL     1       5.970   5.516  18.380  0.00  0.00    +0.000 A 
ATOM     11  C   UNL     1       7.256   5.073  18.042  0.00  0.00    +0.000 A 
ATOM     12  C   UNL     1       7.413   4.581  16.744  0.00  0.00    +0.000 A 
ATOM     13  C   UNL     1       6.362   4.643  15.817  0.00  0.00    +0.000 A 
ATOM     14  C   UNL     1       5.179   5.368  16.073  0.00  0.00    +0.000 A 
ATOM     15  C   UNL     1       5.037   5.864  17.375  0.00  0.00    +0.000 A 
ENDROOT
BRANCH   1  16
ATOM     16  N   UNL     1       2.695   6.983  17.845  0.00  0.00    +0.000 N 
ATOM     17  H   UNL     1       2.101   6.722  18.641  0.00  0.00    +0.000 HD
BRANCH  16  18
ATOM     18  C   UNL     1       2.631   8.454  17.898  0.00  0.00    +0.000 C 
BRANCH  18  22
ATOM     19  C   UNL     1      -0.382   9.880  20.778  0.00  0.00    +0.000 A 
ATOM     20  C   UNL     1       0.540   8.915  21.136  0.00  0.00    +0.000 A 
ATOM     21  C   UNL     1       1.496   8.455  20.207  0.00  0.00    +0.000 A 
ATOM     22  C   UNL     1       1.550   8.960  18.893  0.00  0.00    +0.000 A 
ATOM     23  C   UNL     1       0.605   9.963  18.565  0.00  0.00    +0.000 A 
ATOM     24  C   UNL     1      -0.358  10.395  19.481  0.00  0.00    +0.000 A 
ENDBRANCH  18  22
ENDBRANCH  16  18
ENDBRANCH   1  16
TORSDOF 3
ENDMDL
MODEL 5
REMARK VINA RESULT:      -7.8      1.175      1.572
REMARK  Name = 
REMARK  3 active torsions:
REMARK  status: ('A' for Active; 'I' for Inactive)
REMARK    1  A    between atoms: C_4  and  C_5
REMARK    2  A    between atoms: C_5  and  N_6
REMARK    3  A    between atoms: N_6  and  N_7
REMARK                            x       y       z     vdW  Elec       q    Type
REMARK                         _______ _______ _______ _____ _____    ______ ____
ROOT
ATOM      1  N   UNL     1       2.055   6.030  18.782  0.00  0.00    +0.000 N 
ATOM      2  C   UNL     1       2.474   5.185  17.735  0.00  0.00    +0.000 A 
ATOM      3  N   UNL     1       3.806   5.080  17.389  0.00  0.00    +0.000 N 
ATOM      4  C   UNL     1       4.863   5.838  18.116  0.00  0.00    +0.000 C 
ATOM      5  C   UNL     1       6.075   5.942  17.163  0.00  0.00    +0.000 C 
ATOM      6  O   UNL     1       6.602   4.644  16.908  0.00  0.00    +0.000 OA
ATOM      7  C   UNL     1       5.599   3.768  16.350  0.00  0.00    +0.000 C 
ATOM      8  C   UNL     1       4.321   3.695  17.206  0.00  0.00    +0.000 C 
ATOM      9  N   UNL     1       1.512   4.280  17.619  0.00  0.00    +0.000 NA
ATOM     10  C   UNL     1       1.295   4.021  18.951  0.00  0.00    +0.000 A 
ATOM     11  C   UNL     1       0.859   2.822  19.530  0.00  0.00    +0.000 A 
ATOM     12  C   UNL     1       1.450   2.480  20.749  0.00  0.00    +0.000 A 
ATOM     13  C   UNL     1       2.339   3.356  21.391  0.00  0.00    +0.000 A 
ATOM     14  C   UNL     1       2.528   4.683  20.953  0.00  0.00    +0.000 A 
ATOM     15  C   UNL     1       1.924   5.017  19.734  0.00  0.00    +0.000 A 
ENDROOT
BRANCH   1  16
ATOM     16  N   UNL     1       2.535   7.431  18.861  0.00  0.00    +0.000 N 
ATOM     17  H   UNL     1       3.540   7.344  18.672  0.00  0.00    +0.000 HD
BRANCH  16  18
ATOM     18  C   UNL     1       2.109   8.354  17.796  0.00  0.00    +0.000 C 
BRANCH  18  22
ATOM     19  C   UNL     1       0.538  12.169  19.343  0.00  0.00    +0.000 A 
ATOM     20  C   UNL     1       1.699  12.131  18.594  0.00  0.00    +0.000 A 
ATOM     21  C   UNL     1       2.203  10.907  18.109  0.00  0.00    +0.000 A 
ATOM     22  C   UNL     1       1.546   9.687  18.365  0.00  0.00    +0.000 A 
ATOM     23  C   UNL     1       0.348   9.762  19.117  0.00  0.00    +0.000 A 
ATOM     24  C   UNL     1      -0.131  10.975  19.618  0.00  0.00    +0.000 A 
ENDBRANCH  18  22
ENDBRANCH  16  18
ENDBRANCH   1  16
TORSDOF 3
ENDMDL
MODEL 6
REMARK VINA RESULT:      -7.8      1.005      1.594
REMARK  Name = 
REMARK  3 active torsions:
REMARK  status: ('A' for Active; 'I' for Inactive)
REMARK    1  A    between atoms: C_4  and  C_5
REMARK    2  A    between atoms: C_5  and  N_6
REMARK    3  A    between atoms: N_6  and  N_7
REMARK                            x       y       z     vdW  Elec       q    Type
REMARK                         _______ _______ _______ _____ _____    ______ ____
ROOT
ATOM      1  N   UNL     1       2.062   5.999  18.786  0.00  0.00    +0.000 N 
ATOM      2  C   UNL     1       2.479   5.161  17.732  0.00  0.00    +0.000 A 
ATOM      3  N   UNL     1       3.810   5.056  17.384  0.00  0.00    +0.000 N 
ATOM      4  C   UNL     1       4.869   5.807  18.115  0.00  0.00    +0.000 C 
ATOM      5  C   UNL     1       6.080   5.916  17.162  0.00  0.00    +0.000 C 
ATOM      6  O   UNL     1       6.605   4.619  16.897  0.00  0.00    +0.000 OA
ATOM      7  C   UNL     1       5.600   3.749  16.333  0.00  0.00    +0.000 C 
ATOM      8  C   UNL     1       4.323   3.672  17.190  0.00  0.00    +0.000 C 
ATOM      9  N   UNL     1       1.515   4.258  17.610  0.00  0.00    +0.000 NA
ATOM     10  C   UNL     1       1.299   3.990  18.940  0.00  0.00    +0.000 A 
ATOM     11  C   UNL     1       0.861   2.787  19.511  0.00  0.00    +0.000 A 
ATOM     12  C   UNL     1       1.453   2.435  20.727  0.00  0.00    +0.000 A 
ATOM     13  C   UNL     1       2.344   3.305  21.374  0.00  0.00    +0.000 A 
ATOM     14  C   UNL     1       2.535   4.635  20.946  0.00  0.00    +0.000 A 
ATOM     15  C   UNL     1       1.930   4.979  19.730  0.00  0.00    +0.000 A 
ENDROOT
BRANCH   1  16
ATOM     16  N   UNL     1       2.544   7.398  18.875  0.00  0.00    +0.000 N 
ATOM     17  H   UNL     1       3.541   7.316  18.643  0.00  0.00    +0.000 HD
BRANCH  16  18
ATOM     18  C   UNL     1       2.075   8.343  17.847  0.00  0.00    +0.000 C 
BRANCH  18  22
ATOM     19  C   UNL     1       0.716  12.123  19.659  0.00  0.00    +0.000 A 
ATOM     20  C   UNL     1       0.193  10.911  20.068  0.00  0.00    +0.000 A 
ATOM     21  C   UNL     1       0.624   9.705  19.479  0.00  0.00    +0.000 A 
ATOM     22  C   UNL     1       1.599   9.689  18.462  0.00  0.00    +0.000 A 
ATOM     23  C   UNL     1       2.130  10.945  18.079  0.00  0.00    +0.000 A 
ATOM     24  C   UNL     1       1.679  12.139  18.648  0.00  0.00    +0.000 A 
ENDBRANCH  18  22
ENDBRANCH  16  18
ENDBRANCH   1  16
TORSDOF 3
ENDMDL
MODEL 7
REMARK VINA RESULT:      -7.8      2.720      6.924
REMARK  Name = 
REMARK  3 active torsions:
REMARK  status: ('A' for Active; 'I' for Inactive)
REMARK    1  A    between atoms: C_4  and  C_5
REMARK    2  A    between atoms: C_5  and  N_6
REMARK    3  A    between atoms: N_6  and  N_7
REMARK                            x       y       z     vdW  Elec       q    Type
REMARK                         _______ _______ _______ _____ _____    ______ ____
ROOT
ATOM      1  N   UNL     1       4.975   4.975  17.668  0.00  0.00    +0.000 N 
ATOM      2  C   UNL     1       4.549   5.565  18.875  0.00  0.00    +0.000 A 
ATOM      3  N   UNL     1       3.631   6.594  18.884  0.00  0.00    +0.000 N 
ATOM      4  C   UNL     1       3.032   7.117  17.623  0.00  0.00    +0.000 C 
ATOM      5  C   UNL     1       2.537   8.549  17.922  0.00  0.00    +0.000 C 
ATOM      6  O   UNL     1       1.490   8.507  18.887  0.00  0.00    +0.000 OA
ATOM      7  C   UNL     1       1.921   7.860  20.104  0.00  0.00    +0.000 C 
ATOM      8  C   UNL     1       2.517   6.461  19.863  0.00  0.00    +0.000 C 
ATOM      9  N   UNL     1       4.776   4.647  19.804  0.00  0.00    +0.000 NA
ATOM     10  C   UNL     1       4.316   3.539  19.133  0.00  0.00    +0.000 A 
ATOM     11  C   UNL     1       3.741   2.384  19.680  0.00  0.00    +0.000 A 
ATOM     12  C   UNL     1       2.678   1.831  18.963  0.00  0.00    +0.000 A 
ATOM     13  C   UNL     1       2.302   2.350  17.714  0.00  0.00    +0.000 A 
ATOM     14  C   UNL     1       3.083   3.310  17.037  0.00  0.00    +0.000 A 
ATOM     15  C   UNL     1       4.151   3.852  17.764  0.00  0.00    +0.000 A 
ENDROOT
BRANCH   1  16
ATOM     16  N   UNL     1       5.402   5.817  16.525  0.00  0.00    +0.000 N 
ATOM     17  H   UNL     1       5.504   6.747  16.945  0.00  0.00    +0.000 HD
BRANCH  16  18
ATOM     18  C   UNL     1       6.751   5.587  15.980  0.00  0.00    +0.000 C 
BRANCH  18  22
ATOM     19  C   UNL     1       6.560   3.723  11.992  0.00  0.00    +0.000 A 
ATOM     20  C   UNL     1       5.642   3.397  12.972  0.00  0.00    +0.000 A 
ATOM     21  C   UNL     1       5.713   3.989  14.250  0.00  0.00    +0.000 A 
ATOM     22  C   UNL     1       6.711   4.930  14.572  0.00  0.00    +0.000 A 
ATOM     23  C   UNL     1       7.624   5.258  13.539  0.00  0.00    +0.000 A 
ATOM     24  C   UNL     1       7.565   4.647  12.284  0.00  0.00    +0.000 A 
ENDBRANCH  18  22
ENDBRANCH  16  18
ENDBRANCH   1  16
TORSDOF 3
ENDMDL
MODEL 8
REMARK VINA RESULT:      -7.7      2.721      6.913
REMARK  Name = 
REMARK  3 active torsions:
REMARK  status: ('A' for Active; 'I' for Inactive)
REMARK    1  A    between atoms: C_4  and  C_5
REMARK    2  A    between atoms: C_5  and  N_6
REMARK    3  A    between atoms: N_6  and  N_7
REMARK                            x       y       z     vdW  Elec       q    Type
REMARK                         _______ _______ _______ _____ _____    ______ ____
ROOT
ATOM      1  N   UNL     1       4.926   4.974  17.684  0.00  0.00    +0.000 N 
ATOM      2  C   UNL     1       4.509   5.572  18.891  0.00  0.00    +0.000 A 
ATOM      3  N   UNL     1       3.592   6.603  18.900  0.00  0.00    +0.000 N 
ATOM      4  C   UNL     1       2.987   7.120  17.640  0.00  0.00    +0.000 C 
ATOM      5  C   UNL     1       2.496   8.555  17.934  0.00  0.00    +0.000 C 
ATOM      6  O   UNL     1       1.455   8.519  18.905  0.00  0.00    +0.000 OA
ATOM      7  C   UNL     1       1.893   7.879  20.124  0.00  0.00    +0.000 C 
ATOM      8  C   UNL     1       2.485   6.477  19.886  0.00  0.00    +0.000 C 
ATOM      9  N   UNL     1       4.741   4.659  19.823  0.00  0.00    +0.000 NA
ATOM     10  C   UNL     1       4.274   3.549  19.162  0.00  0.00    +0.000 A 
ATOM     11  C   UNL     1       3.701   2.398  19.719  0.00  0.00    +0.000 A 
ATOM     12  C   UNL     1       2.632   1.842  19.012  0.00  0.00    +0.000 A 
ATOM     13  C   UNL     1       2.249   2.355  17.763  0.00  0.00    +0.000 A 
ATOM     14  C   UNL     1       3.027   3.310  17.075  0.00  0.00    +0.000 A 
ATOM     15  C   UNL     1       4.101   3.853  17.792  0.00  0.00    +0.000 A 
ENDROOT
BRANCH   1  16
ATOM     16  N   UNL     1       5.347   5.809  16.534  0.00  0.00    +0.000 N 
ATOM     17  H   UNL     1       5.449   6.742  16.948  0.00  0.00    +0.000 HD
BRANCH  16  18
ATOM     18  C   UNL     1       6.694   5.577  15.984  0.00  0.00    +0.000 C 
BRANCH  18  22
ATOM     19  C   UNL     1       6.644   3.767  11.968  0.00  0.00    +0.000 A 
ATOM     20  C   UNL     1       7.617   4.682  12.321  0.00  0.00    +0.000 A 
ATOM     21  C   UNL     1       7.623   5.266  13.605  0.00  0.00    +0.000 A 
ATOM     22  C   UNL     1       6.648   4.938  14.568  0.00  0.00    +0.000 A 
ATOM     23  C   UNL     1       5.678   3.982  14.181  0.00  0.00    +0.000 A 
ATOM     24  C   UNL     1       5.661   3.428  12.899  0.00  0.00    +0.000 A 
ENDBRANCH  18  22
ENDBRANCH  16  18
ENDBRANCH   1  16
TORSDOF 3
ENDMDL
MODEL 9
REMARK VINA RESULT:      -7.7      0.692      1.355
REMARK  Name = 
REMARK  3 active torsions:
REMARK  status: ('A' for Active; 'I' for Inactive)
REMARK    1  A    between atoms: C_4  and  C_5
REMARK    2  A    between atoms: C_5  and  N_6
REMARK    3  A    between atoms: N_6  and  N_7
REMARK                            x       y       z     vdW  Elec       q    Type
REMARK                         _______ _______ _______ _____ _____    ______ ____
ROOT
ATOM      1  N   UNL     1       1.945   5.937  18.879  0.00  0.00    +0.000 N 
ATOM      2  C   UNL     1       2.412   5.175  17.789  0.00  0.00    +0.000 A 
ATOM      3  N   UNL     1       3.749   5.157  17.449  0.00  0.00    +0.000 N 
ATOM      4  C   UNL     1       4.762   5.927  18.225  0.00  0.00    +0.000 C 
ATOM      5  C   UNL     1       5.972   6.146  17.289  0.00  0.00    +0.000 C 
ATOM      6  O   UNL     1       6.567   4.893  16.967  0.00  0.00    +0.000 OA
ATOM      7  C   UNL     1       5.613   3.999  16.353  0.00  0.00    +0.000 C 
ATOM      8  C   UNL     1       4.336   3.813  17.193  0.00  0.00    +0.000 C 
ATOM      9  N   UNL     1       1.499   4.229  17.616  0.00  0.00    +0.000 NA
ATOM     10  C   UNL     1       1.289   3.885  18.929  0.00  0.00    +0.000 A 
ATOM     11  C   UNL     1       0.912   2.635  19.437  0.00  0.00    +0.000 A 
ATOM     12  C   UNL     1       1.513   2.256  20.640  0.00  0.00    +0.000 A 
ATOM     13  C   UNL     1       2.352   3.139  21.337  0.00  0.00    +0.000 A 
ATOM     14  C   UNL     1       2.476   4.497  20.975  0.00  0.00    +0.000 A 
ATOM     15  C   UNL     1       1.861   4.867  19.771  0.00  0.00    +0.000 A 
ENDROOT
BRANCH   1  16
ATOM     16  N   UNL     1       2.351   7.354  19.039  0.00  0.00    +0.000 N 
ATOM     17  H   UNL     1       1.799   7.837  18.322  0.00  0.00    +0.000 HD
BRANCH  16  18
ATOM     18  C   UNL     1       1.921   8.048  20.265  0.00  0.00    +0.000 C 
BRANCH  18  22
ATOM     19  C   UNL     1      -0.901  11.341  19.489  0.00  0.00    +0.000 A 
ATOM     20  C   UNL     1      -0.661  10.901  20.777  0.00  0.00    +0.000 A 
ATOM     21  C   UNL     1       0.235   9.840  21.019  0.00  0.00    +0.000 A 
ATOM     22  C   UNL     1       0.918   9.197  19.967  0.00  0.00    +0.000 A 
ATOM     23  C   UNL     1       0.667   9.686  18.662  0.00  0.00    +0.000 A 
ATOM     24  C   UNL     1      -0.244  10.719  18.426  0.00  0.00    +0.000 A 
ENDBRANCH  18  22
ENDBRANCH  16  18
ENDBRANCH   1  16
TORSDOF 3
ENDMDL
