MODEL 1
REMARK VINA RESULT:      -7.6      0.000      0.000
REMARK  Name = 
REMARK  12 active torsions:
REMARK  status: ('A' for Active; 'I' for Inactive)
REMARK    1  A    between atoms: C_2  and  O_3
REMARK    2  A    between atoms: C_2  and  C_4
REMARK    3  A    between atoms: C_4  and  C_5
REMARK    4  A    between atoms: C_5  and  C_6
REMARK    5  A    between atoms: C_6  and  C_7
REMARK    6  A    between atoms: C_8  and  C_9
REMARK    7  A    between atoms: C_9  and  C_10
REMARK    8  A    between atoms: C_14  and  O_15
REMARK    9  A    between atoms: C_16  and  C_17
REMARK   10  A    between atoms: C_18  and  C_19
REMARK   11  A    between atoms: C_19  and  O_20
REMARK   12  A    between atoms: C_19  and  C_21
REMARK                            x       y       z     vdW  Elec       q    Type
REMARK                         _______ _______ _______ _____ _____    ______ ____
ROOT
ATOM      1  C   UNL     1       4.701   4.119  18.612  0.00  0.00    +0.000 C 
ATOM      2  C   UNL     1       4.115   2.971  19.425  0.00  0.00    +0.000 C 
ATOM      3  O   UNL     1       4.752   2.267  20.201  0.00  0.00    +0.000 OA
ATOM      4  C   UNL     1       2.648   2.764  19.164  0.00  0.00    +0.000 C 
ATOM      5  C   UNL     1       2.481   3.539  17.866  0.00  0.00    +0.000 C 
ATOM      6  C   UNL     1       3.413   4.763  18.015  0.00  0.00    +0.000 C 
ENDROOT
BRANCH   5   7
ATOM      7  O   UNL     1       1.127   3.863  17.610  0.00  0.00    +0.000 OA
ATOM      8  H   UNL     1       0.944   3.746  16.662  0.00  0.00    +0.000 HD
ENDBRANCH   5   7
BRANCH   6   9
ATOM      9  C   UNL     1       2.806   5.848  18.892  0.00  0.00    +0.000 C 
ATOM     10  C   UNL     1       2.691   7.149  18.573  0.00  0.00    +0.000 C 
BRANCH  10  11
ATOM     11  C   UNL     1       2.140   8.166  19.548  0.00  0.00    +0.000 C 
BRANCH  11  12
ATOM     12  C   UNL     1       0.987   9.008  18.941  0.00  0.00    +0.000 C 
ATOM     13  C   UNL     1       0.225   9.829  20.001  0.00  0.00    +0.000 C 
ATOM     14  C   UNL     1       0.895  11.139  19.819  0.00  0.00    +0.000 A 
ATOM     15  C   UNL     1       0.845  12.280  20.601  0.00  0.00    +0.000 A 
ATOM     16  C   UNL     1       1.567  13.398  20.181  0.00  0.00    +0.000 A 
ATOM     17  C   UNL     1       2.320  13.365  18.994  0.00  0.00    +0.000 A 
ATOM     18  C   UNL     1       2.338  12.215  18.203  0.00  0.00    +0.000 A 
ATOM     19  C   UNL     1       1.615  11.125  18.637  0.00  0.00    +0.000 A 
ATOM     20  O   UNL     1       1.531   9.937  17.961  0.00  0.00    +0.000 OA
ENDBRANCH  11  12
BRANCH  11  21
ATOM     21  O   UNL     1       1.725   7.471  20.723  0.00  0.00    +0.000 OA
ATOM     22  H   UNL     1       2.382   6.784  20.920  0.00  0.00    +0.000 HD
ENDBRANCH  11  21
ENDBRANCH  10  11
ENDBRANCH   6   9
BRANCH   1  23
ATOM     23  C   UNL     1       5.561   5.078  19.438  0.00  0.00    +0.000 C 
BRANCH  23  25
ATOM     24  C   UNL     1       7.364   6.073  17.936  0.00  0.00    +0.000 C 
ATOM     25  C   UNL     1       6.967   5.270  18.934  0.00  0.00    +0.000 C 
BRANCH  24  26
ATOM     26  C   UNL     1       6.469   6.873  17.033  0.00  0.00    +0.000 C 
BRANCH  26  27
ATOM     27  C   UNL     1       5.883   6.035  15.892  0.00  0.00    +0.000 C 
BRANCH  27  28
ATOM     28  C   UNL     1       6.709   4.801  15.531  0.00  0.00    +0.000 C 
BRANCH  28  30
ATOM     29  O   UNL     1       6.535   3.993  13.263  0.00  0.00    +0.000 OA
ATOM     30  C   UNL     1       7.046   4.767  14.060  0.00  0.00    +0.000 C 
BRANCH  30  31
ATOM     31  O   UNL     1       7.988   5.662  13.691  0.00  0.00    +0.000 OA
ATOM     32  H   UNL     1       8.432   6.105  14.440  0.00  0.00    +0.000 HD
ENDBRANCH  30  31
ENDBRANCH  28  30
ENDBRANCH  27  28
ENDBRANCH  26  27
ENDBRANCH  24  26
ENDBRANCH  23  25
ENDBRANCH   1  23
TORSDOF 12
ENDMDL
MODEL 2
REMARK VINA RESULT:      -7.3      1.041      1.221
REMARK  Name = 
REMARK  12 active torsions:
REMARK  status: ('A' for Active; 'I' for Inactive)
REMARK    1  A    between atoms: C_2  and  O_3
REMARK    2  A    between atoms: C_2  and  C_4
REMARK    3  A    between atoms: C_4  and  C_5
REMARK    4  A    between atoms: C_5  and  C_6
REMARK    5  A    between atoms: C_6  and  C_7
REMARK    6  A    between atoms: C_8  and  C_9
REMARK    7  A    between atoms: C_9  and  C_10
REMARK    8  A    between atoms: C_14  and  O_15
REMARK    9  A    between atoms: C_16  and  C_17
REMARK   10  A    between atoms: C_18  and  C_19
REMARK   11  A    between atoms: C_19  and  O_20
REMARK   12  A    between atoms: C_19  and  C_21
REMARK                            x       y       z     vdW  Elec       q    Type
REMARK                         _______ _______ _______ _____ _____    ______ ____
ROOT
ATOM      1  C   UNL     1       4.674   3.742  18.284  0.00  0.00    +0.000 C 
ATOM      2  C   UNL     1       4.207   2.794  19.382  0.00  0.00    +0.000 C 
ATOM      3  O   UNL     1       4.951   2.175  20.135  0.00  0.00    +0.000 OA
ATOM      4  C   UNL     1       2.709   2.672  19.446  0.00  0.00    +0.000 C 
ATOM      5  C   UNL     1       2.323   3.236  18.087  0.00  0.00    +0.000 C 
ATOM      6  C   UNL     1       3.326   4.386  17.839  0.00  0.00    +0.000 C 
ENDROOT
BRANCH   5   7
ATOM      7  O   UNL     1       0.963   3.627  18.040  0.00  0.00    +0.000 OA
ATOM      8  H   UNL     1       0.729   3.861  17.125  0.00  0.00    +0.000 HD
ENDBRANCH   5   7
BRANCH   6   9
ATOM      9  C   UNL     1       2.963   5.646  18.610  0.00  0.00    +0.000 C 
ATOM     10  C   UNL     1       2.558   6.810  18.074  0.00  0.00    +0.000 C 
BRANCH  10  11
ATOM     11  C   UNL     1       2.292   8.033  18.925  0.00  0.00    +0.000 C 
BRANCH  11  12
ATOM     12  C   UNL     1       1.202   8.955  18.319  0.00  0.00    +0.000 C 
ATOM     13  C   UNL     1       0.380   9.696  19.393  0.00  0.00    +0.000 C 
ATOM     14  C   UNL     1       1.086  11.000  19.381  0.00  0.00    +0.000 A 
ATOM     15  C   UNL     1       1.000  12.065  20.260  0.00  0.00    +0.000 A 
ATOM     16  C   UNL     1       1.772  13.199  19.997  0.00  0.00    +0.000 A 
ATOM     17  C   UNL     1       2.609  13.254  18.868  0.00  0.00    +0.000 A 
ATOM     18  C   UNL     1       2.662  12.181  17.977  0.00  0.00    +0.000 A 
ATOM     19  C   UNL     1       1.890  11.074  18.256  0.00  0.00    +0.000 A 
ATOM     20  O   UNL     1       1.833   9.955  17.469  0.00  0.00    +0.000 OA
ENDBRANCH  11  12
BRANCH  11  21
ATOM     21  O   UNL     1       1.942   7.591  20.236  0.00  0.00    +0.000 OA
ATOM     22  H   UNL     1       1.122   8.039  20.500  0.00  0.00    +0.000 HD
ENDBRANCH  11  21
ENDBRANCH  10  11
ENDBRANCH   6   9
BRANCH   1  23
ATOM     23  C   UNL     1       5.730   4.747  18.749  0.00  0.00    +0.000 C 
BRANCH  23  25
ATOM     24  C   UNL     1       7.032   5.233  16.614  0.00  0.00    +0.000 C 
ATOM     25  C   UNL     1       6.962   4.823  17.888  0.00  0.00    +0.000 C 
BRANCH  24  26
ATOM     26  C   UNL     1       5.870   5.601  15.736  0.00  0.00    +0.000 C 
BRANCH  26  27
ATOM     27  C   UNL     1       6.103   5.236  14.266  0.00  0.00    +0.000 C 
BRANCH  27  28
ATOM     28  C   UNL     1       6.302   3.742  14.015  0.00  0.00    +0.000 C 
BRANCH  28  30
ATOM     29  O   UNL     1       4.759   3.615  12.163  0.00  0.00    +0.000 OA
ATOM     30  C   UNL     1       5.856   3.346  12.628  0.00  0.00    +0.000 C 
BRANCH  30  31
ATOM     31  O   UNL     1       6.778   2.641  11.936  0.00  0.00    +0.000 OA
ATOM     32  H   UNL     1       7.480   2.250  12.491  0.00  0.00    +0.000 HD
ENDBRANCH  30  31
ENDBRANCH  28  30
ENDBRANCH  27  28
ENDBRANCH  26  27
ENDBRANCH  24  26
ENDBRANCH  23  25
ENDBRANCH   1  23
TORSDOF 12
ENDMDL
MODEL 3
REMARK VINA RESULT:      -7.3      2.249      7.323
REMARK  Name = 
REMARK  12 active torsions:
REMARK  status: ('A' for Active; 'I' for Inactive)
REMARK    1  A    between atoms: C_2  and  O_3
REMARK    2  A    between atoms: C_2  and  C_4
REMARK    3  A    between atoms: C_4  and  C_5
REMARK    4  A    between atoms: C_5  and  C_6
REMARK    5  A    between atoms: C_6  and  C_7
REMARK    6  A    between atoms: C_8  and  C_9
REMARK    7  A    between atoms: C_9  and  C_10
REMARK    8  A    between atoms: C_14  and  O_15
REMARK    9  A    between atoms: C_16  and  C_17
REMARK   10  A    between atoms: C_18  and  C_19
REMARK   11  A    between atoms: C_19  and  O_20
REMARK   12  A    between atoms: C_19  and  C_21
REMARK                            x       y       z     vdW  Elec       q    Type
REMARK                         _______ _______ _______ _____ _____    ______ ____
ROOT
ATOM      1  C   UNL     1       1.714   6.525  19.513  0.00  0.00    +0.000 C 
ATOM      2  C   UNL     1       1.676   7.824  20.309  0.00  0.00    +0.000 C 
ATOM      3  O   UNL     1       1.469   7.898  21.516  0.00  0.00    +0.000 OA
ATOM      4  C   UNL     1       1.902   9.038  19.452  0.00  0.00    +0.000 C 
ATOM      5  C   UNL     1       1.650   8.457  18.069  0.00  0.00    +0.000 C 
ATOM      6  C   UNL     1       2.233   7.026  18.131  0.00  0.00    +0.000 C 
ENDROOT
BRANCH   5   7
ATOM      7  O   UNL     1       2.196   9.266  17.043  0.00  0.00    +0.000 OA
ATOM      8  H   UNL     1       2.539  10.088  17.434  0.00  0.00    +0.000 HD
ENDBRANCH   5   7
BRANCH   6   9
ATOM      9  C   UNL     1       3.749   7.014  18.003  0.00  0.00    +0.000 C 
ATOM     10  C   UNL     1       4.472   6.146  17.274  0.00  0.00    +0.000 C 
BRANCH  10  11
ATOM     11  C   UNL     1       5.985   6.170  17.272  0.00  0.00    +0.000 C 
BRANCH  11  12
ATOM     12  C   UNL     1       6.602   4.790  16.923  0.00  0.00    +0.000 C 
ATOM     13  C   UNL     1       5.587   3.829  16.271  0.00  0.00    +0.000 C 
ATOM     14  C   UNL     1       5.945   4.030  14.846  0.00  0.00    +0.000 A 
ATOM     15  C   UNL     1       5.284   3.630  13.698  0.00  0.00    +0.000 A 
ATOM     16  C   UNL     1       5.862   3.937  12.466  0.00  0.00    +0.000 A 
ATOM     17  C   UNL     1       7.085   4.628  12.395  0.00  0.00    +0.000 A 
ATOM     18  C   UNL     1       7.752   4.999  13.564  0.00  0.00    +0.000 A 
ATOM     19  C   UNL     1       7.163   4.684  14.769  0.00  0.00    +0.000 A 
ATOM     20  O   UNL     1       7.706   4.975  15.992  0.00  0.00    +0.000 OA
ENDBRANCH  11  12
BRANCH  11  21
ATOM     21  O   UNL     1       6.409   7.183  16.362  0.00  0.00    +0.000 OA
ATOM     22  H   UNL     1       5.688   7.351  15.734  0.00  0.00    +0.000 HD
ENDBRANCH  11  21
ENDBRANCH  10  11
ENDBRANCH   6   9
BRANCH   1  23
ATOM     23  C   UNL     1       2.579   5.438  20.154  0.00  0.00    +0.000 C 
BRANCH  23  25
ATOM     24  C   UNL     1       2.287   3.143  21.222  0.00  0.00    +0.000 C 
ATOM     25  C   UNL     1       1.816   4.341  20.847  0.00  0.00    +0.000 C 
BRANCH  24  26
ATOM     26  C   UNL     1       3.655   2.598  20.930  0.00  0.00    +0.000 C 
BRANCH  26  27
ATOM     27  C   UNL     1       4.022   2.690  19.444  0.00  0.00    +0.000 C 
BRANCH  27  28
ATOM     28  C   UNL     1       3.271   1.703  18.551  0.00  0.00    +0.000 C 
BRANCH  28  30
ATOM     29  O   UNL     1       2.233   3.280  17.046  0.00  0.00    +0.000 OA
ATOM     30  C   UNL     1       2.111   2.363  17.844  0.00  0.00    +0.000 C 
BRANCH  30  31
ATOM     31  O   UNL     1       0.904   1.861  18.185  0.00  0.00    +0.000 OA
ATOM     32  H   UNL     1       0.915   1.307  18.989  0.00  0.00    +0.000 HD
ENDBRANCH  30  31
ENDBRANCH  28  30
ENDBRANCH  27  28
ENDBRANCH  26  27
ENDBRANCH  24  26
ENDBRANCH  23  25
ENDBRANCH   1  23
TORSDOF 12
ENDMDL
MODEL 4
REMARK VINA RESULT:      -7.2      2.196      7.363
REMARK  Name = 
REMARK  12 active torsions:
REMARK  status: ('A' for Active; 'I' for Inactive)
REMARK    1  A    between atoms: C_2  and  O_3
REMARK    2  A    between atoms: C_2  and  C_4
REMARK    3  A    between atoms: C_4  and  C_5
REMARK    4  A    between atoms: C_5  and  C_6
REMARK    5  A    between atoms: C_6  and  C_7
REMARK    6  A    between atoms: C_8  and  C_9
REMARK    7  A    between atoms: C_9  and  C_10
REMARK    8  A    between atoms: C_14  and  O_15
REMARK    9  A    between atoms: C_16  and  C_17
REMARK   10  A    between atoms: C_18  and  C_19
REMARK   11  A    between atoms: C_19  and  O_20
REMARK   12  A    between atoms: C_19  and  C_21
REMARK                            x       y       z     vdW  Elec       q    Type
REMARK                         _______ _______ _______ _____ _____    ______ ____
ROOT
ATOM      1  C   UNL     1       1.538   6.890  19.523  0.00  0.00    +0.000 C 
ATOM      2  C   UNL     1       1.566   8.166  20.356  0.00  0.00    +0.000 C 
ATOM      3  O   UNL     1       1.357   8.219  21.563  0.00  0.00    +0.000 OA
ATOM      4  C   UNL     1       1.863   9.390  19.533  0.00  0.00    +0.000 C 
ATOM      5  C   UNL     1       1.588   8.861  18.134  0.00  0.00    +0.000 C 
ATOM      6  C   UNL     1       2.091   7.400  18.158  0.00  0.00    +0.000 C 
ENDROOT
BRANCH   5   7
ATOM      7  O   UNL     1       2.183   9.668  17.133  0.00  0.00    +0.000 OA
ATOM      8  H   UNL     1       2.935   9.190  16.743  0.00  0.00    +0.000 HD
ENDBRANCH   5   7
BRANCH   6   9
ATOM      9  C   UNL     1       3.604   7.308  18.035  0.00  0.00    +0.000 C 
ATOM     10  C   UNL     1       4.284   6.400  17.314  0.00  0.00    +0.000 C 
BRANCH  10  11
ATOM     11  C   UNL     1       5.797   6.345  17.317  0.00  0.00    +0.000 C 
BRANCH  11  12
ATOM     12  C   UNL     1       6.341   4.918  17.045  0.00  0.00    +0.000 C 
ATOM     13  C   UNL     1       5.317   4.014  16.331  0.00  0.00    +0.000 C 
ATOM     14  C   UNL     1       5.801   4.155  14.937  0.00  0.00    +0.000 A 
ATOM     15  C   UNL     1       5.208   3.774  13.746  0.00  0.00    +0.000 A 
ATOM     16  C   UNL     1       5.903   4.011  12.559  0.00  0.00    +0.000 A 
ATOM     17  C   UNL     1       7.172   4.615  12.576  0.00  0.00    +0.000 A 
ATOM     18  C   UNL     1       7.768   4.968  13.787  0.00  0.00    +0.000 A 
ATOM     19  C   UNL     1       7.064   4.723  14.946  0.00  0.00    +0.000 A 
ATOM     20  O   UNL     1       7.526   5.005  16.204  0.00  0.00    +0.000 OA
ENDBRANCH  11  12
BRANCH  11  21
ATOM     21  O   UNL     1       6.274   7.285  16.356  0.00  0.00    +0.000 OA
ATOM     22  H   UNL     1       5.903   7.052  15.490  0.00  0.00    +0.000 HD
ENDBRANCH  11  21
ENDBRANCH  10  11
ENDBRANCH   6   9
BRANCH   1  23
ATOM     23  C   UNL     1       2.339   5.740  20.138  0.00  0.00    +0.000 C 
BRANCH  23  25
ATOM     24  C   UNL     1       1.209   3.492  19.734  0.00  0.00    +0.000 C 
ATOM     25  C   UNL     1       1.529   4.530  20.520  0.00  0.00    +0.000 C 
BRANCH  24  26
ATOM     26  C   UNL     1       1.500   3.370  18.266  0.00  0.00    +0.000 C 
BRANCH  26  27
ATOM     27  C   UNL     1       2.735   2.508  17.980  0.00  0.00    +0.000 C 
BRANCH  27  28
ATOM     28  C   UNL     1       3.176   1.635  19.154  0.00  0.00    +0.000 C 
BRANCH  28  30
ATOM     29  O   UNL     1       5.043   3.111  19.557  0.00  0.00    +0.000 OA
ATOM     30  C   UNL     1       4.220   2.324  20.000  0.00  0.00    +0.000 C 
BRANCH  30  31
ATOM     31  O   UNL     1       4.182   1.980  21.306  0.00  0.00    +0.000 OA
ATOM     32  H   UNL     1       4.593   1.116  21.503  0.00  0.00    +0.000 HD
ENDBRANCH  30  31
ENDBRANCH  28  30
ENDBRANCH  27  28
ENDBRANCH  26  27
ENDBRANCH  24  26
ENDBRANCH  23  25
ENDBRANCH   1  23
TORSDOF 12
ENDMDL
MODEL 5
REMARK VINA RESULT:      -7.2      2.664      8.324
REMARK  Name = 
REMARK  12 active torsions:
REMARK  status: ('A' for Active; 'I' for Inactive)
REMARK    1  A    between atoms: C_2  and  O_3
REMARK    2  A    between atoms: C_2  and  C_4
REMARK    3  A    between atoms: C_4  and  C_5
REMARK    4  A    between atoms: C_5  and  C_6
REMARK    5  A    between atoms: C_6  and  C_7
REMARK    6  A    between atoms: C_8  and  C_9
REMARK    7  A    between atoms: C_9  and  C_10
REMARK    8  A    between atoms: C_14  and  O_15
REMARK    9  A    between atoms: C_16  and  C_17
REMARK   10  A    between atoms: C_18  and  C_19
REMARK   11  A    between atoms: C_19  and  O_20
REMARK   12  A    between atoms: C_19  and  C_21
REMARK                            x       y       z     vdW  Elec       q    Type
REMARK                         _______ _______ _______ _____ _____    ______ ____
ROOT
ATOM      1  C   UNL     1       2.420   4.370  19.165  0.00  0.00    +0.000 C 
ATOM      2  C   UNL     1       1.754   3.016  18.949  0.00  0.00    +0.000 C 
ATOM      3  O   UNL     1       0.630   2.854  18.486  0.00  0.00    +0.000 OA
ATOM      4  C   UNL     1       2.621   1.867  19.387  0.00  0.00    +0.000 C 
ATOM      5  C   UNL     1       3.634   2.595  20.257  0.00  0.00    +0.000 C 
ATOM      6  C   UNL     1       3.871   3.945  19.541  0.00  0.00    +0.000 C 
ENDROOT
BRANCH   5   7
ATOM      7  O   UNL     1       4.808   1.829  20.462  0.00  0.00    +0.000 OA
ATOM      8  H   UNL     1       5.354   2.257  21.143  0.00  0.00    +0.000 HD
ENDBRANCH   5   7
BRANCH   6   9
ATOM      9  C   UNL     1       4.801   3.809  18.345  0.00  0.00    +0.000 C 
ATOM     10  C   UNL     1       5.938   4.497  18.147  0.00  0.00    +0.000 C 
BRANCH  10  11
ATOM     11  C   UNL     1       6.757   4.344  16.883  0.00  0.00    +0.000 C 
BRANCH  11  12
ATOM     12  C   UNL     1       6.374   5.381  15.796  0.00  0.00    +0.000 C 
ATOM     13  C   UNL     1       7.474   5.565  14.731  0.00  0.00    +0.000 C 
ATOM     14  C   UNL     1       6.934   4.680  13.671  0.00  0.00    +0.000 A 
ATOM     15  C   UNL     1       7.531   4.212  12.514  0.00  0.00    +0.000 A 
ATOM     16  C   UNL     1       6.777   3.398  11.667  0.00  0.00    +0.000 A 
ATOM     17  C   UNL     1       5.447   3.067  11.982  0.00  0.00    +0.000 A 
ATOM     18  C   UNL     1       4.851   3.570  13.140  0.00  0.00    +0.000 A 
ATOM     19  C   UNL     1       5.614   4.374  13.959  0.00  0.00    +0.000 A 
ATOM     20  O   UNL     1       5.161   4.946  15.118  0.00  0.00    +0.000 OA
ENDBRANCH  11  12
BRANCH  11  21
ATOM     21  O   UNL     1       8.136   4.434  17.238  0.00  0.00    +0.000 OA
ATOM     22  H   UNL     1       8.230   5.106  17.931  0.00  0.00    +0.000 HD
ENDBRANCH  11  21
ENDBRANCH  10  11
ENDBRANCH   6   9
BRANCH   1  23
ATOM     23  C   UNL     1       2.329   5.297  17.951  0.00  0.00    +0.000 C 
BRANCH  23  25
ATOM     24  C   UNL     1       2.424   7.479  19.263  0.00  0.00    +0.000 C 
ATOM     25  C   UNL     1       2.743   6.722  18.203  0.00  0.00    +0.000 C 
BRANCH  24  26
ATOM     26  C   UNL     1       1.491   7.097  20.377  0.00  0.00    +0.000 C 
BRANCH  26  27
ATOM     27  C   UNL     1       1.338   8.206  21.424  0.00  0.00    +0.000 C 
BRANCH  27  28
ATOM     28  C   UNL     1      -0.074   8.782  21.526  0.00  0.00    +0.000 C 
BRANCH  28  30
ATOM     29  O   UNL     1       0.400   9.649  23.728  0.00  0.00    +0.000 OA
ATOM     30  C   UNL     1      -0.194   9.763  22.666  0.00  0.00    +0.000 C 
BRANCH  30  31
ATOM     31  O   UNL     1      -1.041  10.787  22.421  0.00  0.00    +0.000 OA
ATOM     32  H   UNL     1      -1.845  10.531  21.929  0.00  0.00    +0.000 HD
ENDBRANCH  30  31
ENDBRANCH  28  30
ENDBRANCH  27  28
ENDBRANCH  26  27
ENDBRANCH  24  26
ENDBRANCH  23  25
ENDBRANCH   1  23
TORSDOF 12
ENDMDL
MODEL 6
REMARK VINA RESULT:      -7.1      2.031      2.913
REMARK  Name = 
REMARK  12 active torsions:
REMARK  status: ('A' for Active; 'I' for Inactive)
REMARK    1  A    between atoms: C_2  and  O_3
REMARK    2  A    between atoms: C_2  and  C_4
REMARK    3  A    between atoms: C_4  and  C_5
REMARK    4  A    between atoms: C_5  and  C_6
REMARK    5  A    between atoms: C_6  and  C_7
REMARK    6  A    between atoms: C_8  and  C_9
REMARK    7  A    between atoms: C_9  and  C_10
REMARK    8  A    between atoms: C_14  and  O_15
REMARK    9  A    between atoms: C_16  and  C_17
REMARK   10  A    between atoms: C_18  and  C_19
REMARK   11  A    between atoms: C_19  and  O_20
REMARK   12  A    between atoms: C_19  and  C_21
REMARK                            x       y       z     vdW  Elec       q    Type
REMARK                         _______ _______ _______ _____ _____    ______ ____
ROOT
ATOM      1  C   UNL     1       3.155   2.998  17.629  0.00  0.00    +0.000 C 
ATOM      2  C   UNL     1       3.205   1.994  18.774  0.00  0.00    +0.000 C 
ATOM      3  O   UNL     1       4.126   1.210  18.978  0.00  0.00    +0.000 OA
ATOM      4  C   UNL     1       1.979   2.044  19.644  0.00  0.00    +0.000 C 
ATOM      5  C   UNL     1       1.021   2.799  18.736  0.00  0.00    +0.000 C 
ATOM      6  C   UNL     1       1.903   3.843  18.014  0.00  0.00    +0.000 C 
ENDROOT
BRANCH   5   7
ATOM      7  O   UNL     1      -0.069   3.351  19.453  0.00  0.00    +0.000 OA
ATOM      8  H   UNL     1       0.266   4.005  20.090  0.00  0.00    +0.000 HD
ENDBRANCH   5   7
BRANCH   6   9
ATOM      9  C   UNL     1       2.219   5.042  18.895  0.00  0.00    +0.000 C 
ATOM     10  C   UNL     1       1.790   6.300  18.700  0.00  0.00    +0.000 C 
BRANCH  10  11
ATOM     11  C   UNL     1       2.223   7.442  19.594  0.00  0.00    +0.000 C 
BRANCH  11  12
ATOM     12  C   UNL     1       2.336   8.787  18.830  0.00  0.00    +0.000 C 
ATOM     13  C   UNL     1       1.479   8.821  17.549  0.00  0.00    +0.000 C 
ATOM     14  C   UNL     1       0.295   9.545  18.070  0.00  0.00    +0.000 A 
ATOM     15  C   UNL     1      -0.953   9.732  17.502  0.00  0.00    +0.000 A 
ATOM     16  C   UNL     1      -1.892  10.484  18.211  0.00  0.00    +0.000 A 
ATOM     17  C   UNL     1      -1.574  11.038  19.464  0.00  0.00    +0.000 A 
ATOM     18  C   UNL     1      -0.301  10.863  20.009  0.00  0.00    +0.000 A 
ATOM     19  C   UNL     1       0.609  10.118  19.290  0.00  0.00    +0.000 A 
ATOM     20  O   UNL     1       1.895   9.872  19.694  0.00  0.00    +0.000 OA
ENDBRANCH  11  12
BRANCH  11  21
ATOM     21  O   UNL     1       1.300   7.526  20.679  0.00  0.00    +0.000 OA
ATOM     22  H   UNL     1       1.547   6.863  21.343  0.00  0.00    +0.000 HD
ENDBRANCH  11  21
ENDBRANCH  10  11
ENDBRANCH   6   9
BRANCH   1  23
ATOM     23  C   UNL     1       4.441   3.812  17.470  0.00  0.00    +0.000 C 
BRANCH  23  25
ATOM     24  C   UNL     1       5.212   5.194  15.473  0.00  0.00    +0.000 C 
ATOM     25  C   UNL     1       4.889   4.027  16.049  0.00  0.00    +0.000 C 
BRANCH  24  26
ATOM     26  C   UNL     1       5.088   6.554  16.097  0.00  0.00    +0.000 C 
BRANCH  26  27
ATOM     27  C   UNL     1       5.808   6.652  17.446  0.00  0.00    +0.000 C 
BRANCH  27  28
ATOM     28  C   UNL     1       7.304   6.347  17.382  0.00  0.00    +0.000 C 
BRANCH  28  30
ATOM     29  O   UNL     1       7.556   5.199  19.491  0.00  0.00    +0.000 OA
ATOM     30  C   UNL     1       7.674   5.187  18.274  0.00  0.00    +0.000 C 
BRANCH  30  31
ATOM     31  O   UNL     1       8.174   4.122  17.610  0.00  0.00    +0.000 OA
ATOM     32  H   UNL     1       7.703   3.914  16.780  0.00  0.00    +0.000 HD
ENDBRANCH  30  31
ENDBRANCH  28  30
ENDBRANCH  27  28
ENDBRANCH  26  27
ENDBRANCH  24  26
ENDBRANCH  23  25
ENDBRANCH   1  23
TORSDOF 12
ENDMDL
MODEL 7
REMARK VINA RESULT:      -7.1      1.438      1.789
REMARK  Name = 
REMARK  12 active torsions:
REMARK  status: ('A' for Active; 'I' for Inactive)
REMARK    1  A    between atoms: C_2  and  O_3
REMARK    2  A    between atoms: C_2  and  C_4
REMARK    3  A    between atoms: C_4  and  C_5
REMARK    4  A    between atoms: C_5  and  C_6
REMARK    5  A    between atoms: C_6  and  C_7
REMARK    6  A    between atoms: C_8  and  C_9
REMARK    7  A    between atoms: C_9  and  C_10
REMARK    8  A    between atoms: C_14  and  O_15
REMARK    9  A    between atoms: C_16  and  C_17
REMARK   10  A    between atoms: C_18  and  C_19
REMARK   11  A    between atoms: C_19  and  O_20
REMARK   12  A    between atoms: C_19  and  C_21
REMARK                            x       y       z     vdW  Elec       q    Type
REMARK                         _______ _______ _______ _____ _____    ______ ____
ROOT
ATOM      1  C   UNL     1       3.886   3.914  18.341  0.00  0.00    +0.000 C 
ATOM      2  C   UNL     1       4.123   3.109  19.613  0.00  0.00    +0.000 C 
ATOM      3  O   UNL     1       5.208   2.655  19.962  0.00  0.00    +0.000 OA
ATOM      4  C   UNL     1       2.866   2.902  20.412  0.00  0.00    +0.000 C 
ATOM      5  C   UNL     1       1.812   3.236  19.369  0.00  0.00    +0.000 C 
ATOM      6  C   UNL     1       2.419   4.400  18.552  0.00  0.00    +0.000 C 
ENDROOT
BRANCH   5   7
ATOM      7  O   UNL     1       0.556   3.527  19.955  0.00  0.00    +0.000 OA
ATOM      8  H   UNL     1      -0.152   3.280  19.335  0.00  0.00    +0.000 HD
ENDBRANCH   5   7
BRANCH   6   9
ATOM      9  C   UNL     1       2.312   5.732  19.277  0.00  0.00    +0.000 C 
ATOM     10  C   UNL     1       2.003   6.913  18.716  0.00  0.00    +0.000 C 
BRANCH  10  11
ATOM     11  C   UNL     1       1.995   8.200  19.512  0.00  0.00    +0.000 C 
BRANCH  11  12
ATOM     12  C   UNL     1       0.845   9.153  19.093  0.00  0.00    +0.000 C 
ATOM     13  C   UNL     1       0.319  10.007  20.264  0.00  0.00    +0.000 C 
ATOM     14  C   UNL     1       1.068  11.260  20.005  0.00  0.00    +0.000 A 
ATOM     15  C   UNL     1       1.232  12.379  20.802  0.00  0.00    +0.000 A 
ATOM     16  C   UNL     1       1.981  13.443  20.296  0.00  0.00    +0.000 A 
ATOM     17  C   UNL     1       2.548  13.378  19.011  0.00  0.00    +0.000 A 
ATOM     18  C   UNL     1       2.350  12.253  18.210  0.00  0.00    +0.000 A 
ATOM     19  C   UNL     1       1.605  11.216  18.729  0.00  0.00    +0.000 A 
ATOM     20  O   UNL     1       1.320  10.058  18.056  0.00  0.00    +0.000 OA
ENDBRANCH  11  12
BRANCH  11  21
ATOM     21  O   UNL     1       1.924   7.862  20.896  0.00  0.00    +0.000 OA
ATOM     22  H   UNL     1       1.023   8.042  21.208  0.00  0.00    +0.000 HD
ENDBRANCH  11  21
ENDBRANCH  10  11
ENDBRANCH   6   9
BRANCH   1  23
ATOM     23  C   UNL     1       4.899   5.042  18.132  0.00  0.00    +0.000 C 
BRANCH  23  25
ATOM     24  C   UNL     1       5.324   5.762  15.725  0.00  0.00    +0.000 C 
ATOM     25  C   UNL     1       4.681   5.874  16.896  0.00  0.00    +0.000 C 
BRANCH  24  26
ATOM     26  C   UNL     1       6.479   4.848  15.432  0.00  0.00    +0.000 C 
BRANCH  26  27
ATOM     27  C   UNL     1       6.106   3.718  14.466  0.00  0.00    +0.000 C 
BRANCH  27  28
ATOM     28  C   UNL     1       6.446   4.005  13.004  0.00  0.00    +0.000 C 
BRANCH  28  30
ATOM     29  O   UNL     1       4.583   3.309  11.635  0.00  0.00    +0.000 OA
ATOM     30  C   UNL     1       5.704   3.082  12.068  0.00  0.00    +0.000 C 
BRANCH  30  31
ATOM     31  O   UNL     1       6.382   1.956  11.756  0.00  0.00    +0.000 OA
ATOM     32  H   UNL     1       7.289   1.923  12.117  0.00  0.00    +0.000 HD
ENDBRANCH  30  31
ENDBRANCH  28  30
ENDBRANCH  27  28
ENDBRANCH  26  27
ENDBRANCH  24  26
ENDBRANCH  23  25
ENDBRANCH   1  23
TORSDOF 12
ENDMDL
MODEL 8
REMARK VINA RESULT:      -7.0      1.957      8.050
REMARK  Name = 
REMARK  12 active torsions:
REMARK  status: ('A' for Active; 'I' for Inactive)
REMARK    1  A    between atoms: C_2  and  O_3
REMARK    2  A    between atoms: C_2  and  C_4
REMARK    3  A    between atoms: C_4  and  C_5
REMARK    4  A    between atoms: C_5  and  C_6
REMARK    5  A    between atoms: C_6  and  C_7
REMARK    6  A    between atoms: C_8  and  C_9
REMARK    7  A    between atoms: C_9  and  C_10
REMARK    8  A    between atoms: C_14  and  O_15
REMARK    9  A    between atoms: C_16  and  C_17
REMARK   10  A    between atoms: C_18  and  C_19
REMARK   11  A    between atoms: C_19  and  O_20
REMARK   12  A    between atoms: C_19  and  C_21
REMARK                            x       y       z     vdW  Elec       q    Type
REMARK                         _______ _______ _______ _____ _____    ______ ____
ROOT
ATOM      1  C   UNL     1       2.482   4.663  19.217  0.00  0.00    +0.000 C 
ATOM      2  C   UNL     1       1.697   3.364  19.077  0.00  0.00    +0.000 C 
ATOM      3  O   UNL     1       0.539   3.285  18.680  0.00  0.00    +0.000 OA
ATOM      4  C   UNL     1       2.491   2.158  19.500  0.00  0.00    +0.000 C 
ATOM      5  C   UNL     1       3.607   2.820  20.292  0.00  0.00    +0.000 C 
ATOM      6  C   UNL     1       3.913   4.127  19.526  0.00  0.00    +0.000 C 
ENDROOT
BRANCH   5   7
ATOM      7  O   UNL     1       4.724   1.964  20.456  0.00  0.00    +0.000 OA
ATOM      8  H   UNL     1       5.443   2.263  19.874  0.00  0.00    +0.000 HD
ENDBRANCH   5   7
BRANCH   6   9
ATOM      9  C   UNL     1       4.759   3.886  18.286  0.00  0.00    +0.000 C 
ATOM     10  C   UNL     1       5.960   4.434  18.030  0.00  0.00    +0.000 C 
BRANCH  10  11
ATOM     11  C   UNL     1       6.691   4.189  16.728  0.00  0.00    +0.000 C 
BRANCH  11  12
ATOM     12  C   UNL     1       6.343   5.240  15.643  0.00  0.00    +0.000 C 
ATOM     13  C   UNL     1       7.455   5.400  14.587  0.00  0.00    +0.000 C 
ATOM     14  C   UNL     1       6.900   4.534  13.519  0.00  0.00    +0.000 A 
ATOM     15  C   UNL     1       7.494   4.055  12.364  0.00  0.00    +0.000 A 
ATOM     16  C   UNL     1       6.726   3.264  11.509  0.00  0.00    +0.000 A 
ATOM     17  C   UNL     1       5.385   2.966  11.812  0.00  0.00    +0.000 A 
ATOM     18  C   UNL     1       4.794   3.480  12.968  0.00  0.00    +0.000 A 
ATOM     19  C   UNL     1       5.571   4.260  13.796  0.00  0.00    +0.000 A 
ATOM     20  O   UNL     1       5.125   4.839  14.954  0.00  0.00    +0.000 OA
ENDBRANCH  11  12
BRANCH  11  21
ATOM     21  O   UNL     1       8.090   4.159  17.007  0.00  0.00    +0.000 OA
ATOM     22  H   UNL     1       8.541   3.730  16.262  0.00  0.00    +0.000 HD
ENDBRANCH  11  21
ENDBRANCH  10  11
ENDBRANCH   6   9
BRANCH   1  23
ATOM     23  C   UNL     1       2.399   5.565  17.984  0.00  0.00    +0.000 C 
BRANCH  23  25
ATOM     24  C   UNL     1       2.886   8.066  18.000  0.00  0.00    +0.000 C 
ATOM     25  C   UNL     1       3.280   6.784  18.024  0.00  0.00    +0.000 C 
BRANCH  24  26
ATOM     26  C   UNL     1       1.478   8.556  17.815  0.00  0.00    +0.000 C 
BRANCH  26  27
ATOM     27  C   UNL     1       1.215   9.879  18.543  0.00  0.00    +0.000 C 
BRANCH  27  28
ATOM     28  C   UNL     1      -0.022   9.866  19.440  0.00  0.00    +0.000 C 
BRANCH  28  30
ATOM     29  O   UNL     1       1.074  10.463  21.507  0.00  0.00    +0.000 OA
ATOM     30  C   UNL     1       0.346   9.696  20.894  0.00  0.00    +0.000 C 
BRANCH  30  31
ATOM     31  O   UNL     1      -0.189   8.597  21.470  0.00  0.00    +0.000 OA
ATOM     32  H   UNL     1      -0.086   7.780  20.944  0.00  0.00    +0.000 HD
ENDBRANCH  30  31
ENDBRANCH  28  30
ENDBRANCH  27  28
ENDBRANCH  26  27
ENDBRANCH  24  26
ENDBRANCH  23  25
ENDBRANCH   1  23
TORSDOF 12
ENDMDL
MODEL 9
REMARK VINA RESULT:      -6.8      2.184      6.847
REMARK  Name = 
REMARK  12 active torsions:
REMARK  status: ('A' for Active; 'I' for Inactive)
REMARK    1  A    between atoms: C_2  and  O_3
REMARK    2  A    between atoms: C_2  and  C_4
REMARK    3  A    between atoms: C_4  and  C_5
REMARK    4  A    between atoms: C_5  and  C_6
REMARK    5  A    between atoms: C_6  and  C_7
REMARK    6  A    between atoms: C_8  and  C_9
REMARK    7  A    between atoms: C_9  and  C_10
REMARK    8  A    between atoms: C_14  and  O_15
REMARK    9  A    between atoms: C_16  and  C_17
REMARK   10  A    between atoms: C_18  and  C_19
REMARK   11  A    between atoms: C_19  and  O_20
REMARK   12  A    between atoms: C_19  and  C_21
REMARK                            x       y       z     vdW  Elec       q    Type
REMARK                         _______ _______ _______ _____ _____    ______ ____
ROOT
ATOM      1  C   UNL     1       2.310   3.465  19.557  0.00  0.00    +0.000 C 
ATOM      2  C   UNL     1       1.901   3.244  18.105  0.00  0.00    +0.000 C 
ATOM      3  O   UNL     1       1.048   3.895  17.512  0.00  0.00    +0.000 OA
ATOM      4  C   UNL     1       2.649   2.111  17.458  0.00  0.00    +0.000 C 
ATOM      5  C   UNL     1       3.197   1.398  18.685  0.00  0.00    +0.000 C 
ATOM      6  C   UNL     1       3.554   2.533  19.673  0.00  0.00    +0.000 C 
ENDROOT
BRANCH   5   7
ATOM      7  O   UNL     1       4.278   0.541  18.364  0.00  0.00    +0.000 OA
ATOM      8  H   UNL     1       4.104   0.114  17.508  0.00  0.00    +0.000 HD
ENDBRANCH   5   7
BRANCH   6   9
ATOM      9  C   UNL     1       4.867   3.213  19.321  0.00  0.00    +0.000 C 
ATOM     10  C   UNL     1       5.148   4.518  19.481  0.00  0.00    +0.000 C 
BRANCH  10  11
ATOM     11  C   UNL     1       6.462   5.116  19.028  0.00  0.00    +0.000 C 
BRANCH  11  12
ATOM     12  C   UNL     1       6.276   6.225  17.959  0.00  0.00    +0.000 C 
ATOM     13  C   UNL     1       7.457   6.308  16.972  0.00  0.00    +0.000 C 
ATOM     14  C   UNL     1       6.887   5.527  15.847  0.00  0.00    +0.000 A 
ATOM     15  C   UNL     1       7.500   5.027  14.712  0.00  0.00    +0.000 A 
ATOM     16  C   UNL     1       6.712   4.335  13.790  0.00  0.00    +0.000 A 
ATOM     17  C   UNL     1       5.335   4.156  14.010  0.00  0.00    +0.000 A 
ATOM     18  C   UNL     1       4.728   4.691  15.148  0.00  0.00    +0.000 A 
ATOM     19  C   UNL     1       5.525   5.372  16.042  0.00  0.00    +0.000 A 
ATOM     20  O   UNL     1       5.068   5.958  17.192  0.00  0.00    +0.000 OA
ENDBRANCH  11  12
BRANCH  11  21
ATOM     21  O   UNL     1       7.146   5.602  20.181  0.00  0.00    +0.000 OA
ATOM     22  H   UNL     1       7.597   4.855  20.607  0.00  0.00    +0.000 HD
ENDBRANCH  11  21
ENDBRANCH  10  11
ENDBRANCH   6   9
BRANCH   1  23
ATOM     23  C   UNL     1       2.588   4.931  19.899  0.00  0.00    +0.000 C 
BRANCH  23  25
ATOM     24  C   UNL     1       1.308   6.841  20.997  0.00  0.00    +0.000 C 
ATOM     25  C   UNL     1       1.637   5.546  20.891  0.00  0.00    +0.000 C 
BRANCH  24  26
ATOM     26  C   UNL     1       1.905   7.974  20.213  0.00  0.00    +0.000 C 
BRANCH  26  27
ATOM     27  C   UNL     1       0.985   9.199  20.153  0.00  0.00    +0.000 C 
BRANCH  27  28
ATOM     28  C   UNL     1       0.599   9.624  18.737  0.00  0.00    +0.000 C 
BRANCH  28  30
ATOM     29  O   UNL     1       2.364   8.941  17.237  0.00  0.00    +0.000 OA
ATOM     30  C   UNL     1       1.815   9.834  17.866  0.00  0.00    +0.000 C 
BRANCH  30  31
ATOM     31  O   UNL     1       2.267  11.107  17.854  0.00  0.00    +0.000 OA
ATOM     32  H   UNL     1       3.045  11.248  17.281  0.00  0.00    +0.000 HD
ENDBRANCH  30  31
ENDBRANCH  28  30
ENDBRANCH  27  28
ENDBRANCH  26  27
ENDBRANCH  24  26
ENDBRANCH  23  25
ENDBRANCH   1  23
TORSDOF 12
ENDMDL
