MODEL 1
REMARK VINA RESULT:      -8.4      0.000      0.000
REMARK  Name = 
REMARK  7 active torsions:
REMARK  status: ('A' for Active; 'I' for Inactive)
REMARK    1  A    between atoms: C_1  and  O_2
REMARK    2  A    between atoms: O_2  and  C_3
REMARK    3  A    between atoms: C_8  and  C_9
REMARK    4  A    between atoms: C_13  and  C_14
REMARK    5  A    between atoms: C_20  and  C_21
REMARK    6  A    between atoms: N_23  and  C_24
REMARK    7  A    between atoms: C_24  and  C_25
REMARK                            x       y       z     vdW  Elec       q    Type
REMARK                         _______ _______ _______ _____ _____    ______ ____
ROOT
ATOM      1  C   UNL     1       3.385   3.794  19.461  0.00  0.00    +0.000 A 
ATOM      2  C   UNL     1       2.761   3.150  20.546  0.00  0.00    +0.000 A 
ATOM      3  C   UNL     1       1.664   3.706  21.187  0.00  0.00    +0.000 A 
ATOM      4  C   UNL     1       1.247   4.982  20.847  0.00  0.00    +0.000 A 
ATOM      5  C   UNL     1       2.022   5.763  19.970  0.00  0.00    +0.000 A 
ATOM      6  C   UNL     1       2.102   7.163  19.705  0.00  0.00    +0.000 A 
ATOM      7  C   UNL     1       2.840   7.268  18.539  0.00  0.00    +0.000 A 
ATOM      8  N   UNL     1       3.295   6.023  18.177  0.00  0.00    +0.000 N 
ATOM      9  C   UNL     1       2.988   5.120  19.183  0.00  0.00    +0.000 A 
ENDROOT
BRANCH   6  10
ATOM     10  C   UNL     1       1.502   8.316  20.372  0.00  0.00    +0.000 C 
ATOM     11  O   UNL     1       1.386   8.278  21.599  0.00  0.00    +0.000 OA
ATOM     12  N   UNL     1       1.038   9.427  19.642  0.00  0.00    +0.000 N 
ATOM     13  C   UNL     1       0.628  10.612  20.379  0.00  0.00    +0.000 C 
ATOM     14  C   UNL     1       1.533  11.948  20.226  0.00  0.00    +0.000 C 
ATOM     15  C   UNL     1       0.522  12.387  21.610  0.00  0.00    +0.000 C 
ATOM     16  C   UNL     1       1.831  13.514  20.388  0.00  0.00    +0.000 C 
ATOM     17  S   UNL     1       3.046  14.165  19.265  0.00  0.00    +0.000 S 
ATOM     18  C   UNL     1       2.726  12.821  18.202  0.00  0.00    +0.000 C 
ATOM     19  N   UNL     1       1.508  12.085  18.658  0.00  0.00    +0.000 NA
ATOM     20  C   UNL     1       1.663  10.825  17.837  0.00  0.00    +0.000 C 
ATOM     21  C   UNL     1       0.854   9.587  18.203  0.00  0.00    +0.000 C 
ATOM     22  C   UNL     1      -0.599   9.768  17.741  0.00  0.00    +0.000 C 
ENDBRANCH   6  10
BRANCH   1  24
ATOM     23  C   UNL     1       3.924   2.167  17.863  0.00  0.00    +0.000 C 
ATOM     24  O   UNL     1       4.378   3.206  18.722  0.00  0.00    +0.000 OA
ENDBRANCH   1  24
BRANCH   8  25
ATOM     25  C   UNL     1       4.087   5.803  16.979  0.00  0.00    +0.000 C 
BRANCH  25  26
ATOM     26  C   UNL     1       5.534   6.363  16.897  0.00  0.00    +0.000 C 
ATOM     27  C   UNL     1       6.222   6.617  18.242  0.00  0.00    +0.000 C 
ATOM     28  C   UNL     1       6.869   5.381  18.861  0.00  0.00    +0.000 C 
ATOM     29  C   UNL     1       7.791   4.647  17.906  0.00  0.00    +0.000 C 
ATOM     30  C   UNL     1       7.209   4.422  16.515  0.00  0.00    +0.000 C 
ATOM     31  C   UNL     1       6.489   5.635  15.933  0.00  0.00    +0.000 C 
ENDBRANCH  25  26
ENDBRANCH   8  25
TORSDOF 4
ENDMDL
MODEL 2
REMARK VINA RESULT:      -8.1      5.372      8.656
REMARK  Name = 
REMARK  7 active torsions:
REMARK  status: ('A' for Active; 'I' for Inactive)
REMARK    1  A    between atoms: C_1  and  O_2
REMARK    2  A    between atoms: O_2  and  C_3
REMARK    3  A    between atoms: C_8  and  C_9
REMARK    4  A    between atoms: C_13  and  C_14
REMARK    5  A    between atoms: C_20  and  C_21
REMARK    6  A    between atoms: N_23  and  C_24
REMARK    7  A    between atoms: C_24  and  C_25
REMARK                            x       y       z     vdW  Elec       q    Type
REMARK                         _______ _______ _______ _____ _____    ______ ____
ROOT
ATOM      1  C   UNL     1       0.101   9.769  20.468  0.00  0.00    +0.000 A 
ATOM      2  C   UNL     1       0.653   9.090  21.570  0.00  0.00    +0.000 A 
ATOM      3  C   UNL     1       0.259   9.374  22.869  0.00  0.00    +0.000 A 
ATOM      4  C   UNL     1      -0.596  10.437  23.108  0.00  0.00    +0.000 A 
ATOM      5  C   UNL     1      -0.939  11.311  22.060  0.00  0.00    +0.000 A 
ATOM      6  C   UNL     1      -1.455  12.641  22.014  0.00  0.00    +0.000 A 
ATOM      7  C   UNL     1      -1.847  12.830  20.700  0.00  0.00    +0.000 A 
ATOM      8  N   UNL     1      -1.479  11.736  19.955  0.00  0.00    +0.000 N 
ATOM      9  C   UNL     1      -0.711  10.892  20.741  0.00  0.00    +0.000 A 
ENDROOT
BRANCH   6  10
ATOM     10  C   UNL     1      -1.672  13.638  23.060  0.00  0.00    +0.000 C 
ATOM     11  O   UNL     1      -0.704  14.305  23.432  0.00  0.00    +0.000 OA
ATOM     12  N   UNL     1      -2.938  13.816  23.652  0.00  0.00    +0.000 N 
ATOM     13  C   UNL     1      -3.124  14.948  24.545  0.00  0.00    +0.000 C 
ATOM     14  C   UNL     1      -4.113  16.138  24.062  0.00  0.00    +0.000 C 
ATOM     15  C   UNL     1      -3.317  16.908  25.441  0.00  0.00    +0.000 C 
ATOM     16  C   UNL     1      -4.997  17.457  24.280  0.00  0.00    +0.000 C 
ATOM     17  S   UNL     1      -6.297  17.692  23.088  0.00  0.00    +0.000 S 
ATOM     18  C   UNL     1      -6.246  15.983  22.753  0.00  0.00    +0.000 C 
ATOM     19  N   UNL     1      -5.404  15.285  23.773  0.00  0.00    +0.000 NA
ATOM     20  C   UNL     1      -5.229  13.955  23.074  0.00  0.00    +0.000 C 
ATOM     21  C   UNL     1      -4.141  12.998  23.546  0.00  0.00    +0.000 C 
ATOM     22  C   UNL     1      -4.588  12.312  24.845  0.00  0.00    +0.000 C 
ENDBRANCH   6  10
BRANCH   1  24
ATOM     23  C   UNL     1       1.501  10.066  18.612  0.00  0.00    +0.000 C 
ATOM     24  O   UNL     1       0.366   9.416  19.171  0.00  0.00    +0.000 OA
ENDBRANCH   1  24
BRANCH   8  25
ATOM     25  C   UNL     1      -1.772  11.628  18.537  0.00  0.00    +0.000 C 
BRANCH  25  26
ATOM     26  C   UNL     1      -2.658  10.460  18.018  0.00  0.00    +0.000 C 
ATOM     27  C   UNL     1      -4.155  10.764  17.910  0.00  0.00    +0.000 C 
ATOM     28  C   UNL     1      -4.562  11.478  16.625  0.00  0.00    +0.000 C 
ATOM     29  C   UNL     1      -4.052  10.790  15.372  0.00  0.00    +0.000 C 
ATOM     30  C   UNL     1      -2.584  10.383  15.427  0.00  0.00    +0.000 C 
ATOM     31  C   UNL     1      -2.161   9.746  16.747  0.00  0.00    +0.000 C 
ENDBRANCH  25  26
ENDBRANCH   8  25
TORSDOF 4
ENDMDL
MODEL 3
REMARK VINA RESULT:      -8.0      0.998      1.312
REMARK  Name = 
REMARK  7 active torsions:
REMARK  status: ('A' for Active; 'I' for Inactive)
REMARK    1  A    between atoms: C_1  and  O_2
REMARK    2  A    between atoms: O_2  and  C_3
REMARK    3  A    between atoms: C_8  and  C_9
REMARK    4  A    between atoms: C_13  and  C_14
REMARK    5  A    between atoms: C_20  and  C_21
REMARK    6  A    between atoms: N_23  and  C_24
REMARK    7  A    between atoms: C_24  and  C_25
REMARK                            x       y       z     vdW  Elec       q    Type
REMARK                         _______ _______ _______ _____ _____    ______ ____
ROOT
ATOM      1  C   UNL     1       3.339   3.768  19.852  0.00  0.00    +0.000 A 
ATOM      2  C   UNL     1       2.390   3.043  20.596  0.00  0.00    +0.000 A 
ATOM      3  C   UNL     1       1.152   3.582  20.915  0.00  0.00    +0.000 A 
ATOM      4  C   UNL     1       0.886   4.908  20.615  0.00  0.00    +0.000 A 
ATOM      5  C   UNL     1       1.913   5.738  20.131  0.00  0.00    +0.000 A 
ATOM      6  C   UNL     1       2.093   7.153  20.075  0.00  0.00    +0.000 A 
ATOM      7  C   UNL     1       3.169   7.345  19.226  0.00  0.00    +0.000 A 
ATOM      8  N   UNL     1       3.700   6.126  18.882  0.00  0.00    +0.000 N 
ATOM      9  C   UNL     1       3.073   5.135  19.622  0.00  0.00    +0.000 A 
ENDROOT
BRANCH   6  10
ATOM     10  C   UNL     1       1.325   8.256  20.648  0.00  0.00    +0.000 C 
ATOM     11  O   UNL     1       1.036   8.196  21.846  0.00  0.00    +0.000 OA
ATOM     12  N   UNL     1       0.898   9.340  19.859  0.00  0.00    +0.000 N 
ATOM     13  C   UNL     1       0.306  10.487  20.530  0.00  0.00    +0.000 C 
ATOM     14  C   UNL     1       1.131  11.883  20.511  0.00  0.00    +0.000 C 
ATOM     15  C   UNL     1      -0.098  12.239  21.733  0.00  0.00    +0.000 C 
ATOM     16  C   UNL     1       1.295  13.464  20.716  0.00  0.00    +0.000 C 
ATOM     17  S   UNL     1       2.614  14.206  19.782  0.00  0.00    +0.000 S 
ATOM     18  C   UNL     1       2.543  12.855  18.683  0.00  0.00    +0.000 C 
ATOM     19  N   UNL     1       1.324  12.034  18.956  0.00  0.00    +0.000 NA
ATOM     20  C   UNL     1       1.683  10.796  18.165  0.00  0.00    +0.000 C 
ATOM     21  C   UNL     1       0.914   9.503  18.409  0.00  0.00    +0.000 C 
ATOM     22  C   UNL     1      -0.465   9.591  17.740  0.00  0.00    +0.000 C 
ENDBRANCH   6  10
BRANCH   1  24
ATOM     23  C   UNL     1       4.659   1.836  19.722  0.00  0.00    +0.000 C 
ATOM     24  O   UNL     1       4.510   3.214  19.403  0.00  0.00    +0.000 OA
ENDBRANCH   1  24
BRANCH   8  25
ATOM     25  C   UNL     1       4.832   5.997  17.983  0.00  0.00    +0.000 C 
BRANCH  25  26
ATOM     26  C   UNL     1       4.595   5.637  16.489  0.00  0.00    +0.000 C 
ATOM     27  C   UNL     1       5.553   6.293  15.491  0.00  0.00    +0.000 C 
ATOM     28  C   UNL     1       6.884   5.567  15.325  0.00  0.00    +0.000 C 
ATOM     29  C   UNL     1       6.726   4.086  15.036  0.00  0.00    +0.000 C 
ATOM     30  C   UNL     1       5.727   3.370  15.939  0.00  0.00    +0.000 C 
ATOM     31  C   UNL     1       4.430   4.139  16.171  0.00  0.00    +0.000 C 
ENDBRANCH  25  26
ENDBRANCH   8  25
TORSDOF 4
ENDMDL
MODEL 4
REMARK VINA RESULT:      -7.3      0.708      1.183
REMARK  Name = 
REMARK  7 active torsions:
REMARK  status: ('A' for Active; 'I' for Inactive)
REMARK    1  A    between atoms: C_1  and  O_2
REMARK    2  A    between atoms: O_2  and  C_3
REMARK    3  A    between atoms: C_8  and  C_9
REMARK    4  A    between atoms: C_13  and  C_14
REMARK    5  A    between atoms: C_20  and  C_21
REMARK    6  A    between atoms: N_23  and  C_24
REMARK    7  A    between atoms: C_24  and  C_25
REMARK                            x       y       z     vdW  Elec       q    Type
REMARK                         _______ _______ _______ _____ _____    ______ ____
ROOT
ATOM      1  C   UNL     1       2.999   3.436  19.205  0.00  0.00    +0.000 A 
ATOM      2  C   UNL     1       2.139   2.798  20.118  0.00  0.00    +0.000 A 
ATOM      3  C   UNL     1       1.037   3.449  20.654  0.00  0.00    +0.000 A 
ATOM      4  C   UNL     1       0.847   4.797  20.396  0.00  0.00    +0.000 A 
ATOM      5  C   UNL     1       1.841   5.530  19.724  0.00  0.00    +0.000 A 
ATOM      6  C   UNL     1       2.141   6.922  19.623  0.00  0.00    +0.000 A 
ATOM      7  C   UNL     1       3.056   7.019  18.589  0.00  0.00    +0.000 A 
ATOM      8  N   UNL     1       3.397   5.757  18.164  0.00  0.00    +0.000 N 
ATOM      9  C   UNL     1       2.825   4.825  19.016  0.00  0.00    +0.000 A 
ENDROOT
BRANCH   6  10
ATOM     10  C   UNL     1       1.600   8.088  20.318  0.00  0.00    +0.000 C 
ATOM     11  O   UNL     1       1.564   8.060  21.550  0.00  0.00    +0.000 OA
ATOM     12  N   UNL     1       1.104   9.199  19.609  0.00  0.00    +0.000 N 
ATOM     13  C   UNL     1       0.758  10.394  20.361  0.00  0.00    +0.000 C 
ATOM     14  C   UNL     1       1.668  11.718  20.139  0.00  0.00    +0.000 C 
ATOM     15  C   UNL     1       0.754  12.181  21.581  0.00  0.00    +0.000 C 
ATOM     16  C   UNL     1       1.997  13.281  20.269  0.00  0.00    +0.000 C 
ATOM     17  S   UNL     1       3.145  13.907  19.064  0.00  0.00    +0.000 S 
ATOM     18  C   UNL     1       2.739  12.559  18.035  0.00  0.00    +0.000 C 
ATOM     19  N   UNL     1       1.543  11.843  18.575  0.00  0.00    +0.000 NA
ATOM     20  C   UNL     1       1.629  10.575  17.756  0.00  0.00    +0.000 C 
ATOM     21  C   UNL     1       0.829   9.350  18.184  0.00  0.00    +0.000 C 
ATOM     22  C   UNL     1      -0.648   9.547  17.815  0.00  0.00    +0.000 C 
ENDBRANCH   6  10
BRANCH   1  24
ATOM     23  C   UNL     1       3.776   1.386  18.379  0.00  0.00    +0.000 C 
ATOM     24  O   UNL     1       4.009   2.778  18.554  0.00  0.00    +0.000 OA
ENDBRANCH   1  24
BRANCH   8  25
ATOM     25  C   UNL     1       4.327   5.529  17.073  0.00  0.00    +0.000 C 
BRANCH  25  26
ATOM     26  C   UNL     1       5.732   4.932  17.367  0.00  0.00    +0.000 C 
ATOM     27  C   UNL     1       6.871   5.461  16.491  0.00  0.00    +0.000 C 
ATOM     28  C   UNL     1       7.470   6.781  16.966  0.00  0.00    +0.000 C 
ATOM     29  C   UNL     1       7.869   6.765  18.429  0.00  0.00    +0.000 C 
ATOM     30  C   UNL     1       6.818   6.180  19.364  0.00  0.00    +0.000 C 
ATOM     31  C   UNL     1       6.160   4.904  18.846  0.00  0.00    +0.000 C 
ENDBRANCH  25  26
ENDBRANCH   8  25
TORSDOF 4
ENDMDL
MODEL 5
REMARK VINA RESULT:      -7.2      5.062      8.559
REMARK  Name = 
REMARK  7 active torsions:
REMARK  status: ('A' for Active; 'I' for Inactive)
REMARK    1  A    between atoms: C_1  and  O_2
REMARK    2  A    between atoms: O_2  and  C_3
REMARK    3  A    between atoms: C_8  and  C_9
REMARK    4  A    between atoms: C_13  and  C_14
REMARK    5  A    between atoms: C_20  and  C_21
REMARK    6  A    between atoms: N_23  and  C_24
REMARK    7  A    between atoms: C_24  and  C_25
REMARK                            x       y       z     vdW  Elec       q    Type
REMARK                         _______ _______ _______ _____ _____    ______ ____
ROOT
ATOM      1  C   UNL     1      -0.247   9.852  21.059  0.00  0.00    +0.000 A 
ATOM      2  C   UNL     1      -0.276   9.773  22.464  0.00  0.00    +0.000 A 
ATOM      3  C   UNL     1      -1.041  10.646  23.224  0.00  0.00    +0.000 A 
ATOM      4  C   UNL     1      -1.687  11.704  22.606  0.00  0.00    +0.000 A 
ATOM      5  C   UNL     1      -1.447  11.977  21.248  0.00  0.00    +0.000 A 
ATOM      6  C   UNL     1      -1.628  13.131  20.426  0.00  0.00    +0.000 A 
ATOM      7  C   UNL     1      -1.478  12.675  19.128  0.00  0.00    +0.000 A 
ATOM      8  N   UNL     1      -1.101  11.354  19.151  0.00  0.00    +0.000 N 
ATOM      9  C   UNL     1      -0.854  10.978  20.462  0.00  0.00    +0.000 A 
ENDROOT
BRANCH   6  10
ATOM     10  C   UNL     1      -1.995  14.508  20.749  0.00  0.00    +0.000 C 
ATOM     11  O   UNL     1      -1.093  15.347  20.807  0.00  0.00    +0.000 OA
ATOM     12  N   UNL     1      -3.329  14.867  21.017  0.00  0.00    +0.000 N 
ATOM     13  C   UNL     1      -3.648  16.281  21.142  0.00  0.00    +0.000 C 
ATOM     14  C   UNL     1      -4.579  16.952  19.997  0.00  0.00    +0.000 C 
ATOM     15  C   UNL     1      -3.982  18.395  20.828  0.00  0.00    +0.000 C 
ATOM     16  C   UNL     1      -5.500  18.109  19.382  0.00  0.00    +0.000 C 
ATOM     17  S   UNL     1      -6.632  17.574  18.120  0.00  0.00    +0.000 S 
ATOM     18  C   UNL     1      -6.516  15.956  18.756  0.00  0.00    +0.000 C 
ATOM     19  N   UNL     1      -5.808  15.972  20.073  0.00  0.00    +0.000 NA
ATOM     20  C   UNL     1      -5.525  14.493  20.215  0.00  0.00    +0.000 C 
ATOM     21  C   UNL     1      -4.498  14.022  21.237  0.00  0.00    +0.000 C 
ATOM     22  C   UNL     1      -5.105  14.091  22.646  0.00  0.00    +0.000 C 
ENDBRANCH   6  10
BRANCH   1  24
ATOM     23  C   UNL     1       1.371   8.160  20.964  0.00  0.00    +0.000 C 
ATOM     24  O   UNL     1       0.385   8.920  20.278  0.00  0.00    +0.000 OA
ENDBRANCH   1  24
BRANCH   8  25
ATOM     25  C   UNL     1      -0.884  10.587  17.938  0.00  0.00    +0.000 C 
BRANCH  25  26
ATOM     26  C   UNL     1      -2.046   9.747  17.337  0.00  0.00    +0.000 C 
ATOM     27  C   UNL     1      -3.349   9.751  18.142  0.00  0.00    +0.000 C 
ATOM     28  C   UNL     1      -4.249  10.954  17.877  0.00  0.00    +0.000 C 
ATOM     29  C   UNL     1      -4.517  11.187  16.402  0.00  0.00    +0.000 C 
ATOM     30  C   UNL     1      -3.278  11.122  15.517  0.00  0.00    +0.000 C 
ATOM     31  C   UNL     1      -2.337   9.965  15.841  0.00  0.00    +0.000 C 
ENDBRANCH  25  26
ENDBRANCH   8  25
TORSDOF 4
ENDMDL
MODEL 6
REMARK VINA RESULT:      -7.1      4.783      8.187
REMARK  Name = 
REMARK  7 active torsions:
REMARK  status: ('A' for Active; 'I' for Inactive)
REMARK    1  A    between atoms: C_1  and  O_2
REMARK    2  A    between atoms: O_2  and  C_3
REMARK    3  A    between atoms: C_8  and  C_9
REMARK    4  A    between atoms: C_13  and  C_14
REMARK    5  A    between atoms: C_20  and  C_21
REMARK    6  A    between atoms: N_23  and  C_24
REMARK    7  A    between atoms: C_24  and  C_25
REMARK                            x       y       z     vdW  Elec       q    Type
REMARK                         _______ _______ _______ _____ _____    ______ ____
ROOT
ATOM      1  C   UNL     1       0.558   9.278  20.338  0.00  0.00    +0.000 A 
ATOM      2  C   UNL     1       0.904   8.908  21.651  0.00  0.00    +0.000 A 
ATOM      3  C   UNL     1       0.299   9.493  22.753  0.00  0.00    +0.000 A 
ATOM      4  C   UNL     1      -0.568  10.559  22.572  0.00  0.00    +0.000 A 
ATOM      5  C   UNL     1      -0.714  11.137  21.299  0.00  0.00    +0.000 A 
ATOM      6  C   UNL     1      -1.194  12.399  20.837  0.00  0.00    +0.000 A 
ATOM      7  C   UNL     1      -1.353  12.246  19.471  0.00  0.00    +0.000 A 
ATOM      8  N   UNL     1      -0.881  11.012  19.094  0.00  0.00    +0.000 N 
ATOM      9  C   UNL     1      -0.271  10.411  20.183  0.00  0.00    +0.000 A 
ENDROOT
BRANCH   6  10
ATOM     10  C   UNL     1      -1.570  13.617  21.550  0.00  0.00    +0.000 C 
ATOM     11  O   UNL     1      -0.783  14.566  21.528  0.00  0.00    +0.000 OA
ATOM     12  N   UNL     1      -2.778  13.702  22.269  0.00  0.00    +0.000 N 
ATOM     13  C   UNL     1      -3.175  14.999  22.793  0.00  0.00    +0.000 C 
ATOM     14  C   UNL     1      -4.484  15.707  22.149  0.00  0.00    +0.000 C 
ATOM     15  C   UNL     1      -3.796  17.053  23.069  0.00  0.00    +0.000 C 
ATOM     16  C   UNL     1      -5.661  16.793  22.104  0.00  0.00    +0.000 C 
ATOM     17  S   UNL     1      -7.080  16.320  21.142  0.00  0.00    +0.000 S 
ATOM     18  C   UNL     1      -6.609  14.653  21.340  0.00  0.00    +0.000 C 
ATOM     19  N   UNL     1      -5.523  14.544  22.362  0.00  0.00    +0.000 NA
ATOM     20  C   UNL     1      -5.067  13.130  22.082  0.00  0.00    +0.000 C 
ATOM     21  C   UNL     1      -3.726  12.654  22.628  0.00  0.00    +0.000 C 
ATOM     22  C   UNL     1      -3.856  12.367  24.131  0.00  0.00    +0.000 C 
ENDBRANCH   6  10
BRANCH   1  24
ATOM     23  C   UNL     1       2.185   9.224  18.653  0.00  0.00    +0.000 C 
ATOM     24  O   UNL     1       1.035   8.622  19.234  0.00  0.00    +0.000 OA
ENDBRANCH   1  24
BRANCH   8  25
ATOM     25  C   UNL     1      -0.929  10.549  17.718  0.00  0.00    +0.000 C 
BRANCH  25  26
ATOM     26  C   UNL     1      -2.166   9.753  17.215  0.00  0.00    +0.000 C 
ATOM     27  C   UNL     1      -3.396   9.798  18.126  0.00  0.00    +0.000 C 
ATOM     28  C   UNL     1      -4.272  11.033  17.941  0.00  0.00    +0.000 C 
ATOM     29  C   UNL     1      -4.655  11.284  16.495  0.00  0.00    +0.000 C 
ATOM     30  C   UNL     1      -3.497  11.181  15.509  0.00  0.00    +0.000 C 
ATOM     31  C   UNL     1      -2.574   9.991  15.749  0.00  0.00    +0.000 C 
ENDBRANCH  25  26
ENDBRANCH   8  25
TORSDOF 4
ENDMDL
MODEL 7
REMARK VINA RESULT:      -7.1      1.221      1.797
REMARK  Name = 
REMARK  7 active torsions:
REMARK  status: ('A' for Active; 'I' for Inactive)
REMARK    1  A    between atoms: C_1  and  O_2
REMARK    2  A    between atoms: O_2  and  C_3
REMARK    3  A    between atoms: C_8  and  C_9
REMARK    4  A    between atoms: C_13  and  C_14
REMARK    5  A    between atoms: C_20  and  C_21
REMARK    6  A    between atoms: N_23  and  C_24
REMARK    7  A    between atoms: C_24  and  C_25
REMARK                            x       y       z     vdW  Elec       q    Type
REMARK                         _______ _______ _______ _____ _____    ______ ____
ROOT
ATOM      1  C   UNL     1       3.414   3.367  18.396  0.00  0.00    +0.000 A 
ATOM      2  C   UNL     1       2.170   2.867  17.972  0.00  0.00    +0.000 A 
ATOM      3  C   UNL     1       1.076   3.700  17.789  0.00  0.00    +0.000 A 
ATOM      4  C   UNL     1       1.163   5.033  18.157  0.00  0.00    +0.000 A 
ATOM      5  C   UNL     1       2.296   5.498  18.849  0.00  0.00    +0.000 A 
ATOM      6  C   UNL     1       2.554   6.639  19.666  0.00  0.00    +0.000 A 
ATOM      7  C   UNL     1       3.930   6.678  19.808  0.00  0.00    +0.000 A 
ATOM      8  N   UNL     1       4.478   5.561  19.225  0.00  0.00    +0.000 N 
ATOM      9  C   UNL     1       3.456   4.710  18.832  0.00  0.00    +0.000 A 
ENDROOT
BRANCH   6  10
ATOM     10  C   UNL     1       1.669   7.670  20.205  0.00  0.00    +0.000 C 
ATOM     11  O   UNL     1       1.293   7.554  21.374  0.00  0.00    +0.000 OA
ATOM     12  N   UNL     1       1.231   8.748  19.413  0.00  0.00    +0.000 N 
ATOM     13  C   UNL     1       0.511   9.831  20.065  0.00  0.00    +0.000 C 
ATOM     14  C   UNL     1       1.236  11.278  20.147  0.00  0.00    +0.000 C 
ATOM     15  C   UNL     1      -0.105  11.513  21.277  0.00  0.00    +0.000 C 
ATOM     16  C   UNL     1       1.275  12.859  20.406  0.00  0.00    +0.000 C 
ATOM     17  S   UNL     1       2.607  13.718  19.599  0.00  0.00    +0.000 S 
ATOM     18  C   UNL     1       2.715  12.400  18.463  0.00  0.00    +0.000 C 
ATOM     19  N   UNL     1       1.538  11.491  18.617  0.00  0.00    +0.000 NA
ATOM     20  C   UNL     1       2.041  10.305  17.825  0.00  0.00    +0.000 C 
ATOM     21  C   UNL     1       1.347   8.957  17.974  0.00  0.00    +0.000 C 
ATOM     22  C   UNL     1       0.021   8.973  17.200  0.00  0.00    +0.000 C 
ENDBRANCH   6  10
BRANCH   1  24
ATOM     23  C   UNL     1       4.665   1.825  19.640  0.00  0.00    +0.000 C 
ATOM     24  O   UNL     1       4.545   2.595  18.450  0.00  0.00    +0.000 OA
ENDBRANCH   1  24
BRANCH   8  25
ATOM     25  C   UNL     1       5.910   5.324  19.194  0.00  0.00    +0.000 C 
BRANCH  25  26
ATOM     26  C   UNL     1       6.739   5.769  17.957  0.00  0.00    +0.000 C 
ATOM     27  C   UNL     1       7.251   4.637  17.062  0.00  0.00    +0.000 C 
ATOM     28  C   UNL     1       6.235   4.132  16.042  0.00  0.00    +0.000 C 
ATOM     29  C   UNL     1       5.614   5.243  15.216  0.00  0.00    +0.000 C 
ATOM     30  C   UNL     1       5.147   6.446  16.026  0.00  0.00    +0.000 C 
ATOM     31  C   UNL     1       6.130   6.897  17.102  0.00  0.00    +0.000 C 
ENDBRANCH  25  26
ENDBRANCH   8  25
TORSDOF 4
ENDMDL
MODEL 8
REMARK VINA RESULT:      -7.1      4.201      7.649
REMARK  Name = 
REMARK  7 active torsions:
REMARK  status: ('A' for Active; 'I' for Inactive)
REMARK    1  A    between atoms: C_1  and  O_2
REMARK    2  A    between atoms: O_2  and  C_3
REMARK    3  A    between atoms: C_8  and  C_9
REMARK    4  A    between atoms: C_13  and  C_14
REMARK    5  A    between atoms: C_20  and  C_21
REMARK    6  A    between atoms: N_23  and  C_24
REMARK    7  A    between atoms: C_24  and  C_25
REMARK                            x       y       z     vdW  Elec       q    Type
REMARK                         _______ _______ _______ _____ _____    ______ ____
ROOT
ATOM      1  C   UNL     1       1.003   9.038  19.611  0.00  0.00    +0.000 A 
ATOM      2  C   UNL     1       1.548   8.400  20.740  0.00  0.00    +0.000 A 
ATOM      3  C   UNL     1       1.214   8.793  22.028  0.00  0.00    +0.000 A 
ATOM      4  C   UNL     1       0.434   9.922  22.217  0.00  0.00    +0.000 A 
ATOM      5  C   UNL     1       0.112  10.745  21.123  0.00  0.00    +0.000 A 
ATOM      6  C   UNL     1      -0.323  12.099  21.001  0.00  0.00    +0.000 A 
ATOM      7  C   UNL     1      -0.745  12.225  19.689  0.00  0.00    +0.000 A 
ATOM      8  N   UNL     1      -0.469  11.063  19.010  0.00  0.00    +0.000 N 
ATOM      9  C   UNL     1       0.271  10.226  19.830  0.00  0.00    +0.000 A 
ENDROOT
BRANCH   6  10
ATOM     10  C   UNL     1      -0.445  13.175  21.982  0.00  0.00    +0.000 C 
ATOM     11  O   UNL     1       0.582  13.772  22.314  0.00  0.00    +0.000 OA
ATOM     12  N   UNL     1      -1.686  13.504  22.560  0.00  0.00    +0.000 N 
ATOM     13  C   UNL     1      -1.766  14.701  23.381  0.00  0.00    +0.000 C 
ATOM     14  C   UNL     1      -2.644  15.944  22.822  0.00  0.00    +0.000 C 
ATOM     15  C   UNL     1      -1.775  16.722  24.153  0.00  0.00    +0.000 C 
ATOM     16  C   UNL     1      -3.403  17.349  22.956  0.00  0.00    +0.000 C 
ATOM     17  S   UNL     1      -4.680  17.627  21.750  0.00  0.00    +0.000 S 
ATOM     18  C   UNL     1      -4.786  15.903  21.522  0.00  0.00    +0.000 C 
ATOM     19  N   UNL     1      -4.008  15.195  22.584  0.00  0.00    +0.000 NA
ATOM     20  C   UNL     1      -3.957  13.814  21.970  0.00  0.00    +0.000 C 
ATOM     21  C   UNL     1      -2.959  12.794  22.503  0.00  0.00    +0.000 C 
ATOM     22  C   UNL     1      -3.462  12.234  23.841  0.00  0.00    +0.000 C 
ENDBRANCH   6  10
BRANCH   1  24
ATOM     23  C   UNL     1       2.573   8.422  17.983  0.00  0.00    +0.000 C 
ATOM     24  O   UNL     1       1.204   8.584  18.334  0.00  0.00    +0.000 OA
ENDBRANCH   1  24
BRANCH   8  25
ATOM     25  C   UNL     1      -0.813  10.880  17.611  0.00  0.00    +0.000 C 
BRANCH  25  26
ATOM     26  C   UNL     1      -1.994   9.947  17.222  0.00  0.00    +0.000 C 
ATOM     27  C   UNL     1      -3.181   9.944  18.190  0.00  0.00    +0.000 C 
ATOM     28  C   UNL     1      -4.173  11.082  17.974  0.00  0.00    +0.000 C 
ATOM     29  C   UNL     1      -4.642  11.201  16.536  0.00  0.00    +0.000 C 
ATOM     30  C   UNL     1      -3.526  11.135  15.500  0.00  0.00    +0.000 C 
ATOM     31  C   UNL     1      -2.488  10.049  15.767  0.00  0.00    +0.000 C 
ENDBRANCH  25  26
ENDBRANCH   8  25
TORSDOF 4
ENDMDL
MODEL 9
REMARK VINA RESULT:      -7.1      6.615      9.512
REMARK  Name = 
REMARK  7 active torsions:
REMARK  status: ('A' for Active; 'I' for Inactive)
REMARK    1  A    between atoms: C_1  and  O_2
REMARK    2  A    between atoms: O_2  and  C_3
REMARK    3  A    between atoms: C_8  and  C_9
REMARK    4  A    between atoms: C_13  and  C_14
REMARK    5  A    between atoms: C_20  and  C_21
REMARK    6  A    between atoms: N_23  and  C_24
REMARK    7  A    between atoms: C_24  and  C_25
REMARK                            x       y       z     vdW  Elec       q    Type
REMARK                         _______ _______ _______ _____ _____    ______ ____
ROOT
ATOM      1  C   UNL     1       9.467  16.341  18.428  0.00  0.00    +0.000 A 
ATOM      2  C   UNL     1       9.592  17.631  18.975  0.00  0.00    +0.000 A 
ATOM      3  C   UNL     1       8.553  18.227  19.675  0.00  0.00    +0.000 A 
ATOM      4  C   UNL     1       7.318  17.603  19.728  0.00  0.00    +0.000 A 
ATOM      5  C   UNL     1       7.078  16.454  18.953  0.00  0.00    +0.000 A 
ATOM      6  C   UNL     1       5.894  15.804  18.492  0.00  0.00    +0.000 A 
ATOM      7  C   UNL     1       6.316  14.571  18.029  0.00  0.00    +0.000 A 
ATOM      8  N   UNL     1       7.688  14.512  18.081  0.00  0.00    +0.000 N 
ATOM      9  C   UNL     1       8.180  15.759  18.434  0.00  0.00    +0.000 A 
ENDROOT
BRANCH   6  10
ATOM     10  C   UNL     1       4.487  16.197  18.538  0.00  0.00    +0.000 C 
ATOM     11  O   UNL     1       4.090  17.021  17.710  0.00  0.00    +0.000 OA
ATOM     12  N   UNL     1       3.613  15.680  19.513  0.00  0.00    +0.000 N 
ATOM     13  C   UNL     1       2.193  15.966  19.384  0.00  0.00    +0.000 C 
ATOM     14  C   UNL     1       1.200  14.731  19.045  0.00  0.00    +0.000 C 
ATOM     15  C   UNL     1       0.127  16.107  18.757  0.00  0.00    +0.000 C 
ATOM     16  C   UNL     1      -0.234  14.028  18.907  0.00  0.00    +0.000 C 
ATOM     17  S   UNL     1      -0.209  12.252  18.994  0.00  0.00    +0.000 S 
ATOM     18  C   UNL     1       1.316  12.354  19.833  0.00  0.00    +0.000 C 
ATOM     19  N   UNL     1       1.591  13.769  20.228  0.00  0.00    +0.000 NA
ATOM     20  C   UNL     1       3.056  13.642  20.581  0.00  0.00    +0.000 C 
ATOM     21  C   UNL     1       3.906  14.900  20.711  0.00  0.00    +0.000 C 
ATOM     22  C   UNL     1       3.595  15.596  22.044  0.00  0.00    +0.000 C 
ENDBRANCH   6  10
BRANCH   1  24
ATOM     23  C   UNL     1      11.792  16.060  18.356  0.00  0.00    +0.000 C 
ATOM     24  O   UNL     1      10.517  15.673  17.856  0.00  0.00    +0.000 OA
ENDBRANCH   1  24
BRANCH   8  25
ATOM     25  C   UNL     1       8.431  13.332  17.677  0.00  0.00    +0.000 C 
BRANCH  25  26
ATOM     26  C   UNL     1       8.796  12.251  18.732  0.00  0.00    +0.000 C 
ATOM     27  C   UNL     1       9.798  11.188  18.270  0.00  0.00    +0.000 C 
ATOM     28  C   UNL     1      11.260  11.610  18.381  0.00  0.00    +0.000 C 
ATOM     29  C   UNL     1      11.626  12.146  19.752  0.00  0.00    +0.000 C 
ATOM     30  C   UNL     1      10.635  13.156  20.321  0.00  0.00    +0.000 C 
ATOM     31  C   UNL     1       9.171  12.770  20.133  0.00  0.00    +0.000 C 
ENDBRANCH  25  26
ENDBRANCH   8  25
TORSDOF 4
ENDMDL
