MODEL 1
REMARK VINA RESULT:      -7.8      0.000      0.000
REMARK  Name = 
REMARK  6 active torsions:
REMARK  status: ('A' for Active; 'I' for Inactive)
REMARK    1  A    between atoms: C_1  and  C_2
REMARK    2  A    between atoms: C_4  and  C_5
REMARK    3  A    between atoms: C_6  and  S_7
REMARK    4  A    between atoms: S_7  and  N_10
REMARK    5  A    between atoms: C_12  and  C_13
REMARK    6  A    between atoms: C_27  and  C_28
REMARK                            x       y       z     vdW  Elec       q    Type
REMARK                         _______ _______ _______ _____ _____    ______ ____
ROOT
ATOM      1  N   UNL     1       0.008  11.819  19.969  0.00  0.00    +0.000 N 
ATOM      2  C   UNL     1       1.005  10.881  20.048  0.00  0.00    +0.000 A 
ATOM      3  C   UNL     1       0.768   9.916  19.089  0.00  0.00    +0.000 A 
ATOM      4  C   UNL     1      -0.415  10.320  18.378  0.00  0.00    +0.000 A 
ATOM      5  C   UNL     1      -1.162   9.751  17.321  0.00  0.00    +0.000 A 
ATOM      6  C   UNL     1      -2.268  10.432  16.808  0.00  0.00    +0.000 A 
ATOM      7 BR   UNL     1      -3.320   9.620  15.461  0.00  0.00    +0.000 Br
ATOM      8  C   UNL     1      -2.612  11.691  17.278  0.00  0.00    +0.000 A 
ATOM      9  C   UNL     1      -1.886  12.284  18.316  0.00  0.00    +0.000 A 
ATOM     10  C   UNL     1      -0.820  11.567  18.891  0.00  0.00    +0.000 A 
ENDROOT
BRANCH   3  11
ATOM     11  C   UNL     1       1.621   8.744  18.914  0.00  0.00    +0.000 A 
ATOM     12  C   UNL     1       2.407   8.594  17.790  0.00  0.00    +0.000 A 
ATOM     13  C   UNL     1       3.200   7.476  17.763  0.00  0.00    +0.000 A 
ATOM     14  N   UNL     1       3.223   6.565  18.749  0.00  0.00    +0.000 NA
ATOM     15  C   UNL     1       2.426   6.795  19.793  0.00  0.00    +0.000 A 
ATOM     16  N   UNL     1       2.423   5.850  20.798  0.00  0.00    +0.000 N 
ATOM     17  N   UNL     1       1.603   7.840  19.915  0.00  0.00    +0.000 NA
ATOM     18  H   UNL     1       2.755   4.970  20.428  0.00  0.00    +0.000 HD
ATOM     19  H   UNL     1       1.530   5.847  21.270  0.00  0.00    +0.000 HD
ENDBRANCH   3  11
BRANCH   1  20
ATOM     20  S   UNL     1      -0.003  13.226  20.934  0.00  0.00    +0.000 S 
ATOM     21  O   UNL     1      -0.018  14.292  19.957  0.00  0.00    +0.000 OA
ATOM     22  O   UNL     1       1.114  13.093  21.853  0.00  0.00    +0.000 OA
BRANCH  20  28
ATOM     23  C   UNL     1      -5.292  13.019  24.041  0.00  0.00    +0.000 C 
ATOM     24  C   UNL     1      -3.984  13.093  23.311  0.00  0.00    +0.000 A 
ATOM     25  C   UNL     1      -3.651  14.201  22.535  0.00  0.00    +0.000 A 
ATOM     26  C   UNL     1      -2.430  14.276  21.836  0.00  0.00    +0.000 A 
ATOM     27  C   UNL     1      -2.171  15.562  21.093  0.00  0.00    +0.000 C 
ATOM     28  C   UNL     1      -1.530  13.181  21.892  0.00  0.00    +0.000 A 
ATOM     29  C   UNL     1      -1.824  12.079  22.738  0.00  0.00    +0.000 A 
ATOM     30  C   UNL     1      -0.932  10.894  23.008  0.00  0.00    +0.000 C 
ATOM     31  C   UNL     1      -3.067  12.048  23.407  0.00  0.00    +0.000 A 
ENDBRANCH  20  28
ENDBRANCH   1  20
TORSDOF 3
ENDMDL
MODEL 2
REMARK VINA RESULT:      -7.8      0.189      1.639
REMARK  Name = 
REMARK  6 active torsions:
REMARK  status: ('A' for Active; 'I' for Inactive)
REMARK    1  A    between atoms: C_1  and  C_2
REMARK    2  A    between atoms: C_4  and  C_5
REMARK    3  A    between atoms: C_6  and  S_7
REMARK    4  A    between atoms: S_7  and  N_10
REMARK    5  A    between atoms: C_12  and  C_13
REMARK    6  A    between atoms: C_27  and  C_28
REMARK                            x       y       z     vdW  Elec       q    Type
REMARK                         _______ _______ _______ _____ _____    ______ ____
ROOT
ATOM      1  N   UNL     1      -0.072  11.767  19.982  0.00  0.00    +0.000 N 
ATOM      2  C   UNL     1       0.938  10.843  20.057  0.00  0.00    +0.000 A 
ATOM      3  C   UNL     1       0.733   9.897  19.073  0.00  0.00    +0.000 A 
ATOM      4  C   UNL     1      -0.445  10.298  18.352  0.00  0.00    +0.000 A 
ATOM      5  C   UNL     1      -1.165   9.742  17.270  0.00  0.00    +0.000 A 
ATOM      6  C   UNL     1      -2.273  10.417  16.753  0.00  0.00    +0.000 A 
ATOM      7 BR   UNL     1      -3.290   9.619  15.371  0.00  0.00    +0.000 Br
ATOM      8  C   UNL     1      -2.645  11.660  17.246  0.00  0.00    +0.000 A 
ATOM      9  C   UNL     1      -1.945  12.240  18.309  0.00  0.00    +0.000 A 
ATOM     10  C   UNL     1      -0.878  11.526  18.885  0.00  0.00    +0.000 A 
ENDROOT
BRANCH   3  11
ATOM     11  C   UNL     1       1.607   8.742  18.886  0.00  0.00    +0.000 A 
ATOM     12  C   UNL     1       2.376   8.606  17.749  0.00  0.00    +0.000 A 
ATOM     13  C   UNL     1       3.192   7.504  17.711  0.00  0.00    +0.000 A 
ATOM     14  N   UNL     1       3.252   6.596  18.699  0.00  0.00    +0.000 NA
ATOM     15  C   UNL     1       2.467   6.813  19.756  0.00  0.00    +0.000 A 
ATOM     16  N   UNL     1       2.502   5.870  20.763  0.00  0.00    +0.000 N 
ATOM     17  N   UNL     1       1.625   7.840  19.890  0.00  0.00    +0.000 NA
ATOM     18  H   UNL     1       2.846   4.997  20.389  0.00  0.00    +0.000 HD
ATOM     19  H   UNL     1       1.618   5.851  21.251  0.00  0.00    +0.000 HD
ENDBRANCH   3  11
BRANCH   1  20
ATOM     20  S   UNL     1      -0.121  13.151  20.978  0.00  0.00    +0.000 S 
ATOM     21  O   UNL     1      -0.122  14.239  20.026  0.00  0.00    +0.000 OA
ATOM     22  O   UNL     1       0.973  13.008  21.923  0.00  0.00    +0.000 OA
BRANCH  20  28
ATOM     23  C   UNL     1      -5.311  12.954  24.249  0.00  0.00    +0.000 C 
ATOM     24  C   UNL     1      -4.059  12.975  23.423  0.00  0.00    +0.000 A 
ATOM     25  C   UNL     1      -3.093  11.980  23.551  0.00  0.00    +0.000 A 
ATOM     26  C   UNL     1      -1.907  11.995  22.791  0.00  0.00    +0.000 A 
ATOM     27  C   UNL     1      -0.983  10.819  22.979  0.00  0.00    +0.000 C 
ATOM     28  C   UNL     1      -1.671  13.071  21.896  0.00  0.00    +0.000 A 
ATOM     29  C   UNL     1      -2.681  14.051  21.702  0.00  0.00    +0.000 A 
ATOM     30  C   UNL     1      -2.648  15.187  20.711  0.00  0.00    +0.000 C 
ATOM     31  C   UNL     1      -3.845  13.995  22.499  0.00  0.00    +0.000 A 
ENDBRANCH  20  28
ENDBRANCH   1  20
TORSDOF 3
ENDMDL
MODEL 3
REMARK VINA RESULT:      -7.3      1.766      3.292
REMARK  Name = 
REMARK  6 active torsions:
REMARK  status: ('A' for Active; 'I' for Inactive)
REMARK    1  A    between atoms: C_1  and  C_2
REMARK    2  A    between atoms: C_4  and  C_5
REMARK    3  A    between atoms: C_6  and  S_7
REMARK    4  A    between atoms: S_7  and  N_10
REMARK    5  A    between atoms: C_12  and  C_13
REMARK    6  A    between atoms: C_27  and  C_28
REMARK                            x       y       z     vdW  Elec       q    Type
REMARK                         _______ _______ _______ _____ _____    ______ ____
ROOT
ATOM      1  N   UNL     1      -0.220  11.756  20.187  0.00  0.00    +0.000 N 
ATOM      2  C   UNL     1       0.810  10.852  20.227  0.00  0.00    +0.000 A 
ATOM      3  C   UNL     1       0.638   9.953  19.193  0.00  0.00    +0.000 A 
ATOM      4  C   UNL     1      -0.541  10.366  18.478  0.00  0.00    +0.000 A 
ATOM      5  C   UNL     1      -1.235   9.850  17.359  0.00  0.00    +0.000 A 
ATOM      6  C   UNL     1      -2.352  10.527  16.864  0.00  0.00    +0.000 A 
ATOM      7 BR   UNL     1      -3.334   9.780  15.429  0.00  0.00    +0.000 Br
ATOM      8  C   UNL     1      -2.757  11.734  17.416  0.00  0.00    +0.000 A 
ATOM      9  C   UNL     1      -2.084  12.273  18.517  0.00  0.00    +0.000 A 
ATOM     10  C   UNL     1      -1.007  11.554  19.068  0.00  0.00    +0.000 A 
ENDROOT
BRANCH   3  11
ATOM     11  C   UNL     1       1.540   8.830  18.957  0.00  0.00    +0.000 A 
ATOM     12  C   UNL     1       2.320   8.766  17.821  0.00  0.00    +0.000 A 
ATOM     13  C   UNL     1       3.162   7.687  17.737  0.00  0.00    +0.000 A 
ATOM     14  N   UNL     1       3.236   6.734  18.680  0.00  0.00    +0.000 NA
ATOM     15  C   UNL     1       2.439   6.881  19.740  0.00  0.00    +0.000 A 
ATOM     16  N   UNL     1       2.489   5.892  20.701  0.00  0.00    +0.000 N 
ATOM     17  N   UNL     1       1.573   7.881  19.916  0.00  0.00    +0.000 NA
ATOM     18  H   UNL     1       2.856   5.046  20.288  0.00  0.00    +0.000 HD
ATOM     19  H   UNL     1       1.603   5.828  21.180  0.00  0.00    +0.000 HD
ENDBRANCH   3  11
BRANCH   1  20
ATOM     20  S   UNL     1      -0.312  13.084  21.253  0.00  0.00    +0.000 S 
ATOM     21  O   UNL     1       0.939  13.011  21.974  0.00  0.00    +0.000 OA
ATOM     22  O   UNL     1      -1.573  12.948  21.960  0.00  0.00    +0.000 OA
BRANCH  20  28
ATOM     23  C   UNL     1      -0.680  18.016  17.616  0.00  0.00    +0.000 C 
ATOM     24  C   UNL     1      -0.564  16.830  18.529  0.00  0.00    +0.000 A 
ATOM     25  C   UNL     1       0.516  15.956  18.443  0.00  0.00    +0.000 A 
ATOM     26  C   UNL     1       0.630  14.833  19.286  0.00  0.00    +0.000 A 
ATOM     27  C   UNL     1       1.885  14.013  19.132  0.00  0.00    +0.000 C 
ATOM     28  C   UNL     1      -0.400  14.564  20.225  0.00  0.00    +0.000 A 
ATOM     29  C   UNL     1      -1.468  15.488  20.373  0.00  0.00    +0.000 A 
ATOM     30  C   UNL     1      -2.575  15.421  21.394  0.00  0.00    +0.000 C 
ATOM     31  C   UNL     1      -1.540  16.590  19.493  0.00  0.00    +0.000 A 
ENDBRANCH  20  28
ENDBRANCH   1  20
TORSDOF 3
ENDMDL
MODEL 4
REMARK VINA RESULT:      -7.2      4.531      6.385
REMARK  Name = 
REMARK  6 active torsions:
REMARK  status: ('A' for Active; 'I' for Inactive)
REMARK    1  A    between atoms: C_1  and  C_2
REMARK    2  A    between atoms: C_4  and  C_5
REMARK    3  A    between atoms: C_6  and  S_7
REMARK    4  A    between atoms: S_7  and  N_10
REMARK    5  A    between atoms: C_12  and  C_13
REMARK    6  A    between atoms: C_27  and  C_28
REMARK                            x       y       z     vdW  Elec       q    Type
REMARK                         _______ _______ _______ _____ _____    ______ ____
ROOT
ATOM      1  N   UNL     1       1.270  13.697  20.285  0.00  0.00    +0.000 N 
ATOM      2  C   UNL     1       2.625  13.647  20.486  0.00  0.00    +0.000 A 
ATOM      3  C   UNL     1       3.203  14.701  19.803  0.00  0.00    +0.000 A 
ATOM      4  C   UNL     1       2.128  15.436  19.191  0.00  0.00    +0.000 A 
ATOM      5  C   UNL     1       2.075  16.579  18.361  0.00  0.00    +0.000 A 
ATOM      6  C   UNL     1       0.839  17.089  17.960  0.00  0.00    +0.000 A 
ATOM      7 BR   UNL     1       0.778  18.559  16.770  0.00  0.00    +0.000 Br
ATOM      8  C   UNL     1      -0.346  16.527  18.415  0.00  0.00    +0.000 A 
ATOM      9  C   UNL     1      -0.325  15.402  19.245  0.00  0.00    +0.000 A 
ATOM     10  C   UNL     1       0.918  14.837  19.586  0.00  0.00    +0.000 A 
ENDROOT
BRANCH   3  11
ATOM     11  C   UNL     1       4.644  14.933  19.772  0.00  0.00    +0.000 A 
ATOM     12  C   UNL     1       5.340  15.255  20.919  0.00  0.00    +0.000 A 
ATOM     13  C   UNL     1       6.695  15.401  20.771  0.00  0.00    +0.000 A 
ATOM     14  N   UNL     1       7.328  15.256  19.596  0.00  0.00    +0.000 NA
ATOM     15  C   UNL     1       6.569  14.948  18.543  0.00  0.00    +0.000 A 
ATOM     16  N   UNL     1       7.208  14.824  17.326  0.00  0.00    +0.000 N 
ATOM     17  N   UNL     1       5.243  14.798  18.571  0.00  0.00    +0.000 NA
ATOM     18  H   UNL     1       8.085  15.325  17.359  0.00  0.00    +0.000 HD
ATOM     19  H   UNL     1       6.572  15.049  16.575  0.00  0.00    +0.000 HD
ENDBRANCH   3  11
BRANCH   1  20
ATOM     20  S   UNL     1       0.193  12.612  21.042  0.00  0.00    +0.000 S 
ATOM     21  O   UNL     1      -0.607  13.477  21.879  0.00  0.00    +0.000 OA
ATOM     22  O   UNL     1       1.018  11.576  21.639  0.00  0.00    +0.000 OA
BRANCH  20  28
ATOM     23  C   UNL     1      -3.170   9.906  16.680  0.00  0.00    +0.000 C 
ATOM     24  C   UNL     1      -2.335  10.594  17.718  0.00  0.00    +0.000 A 
ATOM     25  C   UNL     1      -0.966  10.363  17.814  0.00  0.00    +0.000 A 
ATOM     26  C   UNL     1      -0.173  10.995  18.793  0.00  0.00    +0.000 A 
ATOM     27  C   UNL     1       1.305  10.707  18.735  0.00  0.00    +0.000 C 
ATOM     28  C   UNL     1      -0.791  11.863  19.730  0.00  0.00    +0.000 A 
ATOM     29  C   UNL     1      -2.172  12.163  19.597  0.00  0.00    +0.000 A 
ATOM     30  C   UNL     1      -2.958  13.148  20.426  0.00  0.00    +0.000 C 
ATOM     31  C   UNL     1      -2.923  11.493  18.606  0.00  0.00    +0.000 A 
ENDBRANCH  20  28
ENDBRANCH   1  20
TORSDOF 3
ENDMDL
MODEL 5
REMARK VINA RESULT:      -7.2      1.841      3.294
REMARK  Name = 
REMARK  6 active torsions:
REMARK  status: ('A' for Active; 'I' for Inactive)
REMARK    1  A    between atoms: C_1  and  C_2
REMARK    2  A    between atoms: C_4  and  C_5
REMARK    3  A    between atoms: C_6  and  S_7
REMARK    4  A    between atoms: S_7  and  N_10
REMARK    5  A    between atoms: C_12  and  C_13
REMARK    6  A    between atoms: C_27  and  C_28
REMARK                            x       y       z     vdW  Elec       q    Type
REMARK                         _______ _______ _______ _____ _____    ______ ____
ROOT
ATOM      1  N   UNL     1       0.363  11.772  20.116  0.00  0.00    +0.000 N 
ATOM      2  C   UNL     1       1.322  10.792  20.137  0.00  0.00    +0.000 A 
ATOM      3  C   UNL     1       1.007   9.858  19.169  0.00  0.00    +0.000 A 
ATOM      4  C   UNL     1      -0.186  10.326  18.515  0.00  0.00    +0.000 A 
ATOM      5  C   UNL     1      -0.997   9.812  17.477  0.00  0.00    +0.000 A 
ATOM      6  C   UNL     1      -2.093  10.548  17.022  0.00  0.00    +0.000 A 
ATOM      7 BR   UNL     1      -3.230   9.810  15.703  0.00  0.00    +0.000 Br
ATOM      8  C   UNL     1      -2.364  11.811  17.531  0.00  0.00    +0.000 A 
ATOM      9  C   UNL     1      -1.573  12.350  18.551  0.00  0.00    +0.000 A 
ATOM     10  C   UNL     1      -0.517  11.577  19.067  0.00  0.00    +0.000 A 
ENDROOT
BRANCH   3  11
ATOM     11  C   UNL     1       1.802   8.656  18.936  0.00  0.00    +0.000 A 
ATOM     12  C   UNL     1       2.546   8.504  17.785  0.00  0.00    +0.000 A 
ATOM     13  C   UNL     1       3.288   7.354  17.704  0.00  0.00    +0.000 A 
ATOM     14  N   UNL     1       3.301   6.415  18.664  0.00  0.00    +0.000 NA
ATOM     15  C   UNL     1       2.545   6.650  19.738  0.00  0.00    +0.000 A 
ATOM     16  N   UNL     1       2.530   5.678  20.717  0.00  0.00    +0.000 N 
ATOM     17  N   UNL     1       1.773   7.725  19.913  0.00  0.00    +0.000 NA
ATOM     18  H   UNL     1       2.812   4.796  20.313  0.00  0.00    +0.000 HD
ATOM     19  H   UNL     1       1.653   5.701  21.216  0.00  0.00    +0.000 HD
ENDBRANCH   3  11
BRANCH   1  20
ATOM     20  S   UNL     1       0.449  13.156  21.109  0.00  0.00    +0.000 S 
ATOM     21  O   UNL     1       1.819  13.142  21.570  0.00  0.00    +0.000 OA
ATOM     22  O   UNL     1      -0.643  13.041  22.059  0.00  0.00    +0.000 OA
BRANCH  20  28
ATOM     23  C   UNL     1      -0.593  18.096  17.618  0.00  0.00    +0.000 C 
ATOM     24  C   UNL     1      -0.364  16.868  18.448  0.00  0.00    +0.000 A 
ATOM     25  C   UNL     1      -1.268  16.484  19.435  0.00  0.00    +0.000 A 
ATOM     26  C   UNL     1      -1.058  15.339  20.229  0.00  0.00    +0.000 A 
ATOM     27  C   UNL     1      -2.152  15.003  21.210  0.00  0.00    +0.000 C 
ATOM     28  C   UNL     1       0.123  14.575  20.044  0.00  0.00    +0.000 A 
ATOM     29  C   UNL     1       1.015  14.913  18.992  0.00  0.00    +0.000 A 
ATOM     30  C   UNL     1       2.246  14.146  18.580  0.00  0.00    +0.000 C 
ATOM     31  C   UNL     1       0.763  16.078  18.234  0.00  0.00    +0.000 A 
ENDBRANCH  20  28
ENDBRANCH   1  20
TORSDOF 3
ENDMDL
MODEL 6
REMARK VINA RESULT:      -7.2      1.447      2.786
REMARK  Name = 
REMARK  6 active torsions:
REMARK  status: ('A' for Active; 'I' for Inactive)
REMARK    1  A    between atoms: C_1  and  C_2
REMARK    2  A    between atoms: C_4  and  C_5
REMARK    3  A    between atoms: C_6  and  S_7
REMARK    4  A    between atoms: S_7  and  N_10
REMARK    5  A    between atoms: C_12  and  C_13
REMARK    6  A    between atoms: C_27  and  C_28
REMARK                            x       y       z     vdW  Elec       q    Type
REMARK                         _______ _______ _______ _____ _____    ______ ____
ROOT
ATOM      1  N   UNL     1      -0.844  11.262  20.562  0.00  0.00    +0.000 N 
ATOM      2  C   UNL     1       0.262  10.451  20.563  0.00  0.00    +0.000 A 
ATOM      3  C   UNL     1       0.299   9.770  19.362  0.00  0.00    +0.000 A 
ATOM      4  C   UNL     1      -0.827  10.226  18.592  0.00  0.00    +0.000 A 
ATOM      5  C   UNL     1      -1.335   9.895  17.314  0.00  0.00    +0.000 A 
ATOM      6  C   UNL     1      -2.452  10.570  16.816  0.00  0.00    +0.000 A 
ATOM      7 BR   UNL     1      -3.185  10.055  15.150  0.00  0.00    +0.000 Br
ATOM      8  C   UNL     1      -3.037  11.606  17.531  0.00  0.00    +0.000 A 
ATOM      9  C   UNL     1      -2.550  11.961  18.793  0.00  0.00    +0.000 A 
ATOM     10  C   UNL     1      -1.475  11.231  19.332  0.00  0.00    +0.000 A 
ENDROOT
BRANCH   3  11
ATOM     11  C   UNL     1       1.332   8.790  19.036  0.00  0.00    +0.000 A 
ATOM     12  C   UNL     1       2.082   8.900  17.884  0.00  0.00    +0.000 A 
ATOM     13  C   UNL     1       3.053   7.947  17.713  0.00  0.00    +0.000 A 
ATOM     14  N   UNL     1       3.274   6.954  18.590  0.00  0.00    +0.000 NA
ATOM     15  C   UNL     1       2.494   6.929  19.671  0.00  0.00    +0.000 A 
ATOM     16  N   UNL     1       2.697   5.896  20.564  0.00  0.00    +0.000 N 
ATOM     17  N   UNL     1       1.511   7.795  19.930  0.00  0.00    +0.000 NA
ATOM     18  H   UNL     1       3.158   5.133  20.090  0.00  0.00    +0.000 HD
ATOM     19  H   UNL     1       1.839   5.688  21.054  0.00  0.00    +0.000 HD
ENDBRANCH   3  11
BRANCH   1  20
ATOM     20  S   UNL     1      -1.189  12.337  21.841  0.00  0.00    +0.000 S 
ATOM     21  O   UNL     1      -0.035  12.204  22.700  0.00  0.00    +0.000 OA
ATOM     22  O   UNL     1      -2.509  11.974  22.327  0.00  0.00    +0.000 OA
BRANCH  20  28
ATOM     23  C   UNL     1      -1.577  17.868  19.208  0.00  0.00    +0.000 C 
ATOM     24  C   UNL     1      -1.461  16.533  19.882  0.00  0.00    +0.000 A 
ATOM     25  C   UNL     1      -0.306  15.764  19.766  0.00  0.00    +0.000 A 
ATOM     26  C   UNL     1      -0.190  14.503  20.385  0.00  0.00    +0.000 A 
ATOM     27  C   UNL     1       1.141  13.812  20.235  0.00  0.00    +0.000 C 
ATOM     28  C   UNL     1      -1.290  13.985  21.115  0.00  0.00    +0.000 A 
ATOM     29  C   UNL     1      -2.445  14.791  21.302  0.00  0.00    +0.000 A 
ATOM     30  C   UNL     1      -3.649  14.449  22.143  0.00  0.00    +0.000 C 
ATOM     31  C   UNL     1      -2.514  16.041  20.650  0.00  0.00    +0.000 A 
ENDBRANCH  20  28
ENDBRANCH   1  20
TORSDOF 3
ENDMDL
MODEL 7
REMARK VINA RESULT:      -7.1      4.513      6.205
REMARK  Name = 
REMARK  6 active torsions:
REMARK  status: ('A' for Active; 'I' for Inactive)
REMARK    1  A    between atoms: C_1  and  C_2
REMARK    2  A    between atoms: C_4  and  C_5
REMARK    3  A    between atoms: C_6  and  S_7
REMARK    4  A    between atoms: S_7  and  N_10
REMARK    5  A    between atoms: C_12  and  C_13
REMARK    6  A    between atoms: C_27  and  C_28
REMARK                            x       y       z     vdW  Elec       q    Type
REMARK                         _______ _______ _______ _____ _____    ______ ____
ROOT
ATOM      1  N   UNL     1       1.242  13.659  20.026  0.00  0.00    +0.000 N 
ATOM      2  C   UNL     1       2.607  13.562  20.109  0.00  0.00    +0.000 A 
ATOM      3  C   UNL     1       3.160  14.615  19.407  0.00  0.00    +0.000 A 
ATOM      4  C   UNL     1       2.062  15.400  18.908  0.00  0.00    +0.000 A 
ATOM      5  C   UNL     1       1.978  16.567  18.114  0.00  0.00    +0.000 A 
ATOM      6  C   UNL     1       0.730  17.127  17.833  0.00  0.00    +0.000 A 
ATOM      7 BR   UNL     1       0.618  18.630  16.690  0.00  0.00    +0.000 Br
ATOM      8  C   UNL     1      -0.430  16.590  18.373  0.00  0.00    +0.000 A 
ATOM      9  C   UNL     1      -0.377  15.442  19.170  0.00  0.00    +0.000 A 
ATOM     10  C   UNL     1       0.870  14.829  19.389  0.00  0.00    +0.000 A 
ENDROOT
BRANCH   3  11
ATOM     11  C   UNL     1       4.600  14.803  19.259  0.00  0.00    +0.000 A 
ATOM     12  C   UNL     1       5.189  14.857  18.013  0.00  0.00    +0.000 A 
ATOM     13  C   UNL     1       6.541  15.087  18.004  0.00  0.00    +0.000 A 
ATOM     14  N   UNL     1       7.270  15.243  19.120  0.00  0.00    +0.000 NA
ATOM     15  C   UNL     1       6.611  15.171  20.278  0.00  0.00    +0.000 A 
ATOM     16  N   UNL     1       7.358  15.303  21.431  0.00  0.00    +0.000 N 
ATOM     17  N   UNL     1       5.303  14.936  20.403  0.00  0.00    +0.000 NA
ATOM     18  H   UNL     1       8.323  15.084  21.229  0.00  0.00    +0.000 HD
ATOM     19  H   UNL     1       6.917  14.803  22.189  0.00  0.00    +0.000 HD
ENDBRANCH   3  11
BRANCH   1  20
ATOM     20  S   UNL     1       0.198  12.588  20.845  0.00  0.00    +0.000 S 
ATOM     21  O   UNL     1      -0.606  13.473  21.659  0.00  0.00    +0.000 OA
ATOM     22  O   UNL     1       1.050  11.593  21.471  0.00  0.00    +0.000 OA
BRANCH  20  28
ATOM     23  C   UNL     1      -3.150   9.942  16.433  0.00  0.00    +0.000 C 
ATOM     24  C   UNL     1      -2.348  10.562  17.538  0.00  0.00    +0.000 A 
ATOM     25  C   UNL     1      -2.917  11.479  18.418  0.00  0.00    +0.000 A 
ATOM     26  C   UNL     1      -2.171  12.077  19.452  0.00  0.00    +0.000 A 
ATOM     27  C   UNL     1      -2.932  12.997  20.372  0.00  0.00    +0.000 C 
ATOM     28  C   UNL     1      -0.792  11.766  19.581  0.00  0.00    +0.000 A 
ATOM     29  C   UNL     1      -0.218  10.779  18.738  0.00  0.00    +0.000 A 
ATOM     30  C   UNL     1       1.189  10.243  18.815  0.00  0.00    +0.000 C 
ATOM     31  C   UNL     1      -1.008  10.219  17.710  0.00  0.00    +0.000 A 
ENDBRANCH  20  28
ENDBRANCH   1  20
TORSDOF 3
ENDMDL
MODEL 8
REMARK VINA RESULT:      -7.1      2.581      6.733
REMARK  Name = 
REMARK  6 active torsions:
REMARK  status: ('A' for Active; 'I' for Inactive)
REMARK    1  A    between atoms: C_1  and  C_2
REMARK    2  A    between atoms: C_4  and  C_5
REMARK    3  A    between atoms: C_6  and  S_7
REMARK    4  A    between atoms: S_7  and  N_10
REMARK    5  A    between atoms: C_12  and  C_13
REMARK    6  A    between atoms: C_27  and  C_28
REMARK                            x       y       z     vdW  Elec       q    Type
REMARK                         _______ _______ _______ _____ _____    ______ ____
ROOT
ATOM      1  N   UNL     1      -0.494  12.180  20.349  0.00  0.00    +0.000 N 
ATOM      2  C   UNL     1      -1.016  12.726  21.493  0.00  0.00    +0.000 A 
ATOM      3  C   UNL     1      -2.382  12.850  21.328  0.00  0.00    +0.000 A 
ATOM      4  C   UNL     1      -2.692  12.318  20.028  0.00  0.00    +0.000 A 
ATOM      5  C   UNL     1      -3.888  12.186  19.286  0.00  0.00    +0.000 A 
ATOM      6  C   UNL     1      -3.865  11.565  18.035  0.00  0.00    +0.000 A 
ATOM      7 BR   UNL     1      -5.451  11.479  17.007  0.00  0.00    +0.000 Br
ATOM      8  C   UNL     1      -2.693  11.017  17.533  0.00  0.00    +0.000 A 
ATOM      9  C   UNL     1      -1.496  11.123  18.249  0.00  0.00    +0.000 A 
ATOM     10  C   UNL     1      -1.500  11.819  19.472  0.00  0.00    +0.000 A 
ENDROOT
BRANCH   3  11
ATOM     11  C   UNL     1      -3.256  13.429  22.344  0.00  0.00    +0.000 A 
ATOM     12  C   UNL     1      -3.282  14.789  22.574  0.00  0.00    +0.000 A 
ATOM     13  C   UNL     1      -4.178  15.215  23.519  0.00  0.00    +0.000 A 
ATOM     14  N   UNL     1      -4.985  14.385  24.199  0.00  0.00    +0.000 NA
ATOM     15  C   UNL     1      -4.885  13.087  23.908  0.00  0.00    +0.000 A 
ATOM     16  N   UNL     1      -5.691  12.223  24.622  0.00  0.00    +0.000 N 
ATOM     17  N   UNL     1      -4.037  12.561  23.021  0.00  0.00    +0.000 NA
ATOM     18  H   UNL     1      -5.971  12.666  25.485  0.00  0.00    +0.000 HD
ATOM     19  H   UNL     1      -5.255  11.314  24.686  0.00  0.00    +0.000 HD
ENDBRANCH   3  11
BRANCH   1  20
ATOM     20  S   UNL     1       1.159  11.785  20.197  0.00  0.00    +0.000 S 
ATOM     21  O   UNL     1       1.751  12.406  21.361  0.00  0.00    +0.000 OA
ATOM     22  O   UNL     1       1.554  12.204  18.864  0.00  0.00    +0.000 OA
BRANCH  20  28
ATOM     23  C   UNL     1       1.713   5.680  20.505  0.00  0.00    +0.000 C 
ATOM     24  C   UNL     1       1.542   7.167  20.410  0.00  0.00    +0.000 A 
ATOM     25  C   UNL     1       1.847   7.856  19.239  0.00  0.00    +0.000 A 
ATOM     26  C   UNL     1       1.702   9.254  19.142  0.00  0.00    +0.000 A 
ATOM     27  C   UNL     1       2.000   9.860  17.795  0.00  0.00    +0.000 C 
ATOM     28  C   UNL     1       1.268   9.987  20.278  0.00  0.00    +0.000 A 
ATOM     29  C   UNL     1       0.884   9.288  21.453  0.00  0.00    +0.000 A 
ATOM     30  C   UNL     1       0.292   9.893  22.701  0.00  0.00    +0.000 C 
ATOM     31  C   UNL     1       1.061   7.888  21.501  0.00  0.00    +0.000 A 
ENDBRANCH  20  28
ENDBRANCH   1  20
TORSDOF 3
ENDMDL
MODEL 9
REMARK VINA RESULT:      -7.1      4.540      6.297
REMARK  Name = 
REMARK  6 active torsions:
REMARK  status: ('A' for Active; 'I' for Inactive)
REMARK    1  A    between atoms: C_1  and  C_2
REMARK    2  A    between atoms: C_4  and  C_5
REMARK    3  A    between atoms: C_6  and  S_7
REMARK    4  A    between atoms: S_7  and  N_10
REMARK    5  A    between atoms: C_12  and  C_13
REMARK    6  A    between atoms: C_27  and  C_28
REMARK                            x       y       z     vdW  Elec       q    Type
REMARK                         _______ _______ _______ _____ _____    ______ ____
ROOT
ATOM      1  N   UNL     1       1.304  13.681  20.135  0.00  0.00    +0.000 N 
ATOM      2  C   UNL     1       2.670  13.591  20.200  0.00  0.00    +0.000 A 
ATOM      3  C   UNL     1       3.208  14.643  19.485  0.00  0.00    +0.000 A 
ATOM      4  C   UNL     1       2.100  15.420  18.996  0.00  0.00    +0.000 A 
ATOM      5  C   UNL     1       1.998  16.583  18.197  0.00  0.00    +0.000 A 
ATOM      6  C   UNL     1       0.744  17.134  17.931  0.00  0.00    +0.000 A 
ATOM      7 BR   UNL     1       0.608  18.631  16.781  0.00  0.00    +0.000 Br
ATOM      8  C   UNL     1      -0.407  16.594  18.489  0.00  0.00    +0.000 A 
ATOM      9  C   UNL     1      -0.336  15.450  19.291  0.00  0.00    +0.000 A 
ATOM     10  C   UNL     1       0.917  14.845  19.497  0.00  0.00    +0.000 A 
ENDROOT
BRANCH   3  11
ATOM     11  C   UNL     1       4.645  14.838  19.317  0.00  0.00    +0.000 A 
ATOM     12  C   UNL     1       5.218  14.882  18.063  0.00  0.00    +0.000 A 
ATOM     13  C   UNL     1       6.568  15.119  18.033  0.00  0.00    +0.000 A 
ATOM     14  N   UNL     1       7.311  15.292  19.138  0.00  0.00    +0.000 NA
ATOM     15  C   UNL     1       6.667  15.229  20.305  0.00  0.00    +0.000 A 
ATOM     16  N   UNL     1       7.427  15.378  21.447  0.00  0.00    +0.000 N 
ATOM     17  N   UNL     1       5.362  14.988  20.450  0.00  0.00    +0.000 NA
ATOM     18  H   UNL     1       8.391  15.162  21.235  0.00  0.00    +0.000 HD
ATOM     19  H   UNL     1       6.999  14.884  22.217  0.00  0.00    +0.000 HD
ENDBRANCH   3  11
BRANCH   1  20
ATOM     20  S   UNL     1       0.276  12.608  20.974  0.00  0.00    +0.000 S 
ATOM     21  O   UNL     1      -0.475  13.487  21.842  0.00  0.00    +0.000 OA
ATOM     22  O   UNL     1       1.137  11.584  21.539  0.00  0.00    +0.000 OA
BRANCH  20  28
ATOM     23  C   UNL     1      -3.337   9.823  16.868  0.00  0.00    +0.000 C 
ATOM     24  C   UNL     1      -2.442  10.530  17.842  0.00  0.00    +0.000 A 
ATOM     25  C   UNL     1      -1.072  10.283  17.875  0.00  0.00    +0.000 A 
ATOM     26  C   UNL     1      -0.224  10.932  18.794  0.00  0.00    +0.000 A 
ATOM     27  C   UNL     1       1.246  10.622  18.671  0.00  0.00    +0.000 C 
ATOM     28  C   UNL     1      -0.782  11.835  19.736  0.00  0.00    +0.000 A 
ATOM     29  C   UNL     1      -2.165  12.150  19.664  0.00  0.00    +0.000 A 
ATOM     30  C   UNL     1      -2.896  13.169  20.501  0.00  0.00    +0.000 C 
ATOM     31  C   UNL     1      -2.973  11.462  18.732  0.00  0.00    +0.000 A 
ENDBRANCH  20  28
ENDBRANCH   1  20
TORSDOF 3
ENDMDL
