MODEL 1
REMARK VINA RESULT:      -6.9      0.000      0.000
REMARK  Name = 
REMARK  15 active torsions:
REMARK  status: ('A' for Active; 'I' for Inactive)
REMARK    1  A    between atoms: C_1  and  C_2
REMARK    2  A    between atoms: C_2  and  C_3
REMARK    3  A    between atoms: C_3  and  C_4
REMARK    4  A    between atoms: C_4  and  C_5
REMARK    5  A    between atoms: C_5  and  C_6
REMARK    6  A    between atoms: C_6  and  C_7
REMARK    7  A    between atoms: C_7  and  C_8
REMARK    8  A    between atoms: C_8  and  C_9
REMARK    9  A    between atoms: C_9  and  C_10
REMARK   10  A    between atoms: C_10  and  C_11
REMARK   11  A    between atoms: C_11  and  C_12
REMARK   12  A    between atoms: C_12  and  O_14
REMARK   13  A    between atoms: O_14  and  C_15
REMARK   14  A    between atoms: C_27  and  C_28
REMARK   15  A    between atoms: C_28  and  O_29
REMARK                            x       y       z     vdW  Elec       q    Type
REMARK                         _______ _______ _______ _____ _____    ______ ____
ROOT
ATOM      1  C   UNL     1       6.937   6.098  17.151  0.00  0.00    +0.000 C 
ATOM      2  C   UNL     1       5.751   5.853  18.044  0.00  0.00    +0.000 C 
ATOM      3  O   UNL     1       5.740   4.490  18.537  0.00  0.00    +0.000 OA
ATOM      4  C   UNL     1       4.436   4.093  18.473  0.00  0.00    +0.000 A 
ATOM      5  N   UNL     1       3.996   3.073  19.117  0.00  0.00    +0.000 NA
ATOM      6  C   UNL     1       2.648   2.843  19.004  0.00  0.00    +0.000 A 
ATOM      7  N   UNL     1       2.179   1.834  19.654  0.00  0.00    +0.000 NA
ATOM      8  C   UNL     1       1.782   3.734  18.188  0.00  0.00    +0.000 A 
ATOM      9  C   UNL     1       2.373   4.744  17.540  0.00  0.00    +0.000 A 
ATOM     10  N   UNL     1       3.721   4.930  17.667  0.00  0.00    +0.000 N 
ATOM     11  C   UNL     1       4.558   5.941  17.106  0.00  0.00    +0.000 C 
ATOM     12  O   UNL     1       5.012   5.583  15.800  0.00  0.00    +0.000 OA
ATOM     13  C   UNL     1       6.459   5.614  15.783  0.00  0.00    +0.000 C 
ATOM     14  H   UNL     1       2.996   1.425  20.121  0.00  0.00    +0.000 HD
ENDROOT
BRANCH   1  15
ATOM     15  O   UNL     1       7.273   7.489  17.002  0.00  0.00    +0.000 OA
BRANCH  15  16
ATOM     16  C   UNL     1       7.986   7.995  18.045  0.00  0.00    +0.000 C 
ATOM     17  O   UNL     1       8.492   7.314  18.927  0.00  0.00    +0.000 OA
BRANCH  16  18
ATOM     18  C   UNL     1       8.164   9.473  17.859  0.00  0.00    +0.000 C 
BRANCH  18  19
ATOM     19  C   UNL     1       9.174  10.015  18.862  0.00  0.00    +0.000 C 
BRANCH  19  20
ATOM     20  C   UNL     1       9.941  11.210  18.309  0.00  0.00    +0.000 C 
BRANCH  20  21
ATOM     21  C   UNL     1       8.961  12.285  17.844  0.00  0.00    +0.000 C 
BRANCH  21  22
ATOM     22  C   UNL     1       9.241  13.623  18.515  0.00  0.00    +0.000 C 
BRANCH  22  23
ATOM     23  C   UNL     1      10.400  13.499  19.502  0.00  0.00    +0.000 C 
BRANCH  23  24
ATOM     24  C   UNL     1       9.933  13.782  20.925  0.00  0.00    +0.000 C 
BRANCH  24  25
ATOM     25  C   UNL     1       9.675  12.486  21.692  0.00  0.00    +0.000 C 
BRANCH  25  26
ATOM     26  C   UNL     1       8.222  12.412  22.155  0.00  0.00    +0.000 C 
BRANCH  26  28
ATOM     27  C   UNL     1       8.375  12.465  24.662  0.00  0.00    +0.000 C 
ATOM     28  C   UNL     1       8.090  11.603  23.442  0.00  0.00    +0.000 C 
ENDBRANCH  26  28
ENDBRANCH  25  26
ENDBRANCH  24  25
ENDBRANCH  23  24
ENDBRANCH  22  23
ENDBRANCH  21  22
ENDBRANCH  20  21
ENDBRANCH  19  20
ENDBRANCH  18  19
ENDBRANCH  16  18
ENDBRANCH  15  16
ENDBRANCH   1  15
BRANCH  13  29
ATOM     29  C   UNL     1       6.994   4.220  15.447  0.00  0.00    +0.000 C 
BRANCH  29  30
ATOM     30  O   UNL     1       5.980   3.448  14.811  0.00  0.00    +0.000 OA
ATOM     31  H   UNL     1       5.545   2.936  15.517  0.00  0.00    +0.000 HD
ENDBRANCH  29  30
ENDBRANCH  13  29
TORSDOF 14
ENDMDL
MODEL 2
REMARK VINA RESULT:      -6.7      1.744      2.623
REMARK  Name = 
REMARK  15 active torsions:
REMARK  status: ('A' for Active; 'I' for Inactive)
REMARK    1  A    between atoms: C_1  and  C_2
REMARK    2  A    between atoms: C_2  and  C_3
REMARK    3  A    between atoms: C_3  and  C_4
REMARK    4  A    between atoms: C_4  and  C_5
REMARK    5  A    between atoms: C_5  and  C_6
REMARK    6  A    between atoms: C_6  and  C_7
REMARK    7  A    between atoms: C_7  and  C_8
REMARK    8  A    between atoms: C_8  and  C_9
REMARK    9  A    between atoms: C_9  and  C_10
REMARK   10  A    between atoms: C_10  and  C_11
REMARK   11  A    between atoms: C_11  and  C_12
REMARK   12  A    between atoms: C_12  and  O_14
REMARK   13  A    between atoms: O_14  and  C_15
REMARK   14  A    between atoms: C_27  and  C_28
REMARK   15  A    between atoms: C_28  and  O_29
REMARK                            x       y       z     vdW  Elec       q    Type
REMARK                         _______ _______ _______ _____ _____    ______ ____
ROOT
ATOM      1  C   UNL     1       6.161   5.576  17.694  0.00  0.00    +0.000 C 
ATOM      2  C   UNL     1       5.296   5.545  18.925  0.00  0.00    +0.000 C 
ATOM      3  O   UNL     1       5.246   4.215  19.497  0.00  0.00    +0.000 OA
ATOM      4  C   UNL     1       3.946   4.029  19.869  0.00  0.00    +0.000 A 
ATOM      5  N   UNL     1       3.591   3.110  20.690  0.00  0.00    +0.000 NA
ATOM      6  C   UNL     1       2.257   3.095  21.016  0.00  0.00    +0.000 A 
ATOM      7  N   UNL     1       1.879   2.190  21.851  0.00  0.00    +0.000 NA
ATOM      8  C   UNL     1       1.316   4.092  20.443  0.00  0.00    +0.000 A 
ATOM      9  C   UNL     1       1.810   4.978  19.571  0.00  0.00    +0.000 A 
ATOM     10  N   UNL     1       3.141   4.950  19.262  0.00  0.00    +0.000 N 
ATOM     11  C   UNL     1       3.894   5.800  18.397  0.00  0.00    +0.000 C 
ATOM     12  O   UNL     1       3.855   5.341  17.045  0.00  0.00    +0.000 OA
ATOM     13  C   UNL     1       5.211   5.141  16.580  0.00  0.00    +0.000 C 
ATOM     14  H   UNL     1       2.734   1.668  22.072  0.00  0.00    +0.000 HD
ENDROOT
BRANCH   1  15
ATOM     15  O   UNL     1       6.629   6.891  17.347  0.00  0.00    +0.000 OA
BRANCH  15  16
ATOM     16  C   UNL     1       7.714   7.294  18.064  0.00  0.00    +0.000 C 
ATOM     17  O   UNL     1       8.283   6.602  18.897  0.00  0.00    +0.000 OA
BRANCH  16  18
ATOM     18  C   UNL     1       8.169   8.637  17.571  0.00  0.00    +0.000 C 
BRANCH  18  19
ATOM     19  C   UNL     1       8.809   9.427  18.704  0.00  0.00    +0.000 C 
BRANCH  19  20
ATOM     20  C   UNL     1       9.102  10.866  18.300  0.00  0.00    +0.000 C 
BRANCH  20  21
ATOM     21  C   UNL     1      10.309  11.388  19.076  0.00  0.00    +0.000 C 
BRANCH  21  22
ATOM     22  C   UNL     1      10.018  11.477  20.568  0.00  0.00    +0.000 C 
BRANCH  22  23
ATOM     23  C   UNL     1      10.114  12.923  21.050  0.00  0.00    +0.000 C 
BRANCH  23  24
ATOM     24  C   UNL     1      11.073  13.724  20.177  0.00  0.00    +0.000 C 
BRANCH  24  25
ATOM     25  C   UNL     1      10.468  15.069  19.778  0.00  0.00    +0.000 C 
BRANCH  25  26
ATOM     26  C   UNL     1      10.241  15.133  18.269  0.00  0.00    +0.000 C 
BRANCH  26  28
ATOM     27  C   UNL     1       7.834  14.409  18.263  0.00  0.00    +0.000 C 
ATOM     28  C   UNL     1       8.805  15.534  17.941  0.00  0.00    +0.000 C 
ENDBRANCH  26  28
ENDBRANCH  25  26
ENDBRANCH  24  25
ENDBRANCH  23  24
ENDBRANCH  22  23
ENDBRANCH  21  22
ENDBRANCH  20  21
ENDBRANCH  19  20
ENDBRANCH  18  19
ENDBRANCH  16  18
ENDBRANCH  15  16
ENDBRANCH   1  15
BRANCH  13  29
ATOM     29  C   UNL     1       5.407   3.671  16.200  0.00  0.00    +0.000 C 
BRANCH  29  30
ATOM     30  O   UNL     1       4.547   2.846  16.980  0.00  0.00    +0.000 OA
ATOM     31  H   UNL     1       5.129   2.256  17.494  0.00  0.00    +0.000 HD
ENDBRANCH  29  30
ENDBRANCH  13  29
TORSDOF 14
ENDMDL
MODEL 3
REMARK VINA RESULT:      -6.7      5.410      7.850
REMARK  Name = 
REMARK  15 active torsions:
REMARK  status: ('A' for Active; 'I' for Inactive)
REMARK    1  A    between atoms: C_1  and  C_2
REMARK    2  A    between atoms: C_2  and  C_3
REMARK    3  A    between atoms: C_3  and  C_4
REMARK    4  A    between atoms: C_4  and  C_5
REMARK    5  A    between atoms: C_5  and  C_6
REMARK    6  A    between atoms: C_6  and  C_7
REMARK    7  A    between atoms: C_7  and  C_8
REMARK    8  A    between atoms: C_8  and  C_9
REMARK    9  A    between atoms: C_9  and  C_10
REMARK   10  A    between atoms: C_10  and  C_11
REMARK   11  A    between atoms: C_11  and  C_12
REMARK   12  A    between atoms: C_12  and  O_14
REMARK   13  A    between atoms: O_14  and  C_15
REMARK   14  A    between atoms: C_27  and  C_28
REMARK   15  A    between atoms: C_28  and  O_29
REMARK                            x       y       z     vdW  Elec       q    Type
REMARK                         _______ _______ _______ _____ _____    ______ ____
ROOT
ATOM      1  C   UNL     1       2.246   5.933  19.115  0.00  0.00    +0.000 C 
ATOM      2  C   UNL     1       3.602   6.343  18.607  0.00  0.00    +0.000 C 
ATOM      3  O   UNL     1       3.726   6.090  17.186  0.00  0.00    +0.000 OA
ATOM      4  C   UNL     1       4.985   5.590  17.016  0.00  0.00    +0.000 A 
ATOM      5  N   UNL     1       5.560   5.551  15.869  0.00  0.00    +0.000 NA
ATOM      6  C   UNL     1       6.850   5.084  15.874  0.00  0.00    +0.000 A 
ATOM      7  N   UNL     1       7.455   5.050  14.736  0.00  0.00    +0.000 NA
ATOM      8  C   UNL     1       7.510   4.663  17.137  0.00  0.00    +0.000 A 
ATOM      9  C   UNL     1       6.787   4.722  18.261  0.00  0.00    +0.000 A 
ATOM     10  N   UNL     1       5.500   5.180  18.212  0.00  0.00    +0.000 N 
ATOM     11  C   UNL     1       4.556   5.361  19.267  0.00  0.00    +0.000 C 
ATOM     12  O   UNL     1       3.825   4.163  19.530  0.00  0.00    +0.000 OA
ATOM     13  C   UNL     1       2.410   4.441  19.403  0.00  0.00    +0.000 C 
ATOM     14  H   UNL     1       6.763   5.401  14.065  0.00  0.00    +0.000 HD
ENDROOT
BRANCH   1  15
ATOM     15  O   UNL     1       1.881   6.555  20.360  0.00  0.00    +0.000 OA
BRANCH  15  16
ATOM     16  C   UNL     1       1.656   7.894  20.257  0.00  0.00    +0.000 C 
ATOM     17  O   UNL     1       1.657   8.513  19.202  0.00  0.00    +0.000 OA
BRANCH  16  18
ATOM     18  C   UNL     1       1.275   8.441  21.602  0.00  0.00    +0.000 C 
BRANCH  18  19
ATOM     19  C   UNL     1      -0.226   8.686  21.669  0.00  0.00    +0.000 C 
BRANCH  19  20
ATOM     20  C   UNL     1      -0.625   9.446  22.927  0.00  0.00    +0.000 C 
BRANCH  20  21
ATOM     21  C   UNL     1      -0.462  10.947  22.700  0.00  0.00    +0.000 C 
BRANCH  21  22
ATOM     22  C   UNL     1      -0.858  11.344  21.285  0.00  0.00    +0.000 C 
BRANCH  22  23
ATOM     23  C   UNL     1       0.329  11.961  20.546  0.00  0.00    +0.000 C 
BRANCH  23  24
ATOM     24  C   UNL     1      -0.137  12.714  19.305  0.00  0.00    +0.000 C 
BRANCH  24  25
ATOM     25  C   UNL     1      -1.627  12.492  19.050  0.00  0.00    +0.000 C 
BRANCH  25  26
ATOM     26  C   UNL     1      -1.844  11.731  17.743  0.00  0.00    +0.000 C 
BRANCH  26  28
ATOM     27  C   UNL     1      -3.161   9.623  17.377  0.00  0.00    +0.000 C 
ATOM     28  C   UNL     1      -1.903  10.225  17.982  0.00  0.00    +0.000 C 
ENDBRANCH  26  28
ENDBRANCH  25  26
ENDBRANCH  24  25
ENDBRANCH  23  24
ENDBRANCH  22  23
ENDBRANCH  21  22
ENDBRANCH  20  21
ENDBRANCH  19  20
ENDBRANCH  18  19
ENDBRANCH  16  18
ENDBRANCH  15  16
ENDBRANCH   1  15
BRANCH  13  29
ATOM     29  C   UNL     1       1.818   3.573  18.290  0.00  0.00    +0.000 C 
BRANCH  29  30
ATOM     30  O   UNL     1       1.167   4.393  17.325  0.00  0.00    +0.000 OA
ATOM     31  H   UNL     1       0.326   4.675  17.729  0.00  0.00    +0.000 HD
ENDBRANCH  29  30
ENDBRANCH  13  29
TORSDOF 14
ENDMDL
MODEL 4
REMARK VINA RESULT:      -6.6      1.995      2.448
REMARK  Name = 
REMARK  15 active torsions:
REMARK  status: ('A' for Active; 'I' for Inactive)
REMARK    1  A    between atoms: C_1  and  C_2
REMARK    2  A    between atoms: C_2  and  C_3
REMARK    3  A    between atoms: C_3  and  C_4
REMARK    4  A    between atoms: C_4  and  C_5
REMARK    5  A    between atoms: C_5  and  C_6
REMARK    6  A    between atoms: C_6  and  C_7
REMARK    7  A    between atoms: C_7  and  C_8
REMARK    8  A    between atoms: C_8  and  C_9
REMARK    9  A    between atoms: C_9  and  C_10
REMARK   10  A    between atoms: C_10  and  C_11
REMARK   11  A    between atoms: C_11  and  C_12
REMARK   12  A    between atoms: C_12  and  O_14
REMARK   13  A    between atoms: O_14  and  C_15
REMARK   14  A    between atoms: C_27  and  C_28
REMARK   15  A    between atoms: C_28  and  O_29
REMARK                            x       y       z     vdW  Elec       q    Type
REMARK                         _______ _______ _______ _____ _____    ______ ____
ROOT
ATOM      1  C   UNL     1       6.961   5.535  16.983  0.00  0.00    +0.000 C 
ATOM      2  C   UNL     1       5.856   5.513  18.005  0.00  0.00    +0.000 C 
ATOM      3  O   UNL     1       5.644   4.175  18.518  0.00  0.00    +0.000 OA
ATOM      4  C   UNL     1       4.289   4.031  18.604  0.00  0.00    +0.000 A 
ATOM      5  N   UNL     1       3.740   3.110  19.308  0.00  0.00    +0.000 NA
ATOM      6  C   UNL     1       2.368   3.139  19.348  0.00  0.00    +0.000 A 
ATOM      7  N   UNL     1       1.793   2.233  20.061  0.00  0.00    +0.000 NA
ATOM      8  C   UNL     1       1.601   4.181  18.617  0.00  0.00    +0.000 A 
ATOM      9  C   UNL     1       2.296   5.064  17.892  0.00  0.00    +0.000 A 
ATOM     10  N   UNL     1       3.660   4.992  17.867  0.00  0.00    +0.000 N 
ATOM     11  C   UNL     1       4.605   5.830  17.202  0.00  0.00    +0.000 C 
ATOM     12  O   UNL     1       4.836   5.399  15.860  0.00  0.00    +0.000 OA
ATOM     13  C   UNL     1       6.252   5.157  15.684  0.00  0.00    +0.000 C 
ATOM     14  H   UNL     1       2.565   1.674  20.442  0.00  0.00    +0.000 HD
ENDROOT
BRANCH   1  15
ATOM     15  O   UNL     1       7.534   6.838  16.777  0.00  0.00    +0.000 OA
BRANCH  15  16
ATOM     16  C   UNL     1       7.945   7.444  17.924  0.00  0.00    +0.000 C 
ATOM     17  O   UNL     1       8.352   6.845  18.911  0.00  0.00    +0.000 OA
BRANCH  16  18
ATOM     18  C   UNL     1       7.950   8.932  17.730  0.00  0.00    +0.000 C 
BRANCH  18  19
ATOM     19  C   UNL     1       8.850   9.598  18.762  0.00  0.00    +0.000 C 
BRANCH  19  20
ATOM     20  C   UNL     1       9.320  10.973  18.305  0.00  0.00    +0.000 C 
BRANCH  20  21
ATOM     21  C   UNL     1      10.765  11.199  18.742  0.00  0.00    +0.000 C 
BRANCH  21  22
ATOM     22  C   UNL     1      11.378  12.405  18.043  0.00  0.00    +0.000 C 
BRANCH  22  23
ATOM     23  C   UNL     1      10.920  13.703  18.704  0.00  0.00    +0.000 C 
BRANCH  23  24
ATOM     24  C   UNL     1      10.079  14.535  17.743  0.00  0.00    +0.000 C 
BRANCH  24  25
ATOM     25  C   UNL     1      10.008  15.994  18.190  0.00  0.00    +0.000 C 
BRANCH  25  26
ATOM     26  C   UNL     1       8.560  16.476  18.232  0.00  0.00    +0.000 C 
BRANCH  26  28
ATOM     27  C   UNL     1       6.633  15.047  18.981  0.00  0.00    +0.000 C 
ATOM     28  C   UNL     1       7.593  15.361  17.844  0.00  0.00    +0.000 C 
ENDBRANCH  26  28
ENDBRANCH  25  26
ENDBRANCH  24  25
ENDBRANCH  23  24
ENDBRANCH  22  23
ENDBRANCH  21  22
ENDBRANCH  20  21
ENDBRANCH  19  20
ENDBRANCH  18  19
ENDBRANCH  16  18
ENDBRANCH  15  16
ENDBRANCH   1  15
BRANCH  13  29
ATOM     29  C   UNL     1       6.475   3.689  15.314  0.00  0.00    +0.000 C 
BRANCH  29  30
ATOM     30  O   UNL     1       6.363   3.518  13.904  0.00  0.00    +0.000 OA
ATOM     31  H   UNL     1       5.913   4.315  13.568  0.00  0.00    +0.000 HD
ENDBRANCH  29  30
ENDBRANCH  13  29
TORSDOF 14
ENDMDL
MODEL 5
REMARK VINA RESULT:      -6.6      5.347      8.233
REMARK  Name = 
REMARK  15 active torsions:
REMARK  status: ('A' for Active; 'I' for Inactive)
REMARK    1  A    between atoms: C_1  and  C_2
REMARK    2  A    between atoms: C_2  and  C_3
REMARK    3  A    between atoms: C_3  and  C_4
REMARK    4  A    between atoms: C_4  and  C_5
REMARK    5  A    between atoms: C_5  and  C_6
REMARK    6  A    between atoms: C_6  and  C_7
REMARK    7  A    between atoms: C_7  and  C_8
REMARK    8  A    between atoms: C_8  and  C_9
REMARK    9  A    between atoms: C_9  and  C_10
REMARK   10  A    between atoms: C_10  and  C_11
REMARK   11  A    between atoms: C_11  and  C_12
REMARK   12  A    between atoms: C_12  and  O_14
REMARK   13  A    between atoms: O_14  and  C_15
REMARK   14  A    between atoms: C_27  and  C_28
REMARK   15  A    between atoms: C_28  and  O_29
REMARK                            x       y       z     vdW  Elec       q    Type
REMARK                         _______ _______ _______ _____ _____    ______ ____
ROOT
ATOM      1  C   UNL     1       2.315   5.824  19.177  0.00  0.00    +0.000 C 
ATOM      2  C   UNL     1       3.657   6.253  18.650  0.00  0.00    +0.000 C 
ATOM      3  O   UNL     1       3.751   6.039  17.220  0.00  0.00    +0.000 OA
ATOM      4  C   UNL     1       5.008   5.549  17.009  0.00  0.00    +0.000 A 
ATOM      5  N   UNL     1       5.557   5.543  15.849  0.00  0.00    +0.000 NA
ATOM      6  C   UNL     1       6.849   5.081  15.813  0.00  0.00    +0.000 A 
ATOM      7  N   UNL     1       7.428   5.080  14.662  0.00  0.00    +0.000 NA
ATOM      8  C   UNL     1       7.538   4.630  17.050  0.00  0.00    +0.000 A 
ATOM      9  C   UNL     1       6.840   4.656  18.190  0.00  0.00    +0.000 A 
ATOM     10  N   UNL     1       5.550   5.109  18.181  0.00  0.00    +0.000 N 
ATOM     11  C   UNL     1       4.629   5.258  19.262  0.00  0.00    +0.000 C 
ATOM     12  O   UNL     1       3.908   4.051  19.508  0.00  0.00    +0.000 OA
ATOM     13  C   UNL     1       2.491   4.326  19.421  0.00  0.00    +0.000 C 
ATOM     14  H   UNL     1       6.720   5.447  14.016  0.00  0.00    +0.000 HD
ENDROOT
BRANCH   1  15
ATOM     15  O   UNL     1       1.975   6.412  20.445  0.00  0.00    +0.000 OA
BRANCH  15  16
ATOM     16  C   UNL     1       1.558   7.704  20.356  0.00  0.00    +0.000 C 
ATOM     17  O   UNL     1       1.819   8.448  19.421  0.00  0.00    +0.000 OA
BRANCH  16  18
ATOM     18  C   UNL     1       0.631   8.010  21.497  0.00  0.00    +0.000 C 
BRANCH  18  19
ATOM     19  C   UNL     1       1.068   9.284  22.207  0.00  0.00    +0.000 C 
BRANCH  19  20
ATOM     20  C   UNL     1       0.122  10.445  21.927  0.00  0.00    +0.000 C 
BRANCH  20  21
ATOM     21  C   UNL     1       0.767  11.415  20.940  0.00  0.00    +0.000 C 
BRANCH  21  22
ATOM     22  C   UNL     1      -0.193  11.793  19.821  0.00  0.00    +0.000 C 
BRANCH  22  23
ATOM     23  C   UNL     1      -1.176  10.657  19.547  0.00  0.00    +0.000 C 
BRANCH  23  24
ATOM     24  C   UNL     1      -1.112  10.225  18.086  0.00  0.00    +0.000 C 
BRANCH  24  25
ATOM     25  C   UNL     1      -2.511  10.017  17.508  0.00  0.00    +0.000 C 
BRANCH  25  26
ATOM     26  C   UNL     1      -3.451  11.135  17.955  0.00  0.00    +0.000 C 
BRANCH  26  28
ATOM     27  C   UNL     1      -5.750  11.924  17.317  0.00  0.00    +0.000 C 
ATOM     28  C   UNL     1      -4.357  11.587  16.812  0.00  0.00    +0.000 C 
ENDBRANCH  26  28
ENDBRANCH  25  26
ENDBRANCH  24  25
ENDBRANCH  23  24
ENDBRANCH  22  23
ENDBRANCH  21  22
ENDBRANCH  20  21
ENDBRANCH  19  20
ENDBRANCH  18  19
ENDBRANCH  16  18
ENDBRANCH  15  16
ENDBRANCH   1  15
BRANCH  13  29
ATOM     29  C   UNL     1       1.877   3.486  18.298  0.00  0.00    +0.000 C 
BRANCH  29  30
ATOM     30  O   UNL     1       1.198   4.328  17.372  0.00  0.00    +0.000 OA
ATOM     31  H   UNL     1       1.886   4.717  16.802  0.00  0.00    +0.000 HD
ENDBRANCH  29  30
ENDBRANCH  13  29
TORSDOF 14
ENDMDL
MODEL 6
REMARK VINA RESULT:      -6.6      5.468      8.145
REMARK  Name = 
REMARK  15 active torsions:
REMARK  status: ('A' for Active; 'I' for Inactive)
REMARK    1  A    between atoms: C_1  and  C_2
REMARK    2  A    between atoms: C_2  and  C_3
REMARK    3  A    between atoms: C_3  and  C_4
REMARK    4  A    between atoms: C_4  and  C_5
REMARK    5  A    between atoms: C_5  and  C_6
REMARK    6  A    between atoms: C_6  and  C_7
REMARK    7  A    between atoms: C_7  and  C_8
REMARK    8  A    between atoms: C_8  and  C_9
REMARK    9  A    between atoms: C_9  and  C_10
REMARK   10  A    between atoms: C_10  and  C_11
REMARK   11  A    between atoms: C_11  and  C_12
REMARK   12  A    between atoms: C_12  and  O_14
REMARK   13  A    between atoms: O_14  and  C_15
REMARK   14  A    between atoms: C_27  and  C_28
REMARK   15  A    between atoms: C_28  and  O_29
REMARK                            x       y       z     vdW  Elec       q    Type
REMARK                         _______ _______ _______ _____ _____    ______ ____
ROOT
ATOM      1  C   UNL     1       3.153   3.886  19.370  0.00  0.00    +0.000 C 
ATOM      2  C   UNL     1       3.849   4.702  18.315  0.00  0.00    +0.000 C 
ATOM      3  O   UNL     1       3.720   4.091  17.008  0.00  0.00    +0.000 OA
ATOM      4  C   UNL     1       4.943   4.231  16.420  0.00  0.00    +0.000 A 
ATOM      5  N   UNL     1       5.116   4.099  15.155  0.00  0.00    +0.000 NA
ATOM      6  C   UNL     1       6.392   4.339  14.708  0.00  0.00    +0.000 A 
ATOM      7  N   UNL     1       6.588   4.228  13.439  0.00  0.00    +0.000 NA
ATOM      8  C   UNL     1       7.475   4.726  15.649  0.00  0.00    +0.000 A 
ATOM      9  C   UNL     1       7.168   4.796  16.949  0.00  0.00    +0.000 A 
ATOM     10  N   UNL     1       5.890   4.536  17.355  0.00  0.00    +0.000 N 
ATOM     11  C   UNL     1       5.323   4.576  18.665  0.00  0.00    +0.000 C 
ATOM     12  O   UNL     1       5.497   3.336  19.351  0.00  0.00    +0.000 OA
ATOM     13  C   UNL     1       4.199   2.844  19.762  0.00  0.00    +0.000 C 
ATOM     14  H   UNL     1       5.673   3.963  13.058  0.00  0.00    +0.000 HD
ENDROOT
BRANCH   1  15
ATOM     15  O   UNL     1       2.839   4.625  20.563  0.00  0.00    +0.000 OA
BRANCH  15  16
ATOM     16  C   UNL     1       1.660   5.301  20.495  0.00  0.00    +0.000 C 
ATOM     17  O   UNL     1       0.559   4.773  20.578  0.00  0.00    +0.000 OA
BRANCH  16  18
ATOM     18  C   UNL     1       1.931   6.776  20.447  0.00  0.00    +0.000 C 
BRANCH  18  19
ATOM     19  C   UNL     1       0.869   7.536  21.231  0.00  0.00    +0.000 C 
BRANCH  19  20
ATOM     20  C   UNL     1       0.848   9.016  20.874  0.00  0.00    +0.000 C 
BRANCH  20  21
ATOM     21  C   UNL     1       1.479   9.229  19.500  0.00  0.00    +0.000 C 
BRANCH  21  22
ATOM     22  C   UNL     1       0.850  10.408  18.773  0.00  0.00    +0.000 C 
BRANCH  22  23
ATOM     23  C   UNL     1      -0.408   9.971  18.024  0.00  0.00    +0.000 C 
BRANCH  23  24
ATOM     24  C   UNL     1      -1.622  10.768  18.491  0.00  0.00    +0.000 C 
BRANCH  24  25
ATOM     25  C   UNL     1      -2.355  11.401  17.310  0.00  0.00    +0.000 C 
BRANCH  25  26
ATOM     26  C   UNL     1      -3.461  10.477  16.803  0.00  0.00    +0.000 C 
BRANCH  26  28
ATOM     27  C   UNL     1      -3.297  10.253  14.305  0.00  0.00    +0.000 C 
ATOM     28  C   UNL     1      -2.972   9.611  15.644  0.00  0.00    +0.000 C 
ENDBRANCH  26  28
ENDBRANCH  25  26
ENDBRANCH  24  25
ENDBRANCH  23  24
ENDBRANCH  22  23
ENDBRANCH  21  22
ENDBRANCH  20  21
ENDBRANCH  19  20
ENDBRANCH  18  19
ENDBRANCH  16  18
ENDBRANCH  15  16
ENDBRANCH   1  15
BRANCH  13  29
ATOM     29  C   UNL     1       3.937   1.489  19.100  0.00  0.00    +0.000 C 
BRANCH  29  30
ATOM     30  O   UNL     1       2.798   1.573  18.249  0.00  0.00    +0.000 OA
ATOM     31  H   UNL     1       2.020   1.437  18.820  0.00  0.00    +0.000 HD
ENDBRANCH  29  30
ENDBRANCH  13  29
TORSDOF 14
ENDMDL
MODEL 7
REMARK VINA RESULT:      -6.5      6.958     10.245
REMARK  Name = 
REMARK  15 active torsions:
REMARK  status: ('A' for Active; 'I' for Inactive)
REMARK    1  A    between atoms: C_1  and  C_2
REMARK    2  A    between atoms: C_2  and  C_3
REMARK    3  A    between atoms: C_3  and  C_4
REMARK    4  A    between atoms: C_4  and  C_5
REMARK    5  A    between atoms: C_5  and  C_6
REMARK    6  A    between atoms: C_6  and  C_7
REMARK    7  A    between atoms: C_7  and  C_8
REMARK    8  A    between atoms: C_8  and  C_9
REMARK    9  A    between atoms: C_9  and  C_10
REMARK   10  A    between atoms: C_10  and  C_11
REMARK   11  A    between atoms: C_11  and  C_12
REMARK   12  A    between atoms: C_12  and  O_14
REMARK   13  A    between atoms: O_14  and  C_15
REMARK   14  A    between atoms: C_27  and  C_28
REMARK   15  A    between atoms: C_28  and  O_29
REMARK                            x       y       z     vdW  Elec       q    Type
REMARK                         _______ _______ _______ _____ _____    ______ ____
ROOT
ATOM      1  C   UNL     1       0.499  10.503  19.111  0.00  0.00    +0.000 C 
ATOM      2  C   UNL     1      -0.668  10.592  20.056  0.00  0.00    +0.000 C 
ATOM      3  O   UNL     1      -1.593  11.631  19.649  0.00  0.00    +0.000 OA
ATOM      4  C   UNL     1      -1.970  12.252  20.804  0.00  0.00    +0.000 A 
ATOM      5  N   UNL     1      -3.010  13.001  20.873  0.00  0.00    +0.000 NA
ATOM      6  C   UNL     1      -3.294  13.498  22.121  0.00  0.00    +0.000 A 
ATOM      7  N   UNL     1      -4.343  14.241  22.219  0.00  0.00    +0.000 NA
ATOM      8  C   UNL     1      -2.440  13.170  23.291  0.00  0.00    +0.000 A 
ATOM      9  C   UNL     1      -1.365  12.404  23.076  0.00  0.00    +0.000 A 
ATOM     10  N   UNL     1      -1.109  11.941  21.816  0.00  0.00    +0.000 N 
ATOM     11  C   UNL     1      -0.056  11.095  21.353  0.00  0.00    +0.000 C 
ATOM     12  O   UNL     1       1.111  11.845  21.014  0.00  0.00    +0.000 OA
ATOM     13  C   UNL     1       1.467  11.560  19.640  0.00  0.00    +0.000 C 
ATOM     14  H   UNL     1      -4.723  14.279  21.267  0.00  0.00    +0.000 HD
ENDROOT
BRANCH   1  15
ATOM     15  O   UNL     1       1.194   9.244  19.165  0.00  0.00    +0.000 OA
BRANCH  15  16
ATOM     16  C   UNL     1       1.878   8.947  18.026  0.00  0.00    +0.000 C 
ATOM     17  O   UNL     1       2.285   9.782  17.231  0.00  0.00    +0.000 OA
BRANCH  16  18
ATOM     18  C   UNL     1       2.166   7.474  17.986  0.00  0.00    +0.000 C 
BRANCH  18  19
ATOM     19  C   UNL     1       2.758   7.014  19.311  0.00  0.00    +0.000 C 
BRANCH  19  20
ATOM     20  C   UNL     1       3.866   5.988  19.114  0.00  0.00    +0.000 C 
BRANCH  20  21
ATOM     21  C   UNL     1       3.751   5.358  17.728  0.00  0.00    +0.000 C 
BRANCH  21  22
ATOM     22  C   UNL     1       4.320   3.947  17.707  0.00  0.00    +0.000 C 
BRANCH  22  23
ATOM     23  C   UNL     1       3.197   2.913  17.642  0.00  0.00    +0.000 C 
BRANCH  23  24
ATOM     24  C   UNL     1       1.834   3.594  17.612  0.00  0.00    +0.000 C 
BRANCH  24  25
ATOM     25  C   UNL     1       0.936   3.086  18.738  0.00  0.00    +0.000 C 
BRANCH  25  26
ATOM     26  C   UNL     1       1.718   2.177  19.684  0.00  0.00    +0.000 C 
BRANCH  26  28
ATOM     27  C   UNL     1       2.104   3.938  21.435  0.00  0.00    +0.000 C 
ATOM     28  C   UNL     1       1.499   2.574  21.142  0.00  0.00    +0.000 C 
ENDBRANCH  26  28
ENDBRANCH  25  26
ENDBRANCH  24  25
ENDBRANCH  23  24
ENDBRANCH  22  23
ENDBRANCH  21  22
ENDBRANCH  20  21
ENDBRANCH  19  20
ENDBRANCH  18  19
ENDBRANCH  16  18
ENDBRANCH  15  16
ENDBRANCH   1  15
BRANCH  13  29
ATOM     29  C   UNL     1       1.410  12.852  18.821  0.00  0.00    +0.000 C 
BRANCH  29  30
ATOM     30  O   UNL     1       2.125  12.687  17.600  0.00  0.00    +0.000 OA
ATOM     31  H   UNL     1       2.155  13.567  17.181  0.00  0.00    +0.000 HD
ENDBRANCH  29  30
ENDBRANCH  13  29
TORSDOF 14
ENDMDL
MODEL 8
REMARK VINA RESULT:      -6.4      1.813      2.383
REMARK  Name = 
REMARK  15 active torsions:
REMARK  status: ('A' for Active; 'I' for Inactive)
REMARK    1  A    between atoms: C_1  and  C_2
REMARK    2  A    between atoms: C_2  and  C_3
REMARK    3  A    between atoms: C_3  and  C_4
REMARK    4  A    between atoms: C_4  and  C_5
REMARK    5  A    between atoms: C_5  and  C_6
REMARK    6  A    between atoms: C_6  and  C_7
REMARK    7  A    between atoms: C_7  and  C_8
REMARK    8  A    between atoms: C_8  and  C_9
REMARK    9  A    between atoms: C_9  and  C_10
REMARK   10  A    between atoms: C_10  and  C_11
REMARK   11  A    between atoms: C_11  and  C_12
REMARK   12  A    between atoms: C_12  and  O_14
REMARK   13  A    between atoms: O_14  and  C_15
REMARK   14  A    between atoms: C_27  and  C_28
REMARK   15  A    between atoms: C_28  and  O_29
REMARK                            x       y       z     vdW  Elec       q    Type
REMARK                         _______ _______ _______ _____ _____    ______ ____
ROOT
ATOM      1  C   UNL     1       6.757   6.262  17.354  0.00  0.00    +0.000 C 
ATOM      2  C   UNL     1       5.566   6.039  18.245  0.00  0.00    +0.000 C 
ATOM      3  O   UNL     1       5.521   4.673  18.727  0.00  0.00    +0.000 OA
ATOM      4  C   UNL     1       4.207   4.309  18.661  0.00  0.00    +0.000 A 
ATOM      5  N   UNL     1       3.743   3.295  19.295  0.00  0.00    +0.000 NA
ATOM      6  C   UNL     1       2.389   3.100  19.182  0.00  0.00    +0.000 A 
ATOM      7  N   UNL     1       1.896   2.097  19.823  0.00  0.00    +0.000 NA
ATOM      8  C   UNL     1       1.546   4.019  18.374  0.00  0.00    +0.000 A 
ATOM      9  C   UNL     1       2.161   5.020  17.735  0.00  0.00    +0.000 A 
ATOM     10  N   UNL     1       3.514   5.171  17.862  0.00  0.00    +0.000 N 
ATOM     11  C   UNL     1       4.376   6.165  17.309  0.00  0.00    +0.000 C 
ATOM     12  O   UNL     1       4.820   5.808  16.000  0.00  0.00    +0.000 OA
ATOM     13  C   UNL     1       6.267   5.803  15.982  0.00  0.00    +0.000 C 
ATOM     14  H   UNL     1       2.702   1.663  20.286  0.00  0.00    +0.000 HD
ENDROOT
BRANCH   1  15
ATOM     15  O   UNL     1       7.128   7.645  17.217  0.00  0.00    +0.000 OA
BRANCH  15  16
ATOM     16  C   UNL     1       8.028   8.066  18.148  0.00  0.00    +0.000 C 
ATOM     17  O   UNL     1       8.609   7.324  18.927  0.00  0.00    +0.000 OA
BRANCH  16  18
ATOM     18  C   UNL     1       8.285   9.534  17.967  0.00  0.00    +0.000 C 
BRANCH  18  19
ATOM     19  C   UNL     1       9.316  10.019  18.978  0.00  0.00    +0.000 C 
BRANCH  19  20
ATOM     20  C   UNL     1       9.416  11.538  19.005  0.00  0.00    +0.000 C 
BRANCH  20  21
ATOM     21  C   UNL     1       8.685  12.128  17.800  0.00  0.00    +0.000 C 
BRANCH  21  22
ATOM     22  C   UNL     1       8.542  13.639  17.920  0.00  0.00    +0.000 C 
BRANCH  22  23
ATOM     23  C   UNL     1       9.113  14.132  19.248  0.00  0.00    +0.000 C 
BRANCH  23  24
ATOM     24  C   UNL     1       8.008  14.678  20.145  0.00  0.00    +0.000 C 
BRANCH  24  25
ATOM     25  C   UNL     1       6.808  15.144  19.323  0.00  0.00    +0.000 C 
BRANCH  25  26
ATOM     26  C   UNL     1       5.563  15.257  20.201  0.00  0.00    +0.000 C 
BRANCH  26  28
ATOM     27  C   UNL     1       4.526  14.521  18.034  0.00  0.00    +0.000 C 
ATOM     28  C   UNL     1       4.288  15.220  19.363  0.00  0.00    +0.000 C 
ENDBRANCH  26  28
ENDBRANCH  25  26
ENDBRANCH  24  25
ENDBRANCH  23  24
ENDBRANCH  22  23
ENDBRANCH  21  22
ENDBRANCH  20  21
ENDBRANCH  19  20
ENDBRANCH  18  19
ENDBRANCH  16  18
ENDBRANCH  15  16
ENDBRANCH   1  15
BRANCH  13  29
ATOM     29  C   UNL     1       6.767   4.399  15.633  0.00  0.00    +0.000 C 
BRANCH  29  30
ATOM     30  O   UNL     1       7.764   3.991  16.565  0.00  0.00    +0.000 OA
ATOM     31  H   UNL     1       7.961   3.058  16.361  0.00  0.00    +0.000 HD
ENDBRANCH  29  30
ENDBRANCH  13  29
TORSDOF 14
ENDMDL
MODEL 9
REMARK VINA RESULT:      -6.4      6.677      9.780
REMARK  Name = 
REMARK  15 active torsions:
REMARK  status: ('A' for Active; 'I' for Inactive)
REMARK    1  A    between atoms: C_1  and  C_2
REMARK    2  A    between atoms: C_2  and  C_3
REMARK    3  A    between atoms: C_3  and  C_4
REMARK    4  A    between atoms: C_4  and  C_5
REMARK    5  A    between atoms: C_5  and  C_6
REMARK    6  A    between atoms: C_6  and  C_7
REMARK    7  A    between atoms: C_7  and  C_8
REMARK    8  A    between atoms: C_8  and  C_9
REMARK    9  A    between atoms: C_9  and  C_10
REMARK   10  A    between atoms: C_10  and  C_11
REMARK   11  A    between atoms: C_11  and  C_12
REMARK   12  A    between atoms: C_12  and  O_14
REMARK   13  A    between atoms: O_14  and  C_15
REMARK   14  A    between atoms: C_27  and  C_28
REMARK   15  A    between atoms: C_28  and  O_29
REMARK                            x       y       z     vdW  Elec       q    Type
REMARK                         _______ _______ _______ _____ _____    ______ ____
ROOT
ATOM      1  C   UNL     1       0.411  10.826  19.892  0.00  0.00    +0.000 C 
ATOM      2  C   UNL     1      -0.870  10.275  19.326  0.00  0.00    +0.000 C 
ATOM      3  O   UNL     1      -0.750  10.028  17.904  0.00  0.00    +0.000 OA
ATOM      4  C   UNL     1      -1.931  10.446  17.362  0.00  0.00    +0.000 A 
ATOM      5  N   UNL     1      -2.312  10.094  16.189  0.00  0.00    +0.000 NA
ATOM      6  C   UNL     1      -3.554  10.542  15.815  0.00  0.00    +0.000 A 
ATOM      7  N   UNL     1      -3.966  10.188  14.646  0.00  0.00    +0.000 NA
ATOM      8  C   UNL     1      -4.378  11.373  16.730  0.00  0.00    +0.000 A 
ATOM      9  C   UNL     1      -3.849  11.697  17.915  0.00  0.00    +0.000 A 
ATOM     10  N   UNL     1      -2.603  11.243  18.244  0.00  0.00    +0.000 N 
ATOM     11  C   UNL     1      -1.852  11.429  19.444  0.00  0.00    +0.000 C 
ATOM     12  O   UNL     1      -1.097  12.640  19.410  0.00  0.00    +0.000 OA
ATOM     13  C   UNL     1       0.298  12.327  19.629  0.00  0.00    +0.000 C 
ATOM     14  H   UNL     1      -3.200   9.624  14.261  0.00  0.00    +0.000 HD
ENDROOT
BRANCH   1  15
ATOM     15  O   UNL     1       0.532  10.665  21.316  0.00  0.00    +0.000 OA
BRANCH  15  16
ATOM     16  C   UNL     1       0.402   9.376  21.735  0.00  0.00    +0.000 C 
ATOM     17  O   UNL     1      -0.569   8.945  22.340  0.00  0.00    +0.000 OA
BRANCH  16  18
ATOM     18  C   UNL     1       1.554   8.564  21.219  0.00  0.00    +0.000 C 
BRANCH  18  19
ATOM     19  C   UNL     1       1.112   7.133  20.946  0.00  0.00    +0.000 C 
BRANCH  19  20
ATOM     20  C   UNL     1       2.136   6.368  20.119  0.00  0.00    +0.000 C 
BRANCH  20  21
ATOM     21  C   UNL     1       2.203   4.916  20.586  0.00  0.00    +0.000 C 
BRANCH  21  22
ATOM     22  C   UNL     1       2.082   3.947  19.419  0.00  0.00    +0.000 C 
BRANCH  22  23
ATOM     23  C   UNL     1       2.401   4.649  18.100  0.00  0.00    +0.000 C 
BRANCH  23  24
ATOM     24  C   UNL     1       3.186   3.730  17.171  0.00  0.00    +0.000 C 
BRANCH  24  25
ATOM     25  C   UNL     1       4.560   4.313  16.847  0.00  0.00    +0.000 C 
BRANCH  25  26
ATOM     26  C   UNL     1       4.818   5.576  17.666  0.00  0.00    +0.000 C 
BRANCH  26  28
ATOM     27  C   UNL     1       7.183   4.739  17.809  0.00  0.00    +0.000 C 
ATOM     28  C   UNL     1       6.047   5.418  18.557  0.00  0.00    +0.000 C 
ENDBRANCH  26  28
ENDBRANCH  25  26
ENDBRANCH  24  25
ENDBRANCH  23  24
ENDBRANCH  22  23
ENDBRANCH  21  22
ENDBRANCH  20  21
ENDBRANCH  19  20
ENDBRANCH  18  19
ENDBRANCH  16  18
ENDBRANCH  15  16
ENDBRANCH   1  15
BRANCH  13  29
ATOM     29  C   UNL     1       1.115  12.759  18.409  0.00  0.00    +0.000 C 
BRANCH  29  30
ATOM     30  O   UNL     1       1.828  11.646  17.879  0.00  0.00    +0.000 OA
ATOM     31  H   UNL     1       2.228  11.191  18.643  0.00  0.00    +0.000 HD
ENDBRANCH  29  30
ENDBRANCH  13  29
TORSDOF 14
ENDMDL
