MODEL 1
REMARK VINA RESULT:      -8.3      0.000      0.000
REMARK  Name = 
REMARK  5 active torsions:
REMARK  status: ('A' for Active; 'I' for Inactive)
REMARK    1  A    between atoms: C_5  and  C_6
REMARK    2  A    between atoms: C_6  and  N_7
REMARK    3  A    between atoms: C_9  and  C_10
REMARK    4  A    between atoms: C_10  and  N_11
REMARK    5  A    between atoms: N_11  and  C_12
REMARK                            x       y       z     vdW  Elec       q    Type
REMARK                         _______ _______ _______ _____ _____    ______ ____
ROOT
ATOM      1  N   UNL     1       4.560   4.847  19.146  0.00  0.00    +0.000 N 
ATOM      2  C   UNL     1       4.187   6.162  19.288  0.00  0.00    +0.000 A 
ATOM      3  C   UNL     1       2.835   6.208  19.564  0.00  0.00    +0.000 A 
ATOM      4  C   UNL     1       2.371   4.855  19.589  0.00  0.00    +0.000 A 
ATOM      5  C   UNL     1       1.102   4.267  19.784  0.00  0.00    +0.000 A 
ATOM      6  C   UNL     1       0.962   2.878  19.720  0.00  0.00    +0.000 A 
ATOM      7  C   UNL     1       2.069   2.070  19.480  0.00  0.00    +0.000 A 
ATOM      8  C   UNL     1       3.339   2.626  19.289  0.00  0.00    +0.000 A 
ATOM      9  C   UNL     1       3.467   4.024  19.336  0.00  0.00    +0.000 A 
ENDROOT
BRANCH   1  10
ATOM     10  C   UNL     1       5.875   4.424  18.677  0.00  0.00    +0.000 C 
BRANCH  10  15
ATOM     11 CL   UNL     1       6.632   4.211  12.695  0.00  0.00    +0.000 Cl
ATOM     12  C   UNL     1       6.386   4.321  14.394  0.00  0.00    +0.000 A 
ATOM     13  C   UNL     1       7.365   4.895  15.200  0.00  0.00    +0.000 A 
ATOM     14  C   UNL     1       7.179   4.958  16.584  0.00  0.00    +0.000 A 
ATOM     15  C   UNL     1       6.013   4.443  17.173  0.00  0.00    +0.000 A 
ATOM     16  C   UNL     1       5.032   3.878  16.342  0.00  0.00    +0.000 A 
ATOM     17  C   UNL     1       5.217   3.819  14.958  0.00  0.00    +0.000 A 
ENDBRANCH  10  15
ENDBRANCH   1  10
BRANCH   3  18
ATOM     18  C   UNL     1       2.003   7.438  19.748  0.00  0.00    +0.000 C 
BRANCH  18  19
ATOM     19  N   UNL     1       1.542   7.669  21.115  0.00  0.00    +0.000 N 
ATOM     20  H   UNL     1       2.279   7.478  21.790  0.00  0.00    +0.000 HD
BRANCH  19  21
ATOM     21  C   UNL     1       0.854   8.859  21.381  0.00  0.00    +0.000 A 
ATOM     22  C   UNL     1       0.151   9.574  20.409  0.00  0.00    +0.000 A 
ATOM     23  C   UNL     1      -0.569  10.719  20.745  0.00  0.00    +0.000 A 
ATOM     24  C   UNL     1      -0.594  11.114  22.070  0.00  0.00    +0.000 A 
ATOM     25  N   UNL     1       0.024  10.438  23.058  0.00  0.00    +0.000 NA
ATOM     26  C   UNL     1       0.707   9.324  22.692  0.00  0.00    +0.000 A 
ENDBRANCH  19  21
ENDBRANCH  18  19
ENDBRANCH   3  18
TORSDOF 5
ENDMDL
MODEL 2
REMARK VINA RESULT:      -8.2      3.107      6.949
REMARK  Name = 
REMARK  5 active torsions:
REMARK  status: ('A' for Active; 'I' for Inactive)
REMARK    1  A    between atoms: C_5  and  C_6
REMARK    2  A    between atoms: C_6  and  N_7
REMARK    3  A    between atoms: C_9  and  C_10
REMARK    4  A    between atoms: C_10  and  N_11
REMARK    5  A    between atoms: N_11  and  C_12
REMARK                            x       y       z     vdW  Elec       q    Type
REMARK                         _______ _______ _______ _____ _____    ______ ____
ROOT
ATOM      1  N   UNL     1       2.837   5.844  19.045  0.00  0.00    +0.000 N 
ATOM      2  C   UNL     1       3.779   5.832  18.045  0.00  0.00    +0.000 A 
ATOM      3  C   UNL     1       3.739   4.603  17.418  0.00  0.00    +0.000 A 
ATOM      4  C   UNL     1       2.721   3.838  18.071  0.00  0.00    +0.000 A 
ATOM      5  C   UNL     1       2.240   2.521  17.906  0.00  0.00    +0.000 A 
ATOM      6  C   UNL     1       1.229   2.040  18.743  0.00  0.00    +0.000 A 
ATOM      7  C   UNL     1       0.683   2.857  19.727  0.00  0.00    +0.000 A 
ATOM      8  C   UNL     1       1.137   4.168  19.909  0.00  0.00    +0.000 A 
ATOM      9  C   UNL     1       2.167   4.637  19.076  0.00  0.00    +0.000 A 
ENDROOT
BRANCH   1  10
ATOM     10  C   UNL     1       2.717   6.912  20.032  0.00  0.00    +0.000 C 
BRANCH  10  15
ATOM     11 CL   UNL     1      -0.735  11.603  18.460  0.00  0.00    +0.000 Cl
ATOM     12  C   UNL     1       0.209  10.230  18.888  0.00  0.00    +0.000 A 
ATOM     13  C   UNL     1       0.156   9.731  20.187  0.00  0.00    +0.000 A 
ATOM     14  C   UNL     1       0.945   8.634  20.543  0.00  0.00    +0.000 A 
ATOM     15  C   UNL     1       1.795   8.028  19.604  0.00  0.00    +0.000 A 
ATOM     16  C   UNL     1       1.825   8.538  18.296  0.00  0.00    +0.000 A 
ATOM     17  C   UNL     1       1.033   9.634  17.939  0.00  0.00    +0.000 A 
ENDBRANCH  10  15
ENDBRANCH   1  10
BRANCH   3  18
ATOM     18  C   UNL     1       4.623   4.139  16.303  0.00  0.00    +0.000 C 
BRANCH  18  19
ATOM     19  N   UNL     1       6.030   3.981  16.661  0.00  0.00    +0.000 N 
ATOM     20  H   UNL     1       6.561   3.571  15.896  0.00  0.00    +0.000 HD
BRANCH  19  21
ATOM     21  C   UNL     1       6.680   5.068  17.256  0.00  0.00    +0.000 A 
ATOM     22  C   UNL     1       7.272   5.013  18.520  0.00  0.00    +0.000 A 
ATOM     23  C   UNL     1       7.961   6.109  19.034  0.00  0.00    +0.000 A 
ATOM     24  C   UNL     1       8.070   7.244  18.252  0.00  0.00    +0.000 A 
ATOM     25  N   UNL     1       7.561   7.340  17.008  0.00  0.00    +0.000 NA
ATOM     26  C   UNL     1       6.905   6.249  16.539  0.00  0.00    +0.000 A 
ENDBRANCH  19  21
ENDBRANCH  18  19
ENDBRANCH   3  18
TORSDOF 5
ENDMDL
MODEL 3
REMARK VINA RESULT:      -8.2      3.530      6.980
REMARK  Name = 
REMARK  5 active torsions:
REMARK  status: ('A' for Active; 'I' for Inactive)
REMARK    1  A    between atoms: C_5  and  C_6
REMARK    2  A    between atoms: C_6  and  N_7
REMARK    3  A    between atoms: C_9  and  C_10
REMARK    4  A    between atoms: C_10  and  N_11
REMARK    5  A    between atoms: N_11  and  C_12
REMARK                            x       y       z     vdW  Elec       q    Type
REMARK                         _______ _______ _______ _____ _____    ______ ____
ROOT
ATOM      1  N   UNL     1       3.741   6.520  17.575  0.00  0.00    +0.000 N 
ATOM      2  C   UNL     1       3.100   5.311  17.452  0.00  0.00    +0.000 A 
ATOM      3  C   UNL     1       4.050   4.311  17.411  0.00  0.00    +0.000 A 
ATOM      4  C   UNL     1       5.327   4.948  17.516  0.00  0.00    +0.000 A 
ATOM      5  C   UNL     1       6.655   4.470  17.502  0.00  0.00    +0.000 A 
ATOM      6  C   UNL     1       7.719   5.371  17.597  0.00  0.00    +0.000 A 
ATOM      7  C   UNL     1       7.477   6.735  17.720  0.00  0.00    +0.000 A 
ATOM      8  C   UNL     1       6.171   7.236  17.742  0.00  0.00    +0.000 A 
ATOM      9  C   UNL     1       5.108   6.325  17.627  0.00  0.00    +0.000 A 
ENDROOT
BRANCH   1  10
ATOM     10  C   UNL     1       3.067   7.809  17.470  0.00  0.00    +0.000 C 
BRANCH  10  15
ATOM     11 CL   UNL     1      -0.129   9.237  22.384  0.00  0.00    +0.000 Cl
ATOM     12  C   UNL     1       0.735   8.806  20.960  0.00  0.00    +0.000 A 
ATOM     13  C   UNL     1       1.497   7.641  20.940  0.00  0.00    +0.000 A 
ATOM     14  C   UNL     1       2.224   7.304  19.794  0.00  0.00    +0.000 A 
ATOM     15  C   UNL     1       2.195   8.132  18.660  0.00  0.00    +0.000 A 
ATOM     16  C   UNL     1       1.411   9.296  18.696  0.00  0.00    +0.000 A 
ATOM     17  C   UNL     1       0.682   9.630  19.842  0.00  0.00    +0.000 A 
ENDBRANCH  10  15
ENDBRANCH   1  10
BRANCH   3  18
ATOM     18  C   UNL     1       3.798   2.846  17.238  0.00  0.00    +0.000 C 
BRANCH  18  19
ATOM     19  N   UNL     1       3.890   2.058  18.465  0.00  0.00    +0.000 N 
ATOM     20  H   UNL     1       4.857   1.954  18.765  0.00  0.00    +0.000 HD
BRANCH  19  21
ATOM     21  C   UNL     1       3.024   2.380  19.516  0.00  0.00    +0.000 A 
ATOM     22  C   UNL     1       1.647   2.543  19.354  0.00  0.00    +0.000 A 
ATOM     23  C   UNL     1       0.824   2.801  20.449  0.00  0.00    +0.000 A 
ATOM     24  C   UNL     1       1.401   2.864  21.704  0.00  0.00    +0.000 A 
ATOM     25  N   UNL     1       2.715   2.669  21.927  0.00  0.00    +0.000 NA
ATOM     26  C   UNL     1       3.481   2.411  20.838  0.00  0.00    +0.000 A 
ENDBRANCH  19  21
ENDBRANCH  18  19
ENDBRANCH   3  18
TORSDOF 5
ENDMDL
MODEL 4
REMARK VINA RESULT:      -8.1      3.387      7.771
REMARK  Name = 
REMARK  5 active torsions:
REMARK  status: ('A' for Active; 'I' for Inactive)
REMARK    1  A    between atoms: C_5  and  C_6
REMARK    2  A    between atoms: C_6  and  N_7
REMARK    3  A    between atoms: C_9  and  C_10
REMARK    4  A    between atoms: C_10  and  N_11
REMARK    5  A    between atoms: N_11  and  C_12
REMARK                            x       y       z     vdW  Elec       q    Type
REMARK                         _______ _______ _______ _____ _____    ______ ____
ROOT
ATOM      1  N   UNL     1       3.083   6.851  17.863  0.00  0.00    +0.000 N 
ATOM      2  C   UNL     1       4.439   6.929  18.071  0.00  0.00    +0.000 A 
ATOM      3  C   UNL     1       4.913   5.666  18.364  0.00  0.00    +0.000 A 
ATOM      4  C   UNL     1       3.787   4.783  18.329  0.00  0.00    +0.000 A 
ATOM      5  C   UNL     1       3.629   3.401  18.570  0.00  0.00    +0.000 A 
ATOM      6  C   UNL     1       2.360   2.821  18.484  0.00  0.00    +0.000 A 
ATOM      7  C   UNL     1       1.255   3.594  18.146  0.00  0.00    +0.000 A 
ATOM      8  C   UNL     1       1.384   4.965  17.897  0.00  0.00    +0.000 A 
ATOM      9  C   UNL     1       2.659   5.544  18.005  0.00  0.00    +0.000 A 
ENDROOT
BRANCH   1  10
ATOM     10  C   UNL     1       2.219   8.016  17.706  0.00  0.00    +0.000 C 
BRANCH  10  15
ATOM     11 CL   UNL     1      -0.251   9.995  22.842  0.00  0.00    +0.000 Cl
ATOM     12  C   UNL     1       0.502   9.456  21.393  0.00  0.00    +0.000 A 
ATOM     13  C   UNL     1       0.326  10.175  20.213  0.00  0.00    +0.000 A 
ATOM     14  C   UNL     1       0.913   9.723  19.028  0.00  0.00    +0.000 A 
ATOM     15  C   UNL     1       1.679   8.546  19.013  0.00  0.00    +0.000 A 
ATOM     16  C   UNL     1       1.856   7.842  20.215  0.00  0.00    +0.000 A 
ATOM     17  C   UNL     1       1.271   8.297  21.401  0.00  0.00    +0.000 A 
ENDBRANCH  10  15
ENDBRANCH   1  10
BRANCH   3  18
ATOM     18  C   UNL     1       6.322   5.297  18.704  0.00  0.00    +0.000 C 
BRANCH  18  19
ATOM     19  N   UNL     1       6.873   4.191  17.924  0.00  0.00    +0.000 N 
ATOM     20  H   UNL     1       6.525   3.296  18.257  0.00  0.00    +0.000 HD
BRANCH  19  21
ATOM     21  C   UNL     1       6.853   4.301  16.529  0.00  0.00    +0.000 A 
ATOM     22  C   UNL     1       6.025   3.530  15.710  0.00  0.00    +0.000 A 
ATOM     23  C   UNL     1       6.001   3.727  14.331  0.00  0.00    +0.000 A 
ATOM     24  C   UNL     1       6.796   4.723  13.795  0.00  0.00    +0.000 A 
ATOM     25  N   UNL     1       7.579   5.528  14.539  0.00  0.00    +0.000 NA
ATOM     26  C   UNL     1       7.568   5.312  15.878  0.00  0.00    +0.000 A 
ENDBRANCH  19  21
ENDBRANCH  18  19
ENDBRANCH   3  18
TORSDOF 5
ENDMDL
MODEL 5
REMARK VINA RESULT:      -7.9      3.545      7.008
REMARK  Name = 
REMARK  5 active torsions:
REMARK  status: ('A' for Active; 'I' for Inactive)
REMARK    1  A    between atoms: C_5  and  C_6
REMARK    2  A    between atoms: C_6  and  N_7
REMARK    3  A    between atoms: C_9  and  C_10
REMARK    4  A    between atoms: C_10  and  N_11
REMARK    5  A    between atoms: N_11  and  C_12
REMARK                            x       y       z     vdW  Elec       q    Type
REMARK                         _______ _______ _______ _____ _____    ______ ____
ROOT
ATOM      1  N   UNL     1       3.718   6.399  17.536  0.00  0.00    +0.000 N 
ATOM      2  C   UNL     1       3.115   5.175  17.375  0.00  0.00    +0.000 A 
ATOM      3  C   UNL     1       4.095   4.203  17.346  0.00  0.00    +0.000 A 
ATOM      4  C   UNL     1       5.349   4.874  17.498  0.00  0.00    +0.000 A 
ATOM      5  C   UNL     1       6.690   4.434  17.516  0.00  0.00    +0.000 A 
ATOM      6  C   UNL     1       7.725   5.363  17.656  0.00  0.00    +0.000 A 
ATOM      7  C   UNL     1       7.440   6.717  17.794  0.00  0.00    +0.000 A 
ATOM      8  C   UNL     1       6.120   7.180  17.786  0.00  0.00    +0.000 A 
ATOM      9  C   UNL     1       5.087   6.242  17.625  0.00  0.00    +0.000 A 
ENDROOT
BRANCH   1  10
ATOM     10  C   UNL     1       3.010   7.670  17.433  0.00  0.00    +0.000 C 
BRANCH  10  15
ATOM     11 CL   UNL     1      -0.240   9.080  22.317  0.00  0.00    +0.000 Cl
ATOM     12  C   UNL     1       0.733   8.701  20.950  0.00  0.00    +0.000 A 
ATOM     13  C   UNL     1       0.754   9.562  19.856  0.00  0.00    +0.000 A 
ATOM     14  C   UNL     1       1.522   9.241  18.732  0.00  0.00    +0.000 A 
ATOM     15  C   UNL     1       2.271   8.053  18.693  0.00  0.00    +0.000 A 
ATOM     16  C   UNL     1       2.245   7.204  19.811  0.00  0.00    +0.000 A 
ATOM     17  C   UNL     1       1.481   7.528  20.936  0.00  0.00    +0.000 A 
ENDBRANCH  10  15
ENDBRANCH   1  10
BRANCH   3  18
ATOM     18  C   UNL     1       3.890   2.734  17.141  0.00  0.00    +0.000 C 
BRANCH  18  19
ATOM     19  N   UNL     1       3.934   1.933  18.362  0.00  0.00    +0.000 N 
ATOM     20  H   UNL     1       4.888   1.822  18.697  0.00  0.00    +0.000 HD
BRANCH  19  21
ATOM     21  C   UNL     1       3.030   2.247  19.383  0.00  0.00    +0.000 A 
ATOM     22  C   UNL     1       3.424   2.664  20.657  0.00  0.00    +0.000 A 
ATOM     23  C   UNL     1       2.478   3.025  21.614  0.00  0.00    +0.000 A 
ATOM     24  C   UNL     1       1.141   2.987  21.265  0.00  0.00    +0.000 A 
ATOM     25  N   UNL     1       0.704   2.639  20.040  0.00  0.00    +0.000 NA
ATOM     26  C   UNL     1       1.655   2.303  19.132  0.00  0.00    +0.000 A 
ENDBRANCH  19  21
ENDBRANCH  18  19
ENDBRANCH   3  18
TORSDOF 5
ENDMDL
MODEL 6
REMARK VINA RESULT:      -7.8      3.147      7.937
REMARK  Name = 
REMARK  5 active torsions:
REMARK  status: ('A' for Active; 'I' for Inactive)
REMARK    1  A    between atoms: C_5  and  C_6
REMARK    2  A    between atoms: C_6  and  N_7
REMARK    3  A    between atoms: C_9  and  C_10
REMARK    4  A    between atoms: C_10  and  N_11
REMARK    5  A    between atoms: N_11  and  C_12
REMARK                            x       y       z     vdW  Elec       q    Type
REMARK                         _______ _______ _______ _____ _____    ______ ____
ROOT
ATOM      1  N   UNL     1       2.996   5.729  19.102  0.00  0.00    +0.000 N 
ATOM      2  C   UNL     1       4.005   5.675  18.171  0.00  0.00    +0.000 A 
ATOM      3  C   UNL     1       3.949   4.452  17.532  0.00  0.00    +0.000 A 
ATOM      4  C   UNL     1       2.851   3.736  18.105  0.00  0.00    +0.000 A 
ATOM      5  C   UNL     1       2.319   2.445  17.895  0.00  0.00    +0.000 A 
ATOM      6  C   UNL     1       1.229   2.011  18.655  0.00  0.00    +0.000 A 
ATOM      7  C   UNL     1       0.655   2.849  19.604  0.00  0.00    +0.000 A 
ATOM      8  C   UNL     1       1.159   4.135  19.829  0.00  0.00    +0.000 A 
ATOM      9  C   UNL     1       2.267   4.556  19.075  0.00  0.00    +0.000 A 
ENDROOT
BRANCH   1  10
ATOM     10  C   UNL     1       2.859   6.796  20.087  0.00  0.00    +0.000 C 
BRANCH  10  15
ATOM     11 CL   UNL     1      -0.562  11.485  18.439  0.00  0.00    +0.000 Cl
ATOM     12  C   UNL     1       0.372  10.112  18.891  0.00  0.00    +0.000 A 
ATOM     13  C   UNL     1       0.351   9.665  20.209  0.00  0.00    +0.000 A 
ATOM     14  C   UNL     1       1.132   8.568  20.584  0.00  0.00    +0.000 A 
ATOM     15  C   UNL     1       1.943   7.912  19.643  0.00  0.00    +0.000 A 
ATOM     16  C   UNL     1       1.940   8.371  18.316  0.00  0.00    +0.000 A 
ATOM     17  C   UNL     1       1.156   9.466  17.941  0.00  0.00    +0.000 A 
ENDBRANCH  10  15
ENDBRANCH   1  10
BRANCH   3  18
ATOM     18  C   UNL     1       4.886   3.951  16.478  0.00  0.00    +0.000 C 
BRANCH  18  19
ATOM     19  N   UNL     1       5.415   4.980  15.587  0.00  0.00    +0.000 N 
ATOM     20  H   UNL     1       6.004   5.639  16.092  0.00  0.00    +0.000 HD
BRANCH  19  21
ATOM     21  C   UNL     1       5.975   4.568  14.372  0.00  0.00    +0.000 A 
ATOM     22  C   UNL     1       5.332   3.704  13.483  0.00  0.00    +0.000 A 
ATOM     23  C   UNL     1       5.911   3.379  12.258  0.00  0.00    +0.000 A 
ATOM     24  C   UNL     1       7.125   3.954  11.931  0.00  0.00    +0.000 A 
ATOM     25  N   UNL     1       7.769   4.830  12.726  0.00  0.00    +0.000 NA
ATOM     26  C   UNL     1       7.170   5.129  13.906  0.00  0.00    +0.000 A 
ENDBRANCH  19  21
ENDBRANCH  18  19
ENDBRANCH   3  18
TORSDOF 5
ENDMDL
MODEL 7
REMARK VINA RESULT:      -7.8      3.106      6.942
REMARK  Name = 
REMARK  5 active torsions:
REMARK  status: ('A' for Active; 'I' for Inactive)
REMARK    1  A    between atoms: C_5  and  C_6
REMARK    2  A    between atoms: C_6  and  N_7
REMARK    3  A    between atoms: C_9  and  C_10
REMARK    4  A    between atoms: C_10  and  N_11
REMARK    5  A    between atoms: N_11  and  C_12
REMARK                            x       y       z     vdW  Elec       q    Type
REMARK                         _______ _______ _______ _____ _____    ______ ____
ROOT
ATOM      1  N   UNL     1       2.650   6.005  19.146  0.00  0.00    +0.000 N 
ATOM      2  C   UNL     1       3.555   6.070  18.114  0.00  0.00    +0.000 A 
ATOM      3  C   UNL     1       3.552   4.859  17.450  0.00  0.00    +0.000 A 
ATOM      4  C   UNL     1       2.599   4.025  18.114  0.00  0.00    +0.000 A 
ATOM      5  C   UNL     1       2.178   2.690  17.926  0.00  0.00    +0.000 A 
ATOM      6  C   UNL     1       1.223   2.135  18.782  0.00  0.00    +0.000 A 
ATOM      7  C   UNL     1       0.673   2.894  19.809  0.00  0.00    +0.000 A 
ATOM      8  C   UNL     1       1.068   4.220  20.016  0.00  0.00    +0.000 A 
ATOM      9  C   UNL     1       2.042   4.764  19.162  0.00  0.00    +0.000 A 
ENDROOT
BRANCH   1  10
ATOM     10  C   UNL     1       2.513   7.035  20.169  0.00  0.00    +0.000 C 
BRANCH  10  15
ATOM     11 CL   UNL     1      -1.073  11.505  18.282  0.00  0.00    +0.000 Cl
ATOM     12  C   UNL     1      -0.013  10.270  18.839  0.00  0.00    +0.000 A 
ATOM     13  C   UNL     1       0.877   9.670  17.952  0.00  0.00    +0.000 A 
ATOM     14  C   UNL     1       1.718   8.646  18.397  0.00  0.00    +0.000 A 
ATOM     15  C   UNL     1       1.673   8.212  19.732  0.00  0.00    +0.000 A 
ATOM     16  C   UNL     1       0.778   8.838  20.614  0.00  0.00    +0.000 A 
ATOM     17  C   UNL     1      -0.061   9.865  20.169  0.00  0.00    +0.000 A 
ENDBRANCH  10  15
ENDBRANCH   1  10
BRANCH   3  18
ATOM     18  C   UNL     1       4.417   4.474  16.292  0.00  0.00    +0.000 C 
BRANCH  18  19
ATOM     19  N   UNL     1       5.474   5.430  15.970  0.00  0.00    +0.000 N 
ATOM     20  H   UNL     1       5.091   6.280  15.561  0.00  0.00    +0.000 HD
BRANCH  19  21
ATOM     21  C   UNL     1       6.446   5.683  16.944  0.00  0.00    +0.000 A 
ATOM     22  C   UNL     1       6.911   6.964  17.252  0.00  0.00    +0.000 A 
ATOM     23  C   UNL     1       7.834   7.161  18.277  0.00  0.00    +0.000 A 
ATOM     24  C   UNL     1       8.259   6.062  19.000  0.00  0.00    +0.000 A 
ATOM     25  N   UNL     1       7.812   4.811  18.780  0.00  0.00    +0.000 NA
ATOM     26  C   UNL     1       6.907   4.660  17.780  0.00  0.00    +0.000 A 
ENDBRANCH  19  21
ENDBRANCH  18  19
ENDBRANCH   3  18
TORSDOF 5
ENDMDL
MODEL 8
REMARK VINA RESULT:      -7.8      3.100      7.725
REMARK  Name = 
REMARK  5 active torsions:
REMARK  status: ('A' for Active; 'I' for Inactive)
REMARK    1  A    between atoms: C_5  and  C_6
REMARK    2  A    between atoms: C_6  and  N_7
REMARK    3  A    between atoms: C_9  and  C_10
REMARK    4  A    between atoms: C_10  and  N_11
REMARK    5  A    between atoms: N_11  and  C_12
REMARK                            x       y       z     vdW  Elec       q    Type
REMARK                         _______ _______ _______ _____ _____    ______ ____
ROOT
ATOM      1  N   UNL     1       2.726   5.900  19.122  0.00  0.00    +0.000 N 
ATOM      2  C   UNL     1       3.468   5.757  17.974  0.00  0.00    +0.000 A 
ATOM      3  C   UNL     1       3.284   4.478  17.487  0.00  0.00    +0.000 A 
ATOM      4  C   UNL     1       2.386   3.819  18.385  0.00  0.00    +0.000 A 
ATOM      5  C   UNL     1       1.852   2.513  18.440  0.00  0.00    +0.000 A 
ATOM      6  C   UNL     1       1.002   2.154  19.489  0.00  0.00    +0.000 A 
ATOM      7  C   UNL     1       0.665   3.079  20.471  0.00  0.00    +0.000 A 
ATOM      8  C   UNL     1       1.176   4.382  20.438  0.00  0.00    +0.000 A 
ATOM      9  C   UNL     1       2.045   4.729  19.391  0.00  0.00    +0.000 A 
ENDROOT
BRANCH   1  10
ATOM     10  C   UNL     1       2.815   7.058  20.004  0.00  0.00    +0.000 C 
BRANCH  10  15
ATOM     11 CL   UNL     1      -1.121  11.312  18.328  0.00  0.00    +0.000 Cl
ATOM     12  C   UNL     1       0.037  10.141  18.824  0.00  0.00    +0.000 A 
ATOM     13  C   UNL     1       0.929   9.612  17.895  0.00  0.00    +0.000 A 
ATOM     14  C   UNL     1       1.851   8.639  18.290  0.00  0.00    +0.000 A 
ATOM     15  C   UNL     1       1.885   8.184  19.618  0.00  0.00    +0.000 A 
ATOM     16  C   UNL     1       0.986   8.737  20.543  0.00  0.00    +0.000 A 
ATOM     17  C   UNL     1       0.067   9.714  20.148  0.00  0.00    +0.000 A 
ENDBRANCH  10  15
ENDBRANCH   1  10
BRANCH   3  18
ATOM     18  C   UNL     1       3.937   3.879  16.282  0.00  0.00    +0.000 C 
BRANCH  18  19
ATOM     19  N   UNL     1       5.388   3.744  16.373  0.00  0.00    +0.000 N 
ATOM     20  H   UNL     1       5.651   2.843  16.767  0.00  0.00    +0.000 HD
BRANCH  19  21
ATOM     21  C   UNL     1       6.149   4.091  15.250  0.00  0.00    +0.000 A 
ATOM     22  C   UNL     1       5.877   3.623  13.963  0.00  0.00    +0.000 A 
ATOM     23  C   UNL     1       6.631   4.054  12.872  0.00  0.00    +0.000 A 
ATOM     24  C   UNL     1       7.636   4.978  13.092  0.00  0.00    +0.000 A 
ATOM     25  N   UNL     1       7.913   5.499  14.302  0.00  0.00    +0.000 NA
ATOM     26  C   UNL     1       7.152   5.063  15.337  0.00  0.00    +0.000 A 
ENDBRANCH  19  21
ENDBRANCH  18  19
ENDBRANCH   3  18
TORSDOF 5
ENDMDL
MODEL 9
REMARK VINA RESULT:      -7.8      3.478      7.037
REMARK  Name = 
REMARK  5 active torsions:
REMARK  status: ('A' for Active; 'I' for Inactive)
REMARK    1  A    between atoms: C_5  and  C_6
REMARK    2  A    between atoms: C_6  and  N_7
REMARK    3  A    between atoms: C_9  and  C_10
REMARK    4  A    between atoms: C_10  and  N_11
REMARK    5  A    between atoms: N_11  and  C_12
REMARK                            x       y       z     vdW  Elec       q    Type
REMARK                         _______ _______ _______ _____ _____    ______ ____
ROOT
ATOM      1  N   UNL     1       3.560   6.685  17.630  0.00  0.00    +0.000 N 
ATOM      2  C   UNL     1       2.739   5.590  17.503  0.00  0.00    +0.000 A 
ATOM      3  C   UNL     1       3.519   4.484  17.235  0.00  0.00    +0.000 A 
ATOM      4  C   UNL     1       4.877   4.933  17.201  0.00  0.00    +0.000 A 
ATOM      5  C   UNL     1       6.107   4.288  16.947  0.00  0.00    +0.000 A 
ATOM      6  C   UNL     1       7.294   5.026  16.957  0.00  0.00    +0.000 A 
ATOM      7  C   UNL     1       7.272   6.389  17.230  0.00  0.00    +0.000 A 
ATOM      8  C   UNL     1       6.068   7.053  17.490  0.00  0.00    +0.000 A 
ATOM      9  C   UNL     1       4.878   6.307  17.460  0.00  0.00    +0.000 A 
ENDROOT
BRANCH   1  10
ATOM     10  C   UNL     1       3.073   8.055  17.738  0.00  0.00    +0.000 C 
BRANCH  10  15
ATOM     11 CL   UNL     1      -0.487   9.049  22.506  0.00  0.00    +0.000 Cl
ATOM     12  C   UNL     1       0.484   8.739  21.121  0.00  0.00    +0.000 A 
ATOM     13  C   UNL     1       1.330   7.633  21.102  0.00  0.00    +0.000 A 
ATOM     14  C   UNL     1       2.141   7.397  19.989  0.00  0.00    +0.000 A 
ATOM     15  C   UNL     1       2.115   8.266  18.887  0.00  0.00    +0.000 A 
ATOM     16  C   UNL     1       1.246   9.369  18.919  0.00  0.00    +0.000 A 
ATOM     17  C   UNL     1       0.432   9.603  20.032  0.00  0.00    +0.000 A 
ENDBRANCH  10  15
ENDBRANCH   1  10
BRANCH   3  18
ATOM     18  C   UNL     1       3.036   3.091  16.978  0.00  0.00    +0.000 C 
BRANCH  18  19
ATOM     19  N   UNL     1       3.301   2.140  18.055  0.00  0.00    +0.000 N 
ATOM     20  H   UNL     1       4.297   1.955  18.147  0.00  0.00    +0.000 HD
BRANCH  19  21
ATOM     21  C   UNL     1       2.670   2.354  19.287  0.00  0.00    +0.000 A 
ATOM     22  C   UNL     1       3.364   2.523  20.487  0.00  0.00    +0.000 A 
ATOM     23  C   UNL     1       2.684   2.797  21.672  0.00  0.00    +0.000 A 
ATOM     24  C   UNL     1       1.308   2.924  21.627  0.00  0.00    +0.000 A 
ATOM     25  N   UNL     1       0.590   2.818  20.492  0.00  0.00    +0.000 NA
ATOM     26  C   UNL     1       1.288   2.561  19.357  0.00  0.00    +0.000 A 
ENDBRANCH  19  21
ENDBRANCH  18  19
ENDBRANCH   3  18
TORSDOF 5
ENDMDL
