MODEL 1
REMARK VINA RESULT:      -7.0      0.000      0.000
REMARK  Name = 
REMARK  1 active torsions:
REMARK  status: ('A' for Active; 'I' for Inactive)
REMARK    1  A    between atoms: N_6  and  C_7
REMARK                            x       y       z     vdW  Elec       q    Type
REMARK                         _______ _______ _______ _____ _____    ______ ____
ROOT
ATOM      1  O   UNL     1       7.307   5.971  15.747  0.00  0.00    +0.000 OA
ATOM      2  C   UNL     1       7.157   6.037  16.961  0.00  0.00    +0.000 C 
ATOM      3  N   UNL     1       6.392   5.168  17.742  0.00  0.00    +0.000 N 
ATOM      4  C   UNL     1       5.780   5.517  19.042  0.00  0.00    +0.000 C 
ATOM      5  C   UNL     1       4.304   5.911  18.852  0.00  0.00    +0.000 C 
ATOM      6  N   UNL     1       3.575   4.831  18.173  0.00  0.00    +0.000 N 
ATOM      7  C   UNL     1       4.154   4.401  16.883  0.00  0.00    +0.000 C 
ATOM      8  C   UNL     1       5.668   4.095  17.040  0.00  0.00    +0.000 C 
ATOM      9  N   UNL     1       7.696   7.144  17.635  0.00  0.00    +0.000 N 
ATOM     10  C   UNL     1       7.671   8.444  17.200  0.00  0.00    +0.000 A 
ATOM     11  N   UNL     1       8.261   9.229  18.070  0.00  0.00    +0.000 NA
ATOM     12  C   UNL     1       8.699   8.351  19.018  0.00  0.00    +0.000 A 
ATOM     13  N   UNL     1       8.363   7.073  18.822  0.00  0.00    +0.000 NA
ENDROOT
BRANCH   6  14
ATOM     14  C   UNL     1       2.557   4.129  18.792  0.00  0.00    +0.000 A 
ATOM     15  C   UNL     1       2.284   4.291  20.158  0.00  0.00    +0.000 A 
ATOM     16  C   UNL     1       1.286   3.553  20.811  0.00  0.00    +0.000 A 
ATOM     17  C   UNL     1       0.533   2.624  20.101  0.00  0.00    +0.000 A 
ATOM     18  C   UNL     1       0.764   2.455  18.745  0.00  0.00    +0.000 A 
ATOM     19  C   UNL     1       1.767   3.196  18.103  0.00  0.00    +0.000 A 
ENDBRANCH   6  14
TORSDOF 1
ENDMDL
MODEL 2
REMARK VINA RESULT:      -7.0      0.085      1.097
REMARK  Name = 
REMARK  1 active torsions:
REMARK  status: ('A' for Active; 'I' for Inactive)
REMARK    1  A    between atoms: N_6  and  C_7
REMARK                            x       y       z     vdW  Elec       q    Type
REMARK                         _______ _______ _______ _____ _____    ______ ____
ROOT
ATOM      1  O   UNL     1       7.336   6.003  15.752  0.00  0.00    +0.000 OA
ATOM      2  C   UNL     1       7.187   6.059  16.967  0.00  0.00    +0.000 C 
ATOM      3  N   UNL     1       6.437   5.172  17.743  0.00  0.00    +0.000 N 
ATOM      4  C   UNL     1       5.822   5.503  19.046  0.00  0.00    +0.000 C 
ATOM      5  C   UNL     1       4.341   5.876  18.863  0.00  0.00    +0.000 C 
ATOM      6  N   UNL     1       3.627   4.790  18.177  0.00  0.00    +0.000 N 
ATOM      7  C   UNL     1       4.210   4.379  16.883  0.00  0.00    +0.000 C 
ATOM      8  C   UNL     1       5.728   4.094  17.035  0.00  0.00    +0.000 C 
ATOM      9  N   UNL     1       7.711   7.169  17.647  0.00  0.00    +0.000 N 
ATOM     10  C   UNL     1       7.665   8.471  17.222  0.00  0.00    +0.000 A 
ATOM     11  N   UNL     1       8.245   9.259  18.096  0.00  0.00    +0.000 NA
ATOM     12  C   UNL     1       8.698   8.381  19.037  0.00  0.00    +0.000 A 
ATOM     13  N   UNL     1       8.382   7.100  18.832  0.00  0.00    +0.000 NA
ENDROOT
BRANCH   6  14
ATOM     14  C   UNL     1       2.620   4.068  18.793  0.00  0.00    +0.000 A 
ATOM     15  C   UNL     1       1.915   3.069  18.106  0.00  0.00    +0.000 A 
ATOM     16  C   UNL     1       0.861   2.360  18.700  0.00  0.00    +0.000 A 
ATOM     17  C   UNL     1       0.484   2.643  20.009  0.00  0.00    +0.000 A 
ATOM     18  C   UNL     1       1.174   3.611  20.721  0.00  0.00    +0.000 A 
ATOM     19  C   UNL     1       2.225   4.316  20.116  0.00  0.00    +0.000 A 
ENDBRANCH   6  14
TORSDOF 1
ENDMDL
MODEL 3
REMARK VINA RESULT:      -6.8      2.962      6.494
REMARK  Name = 
REMARK  1 active torsions:
REMARK  status: ('A' for Active; 'I' for Inactive)
REMARK    1  A    between atoms: N_6  and  C_7
REMARK                            x       y       z     vdW  Elec       q    Type
REMARK                         _______ _______ _______ _____ _____    ______ ____
ROOT
ATOM      1  O   UNL     1       3.399   6.455  19.712  0.00  0.00    +0.000 OA
ATOM      2  C   UNL     1       3.672   5.296  19.423  0.00  0.00    +0.000 C 
ATOM      3  N   UNL     1       4.671   4.885  18.538  0.00  0.00    +0.000 N 
ATOM      4  C   UNL     1       4.665   3.608  17.792  0.00  0.00    +0.000 C 
ATOM      5  C   UNL     1       4.127   3.822  16.365  0.00  0.00    +0.000 C 
ATOM      6  N   UNL     1       4.913   4.857  15.679  0.00  0.00    +0.000 N 
ATOM      7  C   UNL     1       4.996   6.151  16.388  0.00  0.00    +0.000 C 
ATOM      8  C   UNL     1       5.443   5.939  17.859  0.00  0.00    +0.000 C 
ATOM      9  N   UNL     1       2.846   4.278  19.923  0.00  0.00    +0.000 N 
ATOM     10  C   UNL     1       1.478   4.314  20.001  0.00  0.00    +0.000 A 
ATOM     11  N   UNL     1       1.019   3.198  20.516  0.00  0.00    +0.000 NA
ATOM     12  C   UNL     1       2.160   2.508  20.804  0.00  0.00    +0.000 A 
ATOM     13  N   UNL     1       3.301   3.103  20.443  0.00  0.00    +0.000 NA
ENDROOT
BRANCH   6  14
ATOM     14  C   UNL     1       5.687   4.576  14.568  0.00  0.00    +0.000 A 
ATOM     15  C   UNL     1       6.945   5.171  14.386  0.00  0.00    +0.000 A 
ATOM     16  C   UNL     1       7.722   4.934  13.243  0.00  0.00    +0.000 A 
ATOM     17  C   UNL     1       7.249   4.089  12.245  0.00  0.00    +0.000 A 
ATOM     18  C   UNL     1       6.019   3.470  12.404  0.00  0.00    +0.000 A 
ATOM     19  C   UNL     1       5.248   3.717  13.550  0.00  0.00    +0.000 A 
ENDBRANCH   6  14
TORSDOF 1
ENDMDL
MODEL 4
REMARK VINA RESULT:      -6.7      2.938      6.544
REMARK  Name = 
REMARK  1 active torsions:
REMARK  status: ('A' for Active; 'I' for Inactive)
REMARK    1  A    between atoms: N_6  and  C_7
REMARK                            x       y       z     vdW  Elec       q    Type
REMARK                         _______ _______ _______ _____ _____    ______ ____
ROOT
ATOM      1  O   UNL     1       3.230   6.514  19.754  0.00  0.00    +0.000 OA
ATOM      2  C   UNL     1       3.563   5.366  19.485  0.00  0.00    +0.000 C 
ATOM      3  N   UNL     1       4.586   4.993  18.611  0.00  0.00    +0.000 N 
ATOM      4  C   UNL     1       4.648   3.706  17.885  0.00  0.00    +0.000 C 
ATOM      5  C   UNL     1       4.108   3.869  16.453  0.00  0.00    +0.000 C 
ATOM      6  N   UNL     1       4.844   4.932  15.754  0.00  0.00    +0.000 N 
ATOM      7  C   UNL     1       4.858   6.239  16.442  0.00  0.00    +0.000 C 
ATOM      8  C   UNL     1       5.307   6.073  17.919  0.00  0.00    +0.000 C 
ATOM      9  N   UNL     1       2.786   4.316  19.997  0.00  0.00    +0.000 N 
ATOM     10  C   UNL     1       1.417   4.284  20.069  0.00  0.00    +0.000 A 
ATOM     11  N   UNL     1       1.013   3.154  20.599  0.00  0.00    +0.000 NA
ATOM     12  C   UNL     1       2.186   2.528  20.903  0.00  0.00    +0.000 A 
ATOM     13  N   UNL     1       3.298   3.173  20.538  0.00  0.00    +0.000 NA
ENDROOT
BRANCH   6  14
ATOM     14  C   UNL     1       5.636   4.674  14.650  0.00  0.00    +0.000 A 
ATOM     15  C   UNL     1       5.217   3.795  13.641  0.00  0.00    +0.000 A 
ATOM     16  C   UNL     1       6.028   3.485  12.539  0.00  0.00    +0.000 A 
ATOM     17  C   UNL     1       7.292   4.054  12.426  0.00  0.00    +0.000 A 
ATOM     18  C   UNL     1       7.728   4.943  13.396  0.00  0.00    +0.000 A 
ATOM     19  C   UNL     1       6.910   5.242  14.496  0.00  0.00    +0.000 A 
ENDBRANCH   6  14
TORSDOF 1
ENDMDL
MODEL 5
REMARK VINA RESULT:      -6.6      2.985      6.412
REMARK  Name = 
REMARK  1 active torsions:
REMARK  status: ('A' for Active; 'I' for Inactive)
REMARK    1  A    between atoms: N_6  and  C_7
REMARK                            x       y       z     vdW  Elec       q    Type
REMARK                         _______ _______ _______ _____ _____    ______ ____
ROOT
ATOM      1  O   UNL     1       5.798   5.525  19.980  0.00  0.00    +0.000 OA
ATOM      2  C   UNL     1       5.145   4.721  19.325  0.00  0.00    +0.000 C 
ATOM      3  N   UNL     1       5.567   4.079  18.158  0.00  0.00    +0.000 N 
ATOM      4  C   UNL     1       4.666   3.560  17.107  0.00  0.00    +0.000 C 
ATOM      5  C   UNL     1       4.542   4.575  15.956  0.00  0.00    +0.000 C 
ATOM      6  N   UNL     1       5.873   4.905  15.428  0.00  0.00    +0.000 N 
ATOM      7  C   UNL     1       6.840   5.394  16.432  0.00  0.00    +0.000 C 
ATOM      8  C   UNL     1       6.902   4.427  17.645  0.00  0.00    +0.000 C 
ATOM      9  N   UNL     1       3.810   4.496  19.694  0.00  0.00    +0.000 N 
ATOM     10  C   UNL     1       2.909   5.452  20.085  0.00  0.00    +0.000 A 
ATOM     11  N   UNL     1       1.749   4.903  20.357  0.00  0.00    +0.000 NA
ATOM     12  C   UNL     1       1.995   3.573  20.176  0.00  0.00    +0.000 A 
ATOM     13  N   UNL     1       3.223   3.266  19.748  0.00  0.00    +0.000 NA
ENDROOT
BRANCH   6  14
ATOM     14  C   UNL     1       6.252   4.582  14.137  0.00  0.00    +0.000 A 
ATOM     15  C   UNL     1       5.575   3.598  13.403  0.00  0.00    +0.000 A 
ATOM     16  C   UNL     1       5.975   3.225  12.111  0.00  0.00    +0.000 A 
ATOM     17  C   UNL     1       7.077   3.836  11.523  0.00  0.00    +0.000 A 
ATOM     18  C   UNL     1       7.755   4.827  12.214  0.00  0.00    +0.000 A 
ATOM     19  C   UNL     1       7.348   5.190  13.507  0.00  0.00    +0.000 A 
ENDBRANCH   6  14
TORSDOF 1
ENDMDL
MODEL 6
REMARK VINA RESULT:      -6.5      3.182      4.560
REMARK  Name = 
REMARK  1 active torsions:
REMARK  status: ('A' for Active; 'I' for Inactive)
REMARK    1  A    between atoms: N_6  and  C_7
REMARK                            x       y       z     vdW  Elec       q    Type
REMARK                         _______ _______ _______ _____ _____    ______ ____
ROOT
ATOM      1  O   UNL     1       4.454   2.889  17.265  0.00  0.00    +0.000 OA
ATOM      2  C   UNL     1       4.975   3.998  17.248  0.00  0.00    +0.000 C 
ATOM      3  N   UNL     1       4.707   5.043  18.135  0.00  0.00    +0.000 N 
ATOM      4  C   UNL     1       4.893   6.477  17.830  0.00  0.00    +0.000 C 
ATOM      5  C   UNL     1       3.560   7.113  17.398  0.00  0.00    +0.000 C 
ATOM      6  N   UNL     1       2.539   6.898  18.433  0.00  0.00    +0.000 N 
ATOM      7  C   UNL     1       2.326   5.487  18.817  0.00  0.00    +0.000 C 
ATOM      8  C   UNL     1       3.678   4.807  19.161  0.00  0.00    +0.000 C 
ATOM      9  N   UNL     1       5.833   4.309  16.183  0.00  0.00    +0.000 N 
ATOM     10  C   UNL     1       5.634   3.989  14.865  0.00  0.00    +0.000 A 
ATOM     11  N   UNL     1       6.627   4.431  14.131  0.00  0.00    +0.000 NA
ATOM     12  C   UNL     1       7.466   4.978  15.058  0.00  0.00    +0.000 A 
ATOM     13  N   UNL     1       7.026   4.957  16.319  0.00  0.00    +0.000 NA
ENDROOT
BRANCH   6  14
ATOM     14  C   UNL     1       1.977   7.946  19.140  0.00  0.00    +0.000 A 
ATOM     15  C   UNL     1       1.722   7.843  20.516  0.00  0.00    +0.000 A 
ATOM     16  C   UNL     1       1.110   8.877  21.239  0.00  0.00    +0.000 A 
ATOM     17  C   UNL     1       0.733  10.049  20.591  0.00  0.00    +0.000 A 
ATOM     18  C   UNL     1       0.990  10.189  19.236  0.00  0.00    +0.000 A 
ATOM     19  C   UNL     1       1.599   9.147  18.522  0.00  0.00    +0.000 A 
ENDBRANCH   6  14
TORSDOF 1
ENDMDL
MODEL 7
REMARK VINA RESULT:      -6.4      3.169      4.687
REMARK  Name = 
REMARK  1 active torsions:
REMARK  status: ('A' for Active; 'I' for Inactive)
REMARK    1  A    between atoms: N_6  and  C_7
REMARK                            x       y       z     vdW  Elec       q    Type
REMARK                         _______ _______ _______ _____ _____    ______ ____
ROOT
ATOM      1  O   UNL     1       4.129   2.740  17.566  0.00  0.00    +0.000 OA
ATOM      2  C   UNL     1       4.697   3.825  17.592  0.00  0.00    +0.000 C 
ATOM      3  N   UNL     1       4.456   4.855  18.503  0.00  0.00    +0.000 N 
ATOM      4  C   UNL     1       4.711   6.288  18.243  0.00  0.00    +0.000 C 
ATOM      5  C   UNL     1       3.416   6.994  17.803  0.00  0.00    +0.000 C 
ATOM      6  N   UNL     1       2.364   6.795  18.811  0.00  0.00    +0.000 N 
ATOM      7  C   UNL     1       2.083   5.385  19.150  0.00  0.00    +0.000 C 
ATOM      8  C   UNL     1       3.396   4.636  19.501  0.00  0.00    +0.000 C 
ATOM      9  N   UNL     1       5.591   4.128  16.553  0.00  0.00    +0.000 N 
ATOM     10  C   UNL     1       5.405   3.853  15.223  0.00  0.00    +0.000 A 
ATOM     11  N   UNL     1       6.433   4.272  14.522  0.00  0.00    +0.000 NA
ATOM     12  C   UNL     1       7.274   4.755  15.481  0.00  0.00    +0.000 A 
ATOM     13  N   UNL     1       6.807   4.718  16.732  0.00  0.00    +0.000 NA
ENDROOT
BRANCH   6  14
ATOM     14  C   UNL     1       1.834   7.846  19.536  0.00  0.00    +0.000 A 
ATOM     15  C   UNL     1       1.491   9.059  18.920  0.00  0.00    +0.000 A 
ATOM     16  C   UNL     1       0.995  10.151  19.647  0.00  0.00    +0.000 A 
ATOM     17  C   UNL     1       0.834  10.050  21.025  0.00  0.00    +0.000 A 
ATOM     18  C   UNL     1       1.145   8.859  21.662  0.00  0.00    +0.000 A 
ATOM     19  C   UNL     1       1.643   7.775  20.924  0.00  0.00    +0.000 A 
ENDBRANCH   6  14
TORSDOF 1
ENDMDL
MODEL 8
REMARK VINA RESULT:      -6.2      2.947      4.383
REMARK  Name = 
REMARK  1 active torsions:
REMARK  status: ('A' for Active; 'I' for Inactive)
REMARK    1  A    between atoms: N_6  and  C_7
REMARK                            x       y       z     vdW  Elec       q    Type
REMARK                         _______ _______ _______ _____ _____    ______ ____
ROOT
ATOM      1  O   UNL     1       6.716   3.682  17.998  0.00  0.00    +0.000 OA
ATOM      2  C   UNL     1       6.441   4.702  17.377  0.00  0.00    +0.000 C 
ATOM      3  N   UNL     1       5.850   5.850  17.908  0.00  0.00    +0.000 N 
ATOM      4  C   UNL     1       5.050   6.823  17.132  0.00  0.00    +0.000 C 
ATOM      5  C   UNL     1       3.547   6.532  17.291  0.00  0.00    +0.000 C 
ATOM      6  N   UNL     1       3.181   6.527  18.715  0.00  0.00    +0.000 N 
ATOM      7  C   UNL     1       3.968   5.605  19.559  0.00  0.00    +0.000 C 
ATOM      8  C   UNL     1       5.488   5.822  19.334  0.00  0.00    +0.000 C 
ATOM      9  N   UNL     1       6.619   4.696  15.985  0.00  0.00    +0.000 N 
ATOM     10  C   UNL     1       6.308   3.666  15.135  0.00  0.00    +0.000 A 
ATOM     11  N   UNL     1       6.597   3.991  13.898  0.00  0.00    +0.000 NA
ATOM     12  C   UNL     1       7.151   5.230  14.033  0.00  0.00    +0.000 A 
ATOM     13  N   UNL     1       7.168   5.723  15.275  0.00  0.00    +0.000 NA
ENDROOT
BRANCH   6  14
ATOM     14  C   UNL     1       2.318   7.464  19.254  0.00  0.00    +0.000 A 
ATOM     15  C   UNL     1       1.922   8.596  18.526  0.00  0.00    +0.000 A 
ATOM     16  C   UNL     1       1.085   9.578  19.075  0.00  0.00    +0.000 A 
ATOM     17  C   UNL     1       0.625   9.449  20.381  0.00  0.00    +0.000 A 
ATOM     18  C   UNL     1       0.983   8.332  21.120  0.00  0.00    +0.000 A 
ATOM     19  C   UNL     1       1.822   7.356  20.562  0.00  0.00    +0.000 A 
ENDBRANCH   6  14
TORSDOF 1
ENDMDL
MODEL 9
REMARK VINA RESULT:      -6.0      6.288      7.410
REMARK  Name = 
REMARK  1 active torsions:
REMARK  status: ('A' for Active; 'I' for Inactive)
REMARK    1  A    between atoms: N_6  and  C_7
REMARK                            x       y       z     vdW  Elec       q    Type
REMARK                         _______ _______ _______ _____ _____    ______ ____
ROOT
ATOM      1  O   UNL     1      -0.021  11.724  22.198  0.00  0.00    +0.000 OA
ATOM      2  C   UNL     1      -0.089  11.437  21.009  0.00  0.00    +0.000 C 
ATOM      3  N   UNL     1      -0.153  10.146  20.480  0.00  0.00    +0.000 N 
ATOM      4  C   UNL     1       0.292   9.768  19.122  0.00  0.00    +0.000 C 
ATOM      5  C   UNL     1       1.716   9.185  19.165  0.00  0.00    +0.000 C 
ATOM      6  N   UNL     1       1.769   8.051  20.099  0.00  0.00    +0.000 N 
ATOM      7  C   UNL     1       1.301   8.346  21.468  0.00  0.00    +0.000 C 
ATOM      8  C   UNL     1      -0.095   9.025  21.433  0.00  0.00    +0.000 C 
ATOM      9  N   UNL     1       0.023  12.474  20.071  0.00  0.00    +0.000 N 
ATOM     10  C   UNL     1       0.896  13.529  20.134  0.00  0.00    +0.000 A 
ATOM     11  N   UNL     1       0.740  14.315  19.095  0.00  0.00    +0.000 NA
ATOM     12  C   UNL     1      -0.301  13.734  18.432  0.00  0.00    +0.000 A 
ATOM     13  N   UNL     1      -0.762  12.598  18.962  0.00  0.00    +0.000 NA
ENDROOT
BRANCH   6  14
ATOM     14  C   UNL     1       2.034   6.761  19.674  0.00  0.00    +0.000 A 
ATOM     15  C   UNL     1       2.480   6.500  18.370  0.00  0.00    +0.000 A 
ATOM     16  C   UNL     1       2.709   5.195  17.908  0.00  0.00    +0.000 A 
ATOM     17  C   UNL     1       2.488   4.112  18.753  0.00  0.00    +0.000 A 
ATOM     18  C   UNL     1       2.066   4.338  20.053  0.00  0.00    +0.000 A 
ATOM     19  C   UNL     1       1.838   5.647  20.503  0.00  0.00    +0.000 A 
ENDBRANCH   6  14
TORSDOF 1
ENDMDL
