MODEL 1
REMARK VINA RESULT:      -8.0      0.000      0.000
REMARK  Name = 
REMARK  4 active torsions:
REMARK  status: ('A' for Active; 'I' for Inactive)
REMARK    1  A    between atoms: N_1  and  S_2
REMARK    2  A    between atoms: S_2  and  C_5
REMARK    3  A    between atoms: C_7  and  C_8
REMARK    4  A    between atoms: N_10  and  N_11
REMARK                            x       y       z     vdW  Elec       q    Type
REMARK                         _______ _______ _______ _____ _____    ______ ____
ROOT
ATOM      1  C   UNL     1       1.909   8.586  18.355  0.00  0.00    +0.000 C 
ATOM      2  O   UNL     1       1.965   9.048  17.221  0.00  0.00    +0.000 OA
ATOM      3  N   UNL     1       2.528   7.416  18.772  0.00  0.00    +0.000 N 
ATOM      4  H   UNL     1       2.525   7.155  19.755  0.00  0.00    +0.000 HD
ENDROOT
BRANCH   3   5
ATOM      5  N   UNL     1       3.327   6.625  17.920  0.00  0.00    +0.000 NA
ATOM      6  C   UNL     1       4.524   7.307  17.401  0.00  0.00    +0.000 C 
ATOM      7  C   UNL     1       5.264   6.154  16.729  0.00  0.00    +0.000 C 
ATOM      8  C   UNL     1       6.811   6.134  16.689  0.00  0.00    +0.000 C 
ATOM      9  C   UNL     1       7.431   6.655  17.989  0.00  0.00    +0.000 C 
ATOM     10  C   UNL     1       7.001   5.588  19.008  0.00  0.00    +0.000 C 
ATOM     11  C   UNL     1       6.303   4.512  18.144  0.00  0.00    +0.000 C 
ATOM     12  C   UNL     1       7.109   4.630  16.842  0.00  0.00    +0.000 C 
ATOM     13  C   UNL     1       4.921   4.930  17.598  0.00  0.00    +0.000 C 
ATOM     14  C   UNL     1       3.799   5.366  18.526  0.00  0.00    +0.000 C 
ENDBRANCH   3   5
BRANCH   1  17
ATOM     15  C   UNL     1      -0.450  11.130  19.818  0.00  0.00    +0.000 A 
ATOM     16  C   UNL     1       0.374  10.426  18.931  0.00  0.00    +0.000 A 
ATOM     17  C   UNL     1       1.145   9.344  19.377  0.00  0.00    +0.000 A 
ATOM     18  C   UNL     1       1.098   8.973  20.724  0.00  0.00    +0.000 A 
ATOM     19  C   UNL     1       0.285   9.686  21.612  0.00  0.00    +0.000 A 
ATOM     20  C   UNL     1      -0.495  10.764  21.165  0.00  0.00    +0.000 A 
ATOM     21 CL   UNL     1      -1.482  11.557  22.337  0.00  0.00    +0.000 Cl
BRANCH  15  22
ATOM     22  S   UNL     1      -1.478  12.428  19.221  0.00  0.00    +0.000 S 
ATOM     23  O   UNL     1      -0.993  13.678  19.747  0.00  0.00    +0.000 OA
ATOM     24  O   UNL     1      -2.855  12.005  19.299  0.00  0.00    +0.000 OA
BRANCH  22  25
ATOM     25  N   UNL     1      -1.149  12.503  17.567  0.00  0.00    +0.000 NA
ATOM     26  H   UNL     1      -1.036  11.557  17.198  0.00  0.00    +0.000 HD
ATOM     27  H   UNL     1      -0.341  13.104  17.404  0.00  0.00    +0.000 HD
ENDBRANCH  22  25
ENDBRANCH  15  22
ENDBRANCH   1  17
TORSDOF 4
ENDMDL
MODEL 2
REMARK VINA RESULT:      -7.9      2.309      3.110
REMARK  Name = 
REMARK  4 active torsions:
REMARK  status: ('A' for Active; 'I' for Inactive)
REMARK    1  A    between atoms: N_1  and  S_2
REMARK    2  A    between atoms: S_2  and  C_5
REMARK    3  A    between atoms: C_7  and  C_8
REMARK    4  A    between atoms: N_10  and  N_11
REMARK                            x       y       z     vdW  Elec       q    Type
REMARK                         _______ _______ _______ _____ _____    ______ ____
ROOT
ATOM      1  C   UNL     1       1.753   8.238  19.756  0.00  0.00    +0.000 C 
ATOM      2  O   UNL     1       2.151   8.624  18.663  0.00  0.00    +0.000 OA
ATOM      3  N   UNL     1       2.005   6.988  20.303  0.00  0.00    +0.000 N 
ATOM      4  H   UNL     1       1.733   6.781  21.261  0.00  0.00    +0.000 HD
ENDROOT
BRANCH   3   5
ATOM      5  N   UNL     1       2.783   6.009  19.652  0.00  0.00    +0.000 NA
ATOM      6  C   UNL     1       2.959   4.763  20.416  0.00  0.00    +0.000 C 
ATOM      7  C   UNL     1       3.625   3.862  19.380  0.00  0.00    +0.000 C 
ATOM      8  C   UNL     1       3.363   2.336  19.387  0.00  0.00    +0.000 C 
ATOM      9  C   UNL     1       1.908   1.999  19.725  0.00  0.00    +0.000 C 
ATOM     10  C   UNL     1       1.149   2.573  18.518  0.00  0.00    +0.000 C 
ATOM     11  C   UNL     1       2.273   3.049  17.567  0.00  0.00    +0.000 C 
ATOM     12  C   UNL     1       3.362   2.012  17.880  0.00  0.00    +0.000 C 
ATOM     13  C   UNL     1       3.016   4.315  18.041  0.00  0.00    +0.000 C 
ATOM     14  C   UNL     1       2.276   5.612  18.326  0.00  0.00    +0.000 C 
ENDBRANCH   3   5
BRANCH   1  17
ATOM     15  C   UNL     1      -0.485  11.144  20.611  0.00  0.00    +0.000 A 
ATOM     16  C   UNL     1       0.355  10.262  19.920  0.00  0.00    +0.000 A 
ATOM     17  C   UNL     1       0.963   9.187  20.582  0.00  0.00    +0.000 A 
ATOM     18  C   UNL     1       0.737   9.002  21.949  0.00  0.00    +0.000 A 
ATOM     19  C   UNL     1      -0.091   9.892  22.642  0.00  0.00    +0.000 A 
ATOM     20  C   UNL     1      -0.709  10.963  21.978  0.00  0.00    +0.000 A 
ATOM     21 CL   UNL     1      -1.731  11.984  22.920  0.00  0.00    +0.000 Cl
BRANCH  15  22
ATOM     22  S   UNL     1      -1.310  12.434  19.744  0.00  0.00    +0.000 S 
ATOM     23  O   UNL     1      -0.781  13.698  20.188  0.00  0.00    +0.000 OA
ATOM     24  O   UNL     1      -2.719  12.130  19.686  0.00  0.00    +0.000 OA
BRANCH  22  25
ATOM     25  N   UNL     1      -0.776  12.283  18.150  0.00  0.00    +0.000 NA
ATOM     26  H   UNL     1       0.046  11.678  18.121  0.00  0.00    +0.000 HD
ATOM     27  H   UNL     1      -0.615  13.209  17.752  0.00  0.00    +0.000 HD
ENDBRANCH  22  25
ENDBRANCH  15  22
ENDBRANCH   1  17
TORSDOF 4
ENDMDL
MODEL 3
REMARK VINA RESULT:      -7.6      2.588      3.602
REMARK  Name = 
REMARK  4 active torsions:
REMARK  status: ('A' for Active; 'I' for Inactive)
REMARK    1  A    between atoms: N_1  and  S_2
REMARK    2  A    between atoms: S_2  and  C_5
REMARK    3  A    between atoms: C_7  and  C_8
REMARK    4  A    between atoms: N_10  and  N_11
REMARK                            x       y       z     vdW  Elec       q    Type
REMARK                         _______ _______ _______ _____ _____    ______ ____
ROOT
ATOM      1  C   UNL     1       1.211   8.842  21.232  0.00  0.00    +0.000 C 
ATOM      2  O   UNL     1       1.702   8.713  22.348  0.00  0.00    +0.000 OA
ATOM      3  N   UNL     1       1.453   8.006  20.151  0.00  0.00    +0.000 N 
ATOM      4  H   UNL     1       0.924   8.115  19.288  0.00  0.00    +0.000 HD
ENDROOT
BRANCH   3   5
ATOM      5  N   UNL     1       2.293   6.876  20.228  0.00  0.00    +0.000 NA
ATOM      6  C   UNL     1       1.613   5.640  20.646  0.00  0.00    +0.000 C 
ATOM      7  C   UNL     1       2.704   4.598  20.414  0.00  0.00    +0.000 C 
ATOM      8  C   UNL     1       2.332   3.156  19.992  0.00  0.00    +0.000 C 
ATOM      9  C   UNL     1       1.161   3.124  19.005  0.00  0.00    +0.000 C 
ATOM     10  C   UNL     1       1.759   3.809  17.764  0.00  0.00    +0.000 C 
ATOM     11  C   UNL     1       3.243   4.027  18.142  0.00  0.00    +0.000 C 
ATOM     12  C   UNL     1       3.488   2.802  19.036  0.00  0.00    +0.000 C 
ATOM     13  C   UNL     1       3.478   5.131  19.194  0.00  0.00    +0.000 C 
ATOM     14  C   UNL     1       2.997   6.556  18.973  0.00  0.00    +0.000 C 
ENDBRANCH   3   5
BRANCH   1  17
ATOM     15  C   UNL     1      -1.300  11.044  19.492  0.00  0.00    +0.000 A 
ATOM     16  C   UNL     1      -0.321  10.075  19.746  0.00  0.00    +0.000 A 
ATOM     17  C   UNL     1       0.260   9.962  21.016  0.00  0.00    +0.000 A 
ATOM     18  C   UNL     1      -0.133  10.835  22.035  0.00  0.00    +0.000 A 
ATOM     19  C   UNL     1      -1.101  11.812  21.776  0.00  0.00    +0.000 A 
ATOM     20  C   UNL     1      -1.692  11.919  20.508  0.00  0.00    +0.000 A 
ATOM     21 CL   UNL     1      -2.893  13.140  20.304  0.00  0.00    +0.000 Cl
BRANCH  15  22
ATOM     22  S   UNL     1      -2.083  11.111  17.917  0.00  0.00    +0.000 S 
ATOM     23  O   UNL     1      -3.477  11.419  18.109  0.00  0.00    +0.000 OA
ATOM     24  O   UNL     1      -1.608  10.012  17.114  0.00  0.00    +0.000 OA
BRANCH  22  25
ATOM     25  N   UNL     1      -1.438  12.486  17.181  0.00  0.00    +0.000 NA
ATOM     26  H   UNL     1      -0.623  12.805  17.708  0.00  0.00    +0.000 HD
ATOM     27  H   UNL     1      -2.164  13.197  17.083  0.00  0.00    +0.000 HD
ENDBRANCH  22  25
ENDBRANCH  15  22
ENDBRANCH   1  17
TORSDOF 4
ENDMDL
MODEL 4
REMARK VINA RESULT:      -7.6      2.341      3.099
REMARK  Name = 
REMARK  4 active torsions:
REMARK  status: ('A' for Active; 'I' for Inactive)
REMARK    1  A    between atoms: N_1  and  S_2
REMARK    2  A    between atoms: S_2  and  C_5
REMARK    3  A    between atoms: C_7  and  C_8
REMARK    4  A    between atoms: N_10  and  N_11
REMARK                            x       y       z     vdW  Elec       q    Type
REMARK                         _______ _______ _______ _____ _____    ______ ____
ROOT
ATOM      1  C   UNL     1       2.006   8.358  18.545  0.00  0.00    +0.000 C 
ATOM      2  O   UNL     1       2.305   8.583  17.377  0.00  0.00    +0.000 OA
ATOM      3  N   UNL     1       2.222   7.158  19.208  0.00  0.00    +0.000 N 
ATOM      4  H   UNL     1       2.046   7.084  20.207  0.00  0.00    +0.000 HD
ENDROOT
BRANCH   3   5
ATOM      5  N   UNL     1       2.845   6.048  18.601  0.00  0.00    +0.000 NA
ATOM      6  C   UNL     1       3.642   5.219  19.520  0.00  0.00    +0.000 C 
ATOM      7  C   UNL     1       3.978   4.021  18.637  0.00  0.00    +0.000 C 
ATOM      8  C   UNL     1       4.130   2.611  19.256  0.00  0.00    +0.000 C 
ATOM      9  C   UNL     1       3.109   2.352  20.368  0.00  0.00    +0.000 C 
ATOM     10  C   UNL     1       1.778   2.356  19.599  0.00  0.00    +0.000 C 
ATOM     11  C   UNL     1       2.207   2.480  18.118  0.00  0.00    +0.000 C 
ATOM     12  C   UNL     1       3.540   1.717  18.147  0.00  0.00    +0.000 C 
ATOM     13  C   UNL     1       2.747   3.871  17.724  0.00  0.00    +0.000 C 
ATOM     14  C   UNL     1       1.916   5.129  17.917  0.00  0.00    +0.000 C 
ENDBRANCH   3   5
BRANCH   1  17
ATOM     15  C   UNL     1       0.917  11.843  19.468  0.00  0.00    +0.000 A 
ATOM     16  C   UNL     1       1.549  10.762  18.840  0.00  0.00    +0.000 A 
ATOM     17  C   UNL     1       1.389   9.458  19.329  0.00  0.00    +0.000 A 
ATOM     18  C   UNL     1       0.602   9.238  20.463  0.00  0.00    +0.000 A 
ATOM     19  C   UNL     1      -0.018  10.320  21.097  0.00  0.00    +0.000 A 
ATOM     20  C   UNL     1       0.132  11.625  20.603  0.00  0.00    +0.000 A 
ATOM     21 CL   UNL     1      -0.696  12.882  21.445  0.00  0.00    +0.000 Cl
BRANCH  15  22
ATOM     22  S   UNL     1       1.056  13.460  18.787  0.00  0.00    +0.000 S 
ATOM     23  O   UNL     1       1.754  14.297  19.728  0.00  0.00    +0.000 OA
ATOM     24  O   UNL     1      -0.200  13.817  18.175  0.00  0.00    +0.000 OA
BRANCH  22  25
ATOM     25  N   UNL     1       2.126  13.284  17.493  0.00  0.00    +0.000 NA
ATOM     26  H   UNL     1       2.926  12.720  17.785  0.00  0.00    +0.000 HD
ATOM     27  H   UNL     1       2.384  14.204  17.134  0.00  0.00    +0.000 HD
ENDBRANCH  22  25
ENDBRANCH  15  22
ENDBRANCH   1  17
TORSDOF 4
ENDMDL
MODEL 5
REMARK VINA RESULT:      -7.5      2.865      3.732
REMARK  Name = 
REMARK  4 active torsions:
REMARK  status: ('A' for Active; 'I' for Inactive)
REMARK    1  A    between atoms: N_1  and  S_2
REMARK    2  A    between atoms: S_2  and  C_5
REMARK    3  A    between atoms: C_7  and  C_8
REMARK    4  A    between atoms: N_10  and  N_11
REMARK                            x       y       z     vdW  Elec       q    Type
REMARK                         _______ _______ _______ _____ _____    ______ ____
ROOT
ATOM      1  C   UNL     1       2.110   8.342  18.270  0.00  0.00    +0.000 C 
ATOM      2  O   UNL     1       2.605   8.580  17.174  0.00  0.00    +0.000 OA
ATOM      3  N   UNL     1       2.111   7.103  18.896  0.00  0.00    +0.000 N 
ATOM      4  H   UNL     1       1.776   7.010  19.852  0.00  0.00    +0.000 HD
ENDROOT
BRANCH   3   5
ATOM      5  N   UNL     1       2.716   5.961  18.333  0.00  0.00    +0.000 NA
ATOM      6  C   UNL     1       3.649   5.261  19.231  0.00  0.00    +0.000 C 
ATOM      7  C   UNL     1       3.944   3.992  18.436  0.00  0.00    +0.000 C 
ATOM      8  C   UNL     1       4.232   2.659  19.169  0.00  0.00    +0.000 C 
ATOM      9  C   UNL     1       3.354   2.478  20.410  0.00  0.00    +0.000 C 
ATOM     10  C   UNL     1       1.947   2.354  19.802  0.00  0.00    +0.000 C 
ATOM     11  C   UNL     1       2.204   2.341  18.277  0.00  0.00    +0.000 C 
ATOM     12  C   UNL     1       3.568   1.635  18.228  0.00  0.00    +0.000 C 
ATOM     13  C   UNL     1       2.629   3.703  17.690  0.00  0.00    +0.000 C 
ATOM     14  C   UNL     1       1.764   4.943  17.852  0.00  0.00    +0.000 C 
ENDBRANCH   3   5
BRANCH   1  17
ATOM     15  C   UNL     1       0.395  10.203  21.060  0.00  0.00    +0.000 A 
ATOM     16  C   UNL     1       0.919   9.179  20.260  0.00  0.00    +0.000 A 
ATOM     17  C   UNL     1       1.482   9.467  19.009  0.00  0.00    +0.000 A 
ATOM     18  C   UNL     1       1.507  10.788  18.551  0.00  0.00    +0.000 A 
ATOM     19  C   UNL     1       0.971  11.807  19.345  0.00  0.00    +0.000 A 
ATOM     20  C   UNL     1       0.417  11.522  20.603  0.00  0.00    +0.000 A 
ATOM     21 CL   UNL     1      -0.192  12.856  21.512  0.00  0.00    +0.000 Cl
BRANCH  15  22
ATOM     22  S   UNL     1      -0.225   9.834  22.665  0.00  0.00    +0.000 S 
ATOM     23  O   UNL     1      -0.918   8.572  22.612  0.00  0.00    +0.000 OA
ATOM     24  O   UNL     1      -0.787  11.034  23.235  0.00  0.00    +0.000 OA
BRANCH  22  25
ATOM     25  N   UNL     1       1.152   9.527  23.592  0.00  0.00    +0.000 NA
ATOM     26  H   UNL     1       1.136   8.559  23.918  0.00  0.00    +0.000 HD
ATOM     27  H   UNL     1       1.218  10.211  24.346  0.00  0.00    +0.000 HD
ENDBRANCH  22  25
ENDBRANCH  15  22
ENDBRANCH   1  17
TORSDOF 4
ENDMDL
MODEL 6
REMARK VINA RESULT:      -7.5      1.308      1.388
REMARK  Name = 
REMARK  4 active torsions:
REMARK  status: ('A' for Active; 'I' for Inactive)
REMARK    1  A    between atoms: N_1  and  S_2
REMARK    2  A    between atoms: S_2  and  C_5
REMARK    3  A    between atoms: C_7  and  C_8
REMARK    4  A    between atoms: N_10  and  N_11
REMARK                            x       y       z     vdW  Elec       q    Type
REMARK                         _______ _______ _______ _____ _____    ______ ____
ROOT
ATOM      1  C   UNL     1       1.986   7.244  20.079  0.00  0.00    +0.000 C 
ATOM      2  O   UNL     1       1.772   6.144  20.575  0.00  0.00    +0.000 OA
ATOM      3  N   UNL     1       2.820   7.484  18.996  0.00  0.00    +0.000 N 
ATOM      4  H   UNL     1       2.861   8.408  18.573  0.00  0.00    +0.000 HD
ENDROOT
BRANCH   3   5
ATOM      5  N   UNL     1       3.512   6.458  18.319  0.00  0.00    +0.000 NA
ATOM      6  C   UNL     1       4.357   6.924  17.208  0.00  0.00    +0.000 C 
ATOM      7  C   UNL     1       5.118   5.651  16.849  0.00  0.00    +0.000 C 
ATOM      8  C   UNL     1       6.568   5.731  16.312  0.00  0.00    +0.000 C 
ATOM      9  C   UNL     1       7.386   6.820  17.011  0.00  0.00    +0.000 C 
ATOM     10  C   UNL     1       7.477   6.289  18.451  0.00  0.00    +0.000 C 
ATOM     11  C   UNL     1       6.816   4.893  18.372  0.00  0.00    +0.000 C 
ATOM     12  C   UNL     1       7.205   4.479  16.944  0.00  0.00    +0.000 C 
ATOM     13  C   UNL     1       5.284   4.920  18.194  0.00  0.00    +0.000 C 
ATOM     14  C   UNL     1       4.382   5.639  19.184  0.00  0.00    +0.000 C 
ENDBRANCH   3   5
BRANCH   1  17
ATOM     15  C   UNL     1      -0.019  10.429  20.217  0.00  0.00    +0.000 A 
ATOM     16  C   UNL     1       0.744   9.349  19.756  0.00  0.00    +0.000 A 
ATOM     17  C   UNL     1       1.279   8.416  20.655  0.00  0.00    +0.000 A 
ATOM     18  C   UNL     1       1.057   8.574  22.026  0.00  0.00    +0.000 A 
ATOM     19  C   UNL     1       0.306   9.661  22.486  0.00  0.00    +0.000 A 
ATOM     20  C   UNL     1      -0.239  10.591  21.587  0.00  0.00    +0.000 A 
ATOM     21 CL   UNL     1      -1.171  11.878  22.258  0.00  0.00    +0.000 Cl
BRANCH  15  22
ATOM     22  S   UNL     1      -0.757  11.539  19.067  0.00  0.00    +0.000 S 
ATOM     23  O   UNL     1       0.112  12.676  18.902  0.00  0.00    +0.000 OA
ATOM     24  O   UNL     1      -2.166  11.642  19.358  0.00  0.00    +0.000 OA
BRANCH  22  25
ATOM     25  N   UNL     1      -0.686  10.727  17.589  0.00  0.00    +0.000 NA
ATOM     26  H   UNL     1      -0.071  11.234  16.950  0.00  0.00    +0.000 HD
ATOM     27  H   UNL     1      -1.630  10.591  17.226  0.00  0.00    +0.000 HD
ENDBRANCH  22  25
ENDBRANCH  15  22
ENDBRANCH   1  17
TORSDOF 4
ENDMDL
MODEL 7
REMARK VINA RESULT:      -7.5      2.251      3.031
REMARK  Name = 
REMARK  4 active torsions:
REMARK  status: ('A' for Active; 'I' for Inactive)
REMARK    1  A    between atoms: N_1  and  S_2
REMARK    2  A    between atoms: S_2  and  C_5
REMARK    3  A    between atoms: C_7  and  C_8
REMARK    4  A    between atoms: N_10  and  N_11
REMARK                            x       y       z     vdW  Elec       q    Type
REMARK                         _______ _______ _______ _____ _____    ______ ____
ROOT
ATOM      1  C   UNL     1       1.722   7.225  20.325  0.00  0.00    +0.000 C 
ATOM      2  O   UNL     1       1.454   6.205  20.951  0.00  0.00    +0.000 OA
ATOM      3  N   UNL     1       2.488   7.275  19.170  0.00  0.00    +0.000 N 
ATOM      4  H   UNL     1       2.575   8.144  18.648  0.00  0.00    +0.000 HD
ENDROOT
BRANCH   3   5
ATOM      5  N   UNL     1       3.039   6.127  18.564  0.00  0.00    +0.000 NA
ATOM      6  C   UNL     1       3.831   5.280  19.470  0.00  0.00    +0.000 C 
ATOM      7  C   UNL     1       4.081   4.053  18.599  0.00  0.00    +0.000 C 
ATOM      8  C   UNL     1       4.192   2.648  19.240  0.00  0.00    +0.000 C 
ATOM      9  C   UNL     1       3.202   2.456  20.393  0.00  0.00    +0.000 C 
ATOM     10  C   UNL     1       1.845   2.506  19.671  0.00  0.00    +0.000 C 
ATOM     11  C   UNL     1       2.226   2.584  18.174  0.00  0.00    +0.000 C 
ATOM     12  C   UNL     1       3.524   1.762  18.171  0.00  0.00    +0.000 C 
ATOM     13  C   UNL     1       2.812   3.941  17.734  0.00  0.00    +0.000 C 
ATOM     14  C   UNL     1       2.046   5.239  17.931  0.00  0.00    +0.000 C 
ENDBRANCH   3   5
BRANCH   1  17
ATOM     15  C   UNL     1      -0.017  10.565  20.257  0.00  0.00    +0.000 A 
ATOM     16  C   UNL     1       0.617   9.379  19.863  0.00  0.00    +0.000 A 
ATOM     17  C   UNL     1       1.162   8.509  20.818  0.00  0.00    +0.000 A 
ATOM     18  C   UNL     1       1.081   8.836  22.174  0.00  0.00    +0.000 A 
ATOM     19  C   UNL     1       0.460  10.027  22.565  0.00  0.00    +0.000 A 
ATOM     20  C   UNL     1      -0.095  10.895  21.612  0.00  0.00    +0.000 A 
ATOM     21 CL   UNL     1      -0.861  12.323  22.203  0.00  0.00    +0.000 Cl
BRANCH  15  22
ATOM     22  S   UNL     1      -0.773  11.600  19.051  0.00  0.00    +0.000 S 
ATOM     23  O   UNL     1       0.065  12.754  18.844  0.00  0.00    +0.000 OA
ATOM     24  O   UNL     1      -2.187  11.674  19.322  0.00  0.00    +0.000 OA
BRANCH  22  25
ATOM     25  N   UNL     1      -0.661  10.726  17.611  0.00  0.00    +0.000 NA
ATOM     26  H   UNL     1      -0.021  11.200  16.972  0.00  0.00    +0.000 HD
ATOM     27  H   UNL     1      -1.594  10.582  17.223  0.00  0.00    +0.000 HD
ENDBRANCH  22  25
ENDBRANCH  15  22
ENDBRANCH   1  17
TORSDOF 4
ENDMDL
MODEL 8
REMARK VINA RESULT:      -7.5      1.202      1.579
REMARK  Name = 
REMARK  4 active torsions:
REMARK  status: ('A' for Active; 'I' for Inactive)
REMARK    1  A    between atoms: N_1  and  S_2
REMARK    2  A    between atoms: S_2  and  C_5
REMARK    3  A    between atoms: C_7  and  C_8
REMARK    4  A    between atoms: N_10  and  N_11
REMARK                            x       y       z     vdW  Elec       q    Type
REMARK                         _______ _______ _______ _____ _____    ______ ____
ROOT
ATOM      1  C   UNL     1       2.217   7.572  19.412  0.00  0.00    +0.000 C 
ATOM      2  O   UNL     1       2.569   7.979  18.310  0.00  0.00    +0.000 OA
ATOM      3  N   UNL     1       2.508   6.319  19.932  0.00  0.00    +0.000 N 
ATOM      4  H   UNL     1       2.274   6.095  20.896  0.00  0.00    +0.000 HD
ENDROOT
BRANCH   3   5
ATOM      5  N   UNL     1       3.279   5.362  19.240  0.00  0.00    +0.000 NA
ATOM      6  C   UNL     1       3.133   5.405  17.776  0.00  0.00    +0.000 C 
ATOM      7  C   UNL     1       4.227   4.440  17.331  0.00  0.00    +0.000 C 
ATOM      8  C   UNL     1       4.973   4.664  15.993  0.00  0.00    +0.000 C 
ATOM      9  C   UNL     1       5.243   6.147  15.722  0.00  0.00    +0.000 C 
ATOM     10  C   UNL     1       6.229   6.512  16.844  0.00  0.00    +0.000 C 
ATOM     11  C   UNL     1       6.511   5.160  17.542  0.00  0.00    +0.000 C 
ATOM     12  C   UNL     1       6.399   4.200  16.348  0.00  0.00    +0.000 C 
ATOM     13  C   UNL     1       5.337   4.619  18.384  0.00  0.00    +0.000 C 
ATOM     14  C   UNL     1       4.726   5.434  19.512  0.00  0.00    +0.000 C 
ENDBRANCH   3   5
BRANCH   1  17
ATOM     15  C   UNL     1       0.063  10.499  20.399  0.00  0.00    +0.000 A 
ATOM     16  C   UNL     1       0.887   9.631  19.671  0.00  0.00    +0.000 A 
ATOM     17  C   UNL     1       1.442   8.496  20.278  0.00  0.00    +0.000 A 
ATOM     18  C   UNL     1       1.179   8.236  21.626  0.00  0.00    +0.000 A 
ATOM     19  C   UNL     1       0.366   9.112  22.355  0.00  0.00    +0.000 A 
ATOM     20  C   UNL     1      -0.198  10.243  21.747  0.00  0.00    +0.000 A 
ATOM     21 CL   UNL     1      -1.206  11.241  22.729  0.00  0.00    +0.000 Cl
BRANCH  15  22
ATOM     22  S   UNL     1      -0.697  11.869  19.596  0.00  0.00    +0.000 S 
ATOM     23  O   UNL     1      -0.137  13.084  20.131  0.00  0.00    +0.000 OA
ATOM     24  O   UNL     1      -2.113  11.619  19.488  0.00  0.00    +0.000 OA
BRANCH  22  25
ATOM     25  N   UNL     1      -0.129  11.798  18.008  0.00  0.00    +0.000 NA
ATOM     26  H   UNL     1      -0.911  11.915  17.361  0.00  0.00    +0.000 HD
ATOM     27  H   UNL     1       0.392  10.932  17.868  0.00  0.00    +0.000 HD
ENDBRANCH  22  25
ENDBRANCH  15  22
ENDBRANCH   1  17
TORSDOF 4
ENDMDL
MODEL 9
REMARK VINA RESULT:      -7.4      1.092      1.161
REMARK  Name = 
REMARK  4 active torsions:
REMARK  status: ('A' for Active; 'I' for Inactive)
REMARK    1  A    between atoms: N_1  and  S_2
REMARK    2  A    between atoms: S_2  and  C_5
REMARK    3  A    between atoms: C_7  and  C_8
REMARK    4  A    between atoms: N_10  and  N_11
REMARK                            x       y       z     vdW  Elec       q    Type
REMARK                         _______ _______ _______ _____ _____    ______ ____
ROOT
ATOM      1  C   UNL     1       1.907   8.463  18.593  0.00  0.00    +0.000 C 
ATOM      2  O   UNL     1       1.865   9.104  17.548  0.00  0.00    +0.000 OA
ATOM      3  N   UNL     1       2.552   7.245  18.758  0.00  0.00    +0.000 N 
ATOM      4  H   UNL     1       2.635   6.828  19.682  0.00  0.00    +0.000 HD
ENDROOT
BRANCH   3   5
ATOM      5  N   UNL     1       3.266   6.609  17.721  0.00  0.00    +0.000 NA
ATOM      6  C   UNL     1       4.519   7.282  17.342  0.00  0.00    +0.000 C 
ATOM      7  C   UNL     1       5.141   6.259  16.397  0.00  0.00    +0.000 C 
ATOM      8  C   UNL     1       6.679   6.108  16.308  0.00  0.00    +0.000 C 
ATOM      9  C   UNL     1       7.354   6.247  17.675  0.00  0.00    +0.000 C 
ATOM     10  C   UNL     1       6.831   5.012  18.427  0.00  0.00    +0.000 C 
ATOM     11  C   UNL     1       6.027   4.240  17.355  0.00  0.00    +0.000 C 
ATOM     12  C   UNL     1       6.833   4.589  16.094  0.00  0.00    +0.000 C 
ATOM     13  C   UNL     1       4.689   4.900  16.963  0.00  0.00    +0.000 C 
ATOM     14  C   UNL     1       3.619   5.205  17.999  0.00  0.00    +0.000 C 
ENDBRANCH   3   5
BRANCH   1  17
ATOM     15  C   UNL     1       0.280  11.020  20.828  0.00  0.00    +0.000 A 
ATOM     16  C   UNL     1       0.990  10.418  19.781  0.00  0.00    +0.000 A 
ATOM     17  C   UNL     1       1.242   9.039  19.789  0.00  0.00    +0.000 A 
ATOM     18  C   UNL     1       0.793   8.262  20.860  0.00  0.00    +0.000 A 
ATOM     19  C   UNL     1       0.097   8.867  21.912  0.00  0.00    +0.000 A 
ATOM     20  C   UNL     1      -0.166  10.246  21.901  0.00  0.00    +0.000 A 
ATOM     21 CL   UNL     1      -1.055  10.885  23.234  0.00  0.00    +0.000 Cl
BRANCH  15  22
ATOM     22  S   UNL     1      -0.105  12.736  20.756  0.00  0.00    +0.000 S 
ATOM     23  O   UNL     1       0.647  13.420  21.776  0.00  0.00    +0.000 OA
ATOM     24  O   UNL     1      -1.528  12.886  20.572  0.00  0.00    +0.000 OA
BRANCH  22  25
ATOM     25  N   UNL     1       0.570  13.262  19.301  0.00  0.00    +0.000 NA
ATOM     26  H   UNL     1      -0.148  13.720  18.737  0.00  0.00    +0.000 HD
ATOM     27  H   UNL     1       1.022  12.477  18.828  0.00  0.00    +0.000 HD
ENDBRANCH  22  25
ENDBRANCH  15  22
ENDBRANCH   1  17
TORSDOF 4
ENDMDL
