MODEL 1
REMARK VINA RESULT:      -9.2      0.000      0.000
REMARK  Name = 
REMARK  5 active torsions:
REMARK  status: ('A' for Active; 'I' for Inactive)
REMARK    1  A    between atoms: N_3  and  C_4
REMARK    2  A    between atoms: C_8  and  C_9
REMARK    3  A    between atoms: C_9  and  O_11
REMARK    4  A    between atoms: N_13  and  C_14
REMARK    5  A    between atoms: C_18  and  C_19
REMARK                            x       y       z     vdW  Elec       q    Type
REMARK                         _______ _______ _______ _____ _____    ______ ____
ROOT
ATOM      1  O   UNL     1       8.343   7.666  18.687  0.00  0.00    +0.000 OA
ATOM      2  C   UNL     1       7.822   8.374  17.834  0.00  0.00    +0.000 C 
ATOM      3  N   UNL     1       8.089   9.730  17.698  0.00  0.00    +0.000 N 
ATOM      4  N   UNL     1       6.872   7.920  16.931  0.00  0.00    +0.000 N 
ATOM      5  H   UNL     1       7.434  10.285  17.167  0.00  0.00    +0.000 HD
ATOM      6  H   UNL     1       6.389   8.606  16.371  0.00  0.00    +0.000 HD
ENDROOT
BRANCH   3   7
ATOM      7  C   UNL     1       9.047  10.432  18.478  0.00  0.00    +0.000 A 
ATOM      8  C   UNL     1       9.106  10.327  19.873  0.00  0.00    +0.000 A 
ATOM      9  C   UNL     1      10.038  11.046  20.622  0.00  0.00    +0.000 A 
ATOM     10  C   UNL     1      10.943  11.882  19.982  0.00  0.00    +0.000 A 
ATOM     11  C   UNL     1      10.900  12.007  18.587  0.00  0.00    +0.000 A 
ATOM     12  C   UNL     1       9.971  11.260  17.833  0.00  0.00    +0.000 A 
BRANCH  11  13
ATOM     13  C   UNL     1      11.839  12.902  17.871  0.00  0.00    +0.000 C 
ATOM     14  O   UNL     1      12.333  13.887  18.397  0.00  0.00    +0.000 OA
BRANCH  13  15
ATOM     15  O   UNL     1      12.134  12.511  16.613  0.00  0.00    +0.000 OA
ATOM     16  H   UNL     1      11.371  12.431  16.009  0.00  0.00    +0.000 HD
ENDBRANCH  13  15
ENDBRANCH  11  13
ENDBRANCH   3   7
BRANCH   4  17
ATOM     17  C   UNL     1       6.371   6.592  16.890  0.00  0.00    +0.000 A 
ATOM     18  C   UNL     1       6.989   5.566  16.170  0.00  0.00    +0.000 A 
ATOM     19  C   UNL     1       6.511   4.263  16.228  0.00  0.00    +0.000 A 
ATOM     20  C   UNL     1       5.389   3.971  16.998  0.00  0.00    +0.000 A 
ATOM     21  C   UNL     1       4.693   4.980  17.690  0.00  0.00    +0.000 A 
ATOM     22  C   UNL     1       5.208   6.294  17.616  0.00  0.00    +0.000 A 
BRANCH  21  23
ATOM     23  C   UNL     1       3.463   4.658  18.453  0.00  0.00    +0.000 A 
ATOM     24  C   UNL     1       3.145   5.298  19.663  0.00  0.00    +0.000 A 
ATOM     25  C   UNL     1       1.973   4.990  20.365  0.00  0.00    +0.000 A 
ATOM     26  C   UNL     1       1.100   4.023  19.878  0.00  0.00    +0.000 A 
ATOM     27  C   UNL     1       1.393   3.366  18.689  0.00  0.00    +0.000 A 
ATOM     28  C   UNL     1       2.557   3.686  17.984  0.00  0.00    +0.000 A 
ENDBRANCH  21  23
ENDBRANCH   4  17
TORSDOF 5
ENDMDL
MODEL 2
REMARK VINA RESULT:      -8.8      0.371      1.026
REMARK  Name = 
REMARK  5 active torsions:
REMARK  status: ('A' for Active; 'I' for Inactive)
REMARK    1  A    between atoms: N_3  and  C_4
REMARK    2  A    between atoms: C_8  and  C_9
REMARK    3  A    between atoms: C_9  and  O_11
REMARK    4  A    between atoms: N_13  and  C_14
REMARK    5  A    between atoms: C_18  and  C_19
REMARK                            x       y       z     vdW  Elec       q    Type
REMARK                         _______ _______ _______ _____ _____    ______ ____
ROOT
ATOM      1  O   UNL     1       8.231   7.526  18.557  0.00  0.00    +0.000 OA
ATOM      2  C   UNL     1       7.647   8.246  17.756  0.00  0.00    +0.000 C 
ATOM      3  N   UNL     1       7.892   9.607  17.630  0.00  0.00    +0.000 N 
ATOM      4  N   UNL     1       6.643   7.800  16.908  0.00  0.00    +0.000 N 
ATOM      5  H   UNL     1       7.198  10.165  17.155  0.00  0.00    +0.000 HD
ATOM      6  H   UNL     1       6.118   8.491  16.396  0.00  0.00    +0.000 HD
ENDROOT
BRANCH   3   7
ATOM      7  C   UNL     1       8.894  10.304  18.358  0.00  0.00    +0.000 A 
ATOM      8  C   UNL     1       9.131  10.076  19.719  0.00  0.00    +0.000 A 
ATOM      9  C   UNL     1      10.102  10.790  20.422  0.00  0.00    +0.000 A 
ATOM     10  C   UNL     1      10.867  11.746  19.768  0.00  0.00    +0.000 A 
ATOM     11  C   UNL     1      10.644  11.994  18.408  0.00  0.00    +0.000 A 
ATOM     12  C   UNL     1       9.678  11.253  17.696  0.00  0.00    +0.000 A 
BRANCH  11  13
ATOM     13  C   UNL     1      11.430  13.018  17.679  0.00  0.00    +0.000 C 
ATOM     14  O   UNL     1      12.333  13.647  18.208  0.00  0.00    +0.000 OA
BRANCH  13  15
ATOM     15  O   UNL     1      11.094  13.160  16.380  0.00  0.00    +0.000 OA
ATOM     16  H   UNL     1      10.321  13.729  16.207  0.00  0.00    +0.000 HD
ENDBRANCH  13  15
ENDBRANCH  11  13
ENDBRANCH   3   7
BRANCH   4  17
ATOM     17  C   UNL     1       6.153   6.467  16.873  0.00  0.00    +0.000 A 
ATOM     18  C   UNL     1       6.755   5.453  16.124  0.00  0.00    +0.000 A 
ATOM     19  C   UNL     1       6.291   4.145  16.188  0.00  0.00    +0.000 A 
ATOM     20  C   UNL     1       5.198   3.837  16.992  0.00  0.00    +0.000 A 
ATOM     21  C   UNL     1       4.518   4.834  17.717  0.00  0.00    +0.000 A 
ATOM     22  C   UNL     1       5.018   6.153  17.636  0.00  0.00    +0.000 A 
BRANCH  21  23
ATOM     23  C   UNL     1       3.318   4.494  18.518  0.00  0.00    +0.000 A 
ATOM     24  C   UNL     1       2.313   3.639  18.033  0.00  0.00    +0.000 A 
ATOM     25  C   UNL     1       1.192   3.319  18.808  0.00  0.00    +0.000 A 
ATOM     26  C   UNL     1       1.044   3.859  20.082  0.00  0.00    +0.000 A 
ATOM     27  C   UNL     1       2.016   4.714  20.585  0.00  0.00    +0.000 A 
ATOM     28  C   UNL     1       3.142   5.021  19.813  0.00  0.00    +0.000 A 
ENDBRANCH  21  23
ENDBRANCH   4  17
TORSDOF 5
ENDMDL
MODEL 3
REMARK VINA RESULT:      -8.7      1.977      2.465
REMARK  Name = 
REMARK  5 active torsions:
REMARK  status: ('A' for Active; 'I' for Inactive)
REMARK    1  A    between atoms: N_3  and  C_4
REMARK    2  A    between atoms: C_8  and  C_9
REMARK    3  A    between atoms: C_9  and  O_11
REMARK    4  A    between atoms: N_13  and  C_14
REMARK    5  A    between atoms: C_18  and  C_19
REMARK                            x       y       z     vdW  Elec       q    Type
REMARK                         _______ _______ _______ _____ _____    ______ ____
ROOT
ATOM      1  O   UNL     1       7.342   8.501  17.145  0.00  0.00    +0.000 OA
ATOM      2  C   UNL     1       7.910   7.871  18.029  0.00  0.00    +0.000 C 
ATOM      3  N   UNL     1       8.790   8.448  18.936  0.00  0.00    +0.000 N 
ATOM      4  N   UNL     1       7.778   6.501  18.206  0.00  0.00    +0.000 N 
ATOM      5  H   UNL     1       9.409   7.833  19.442  0.00  0.00    +0.000 HD
ATOM      6  H   UNL     1       8.399   6.049  18.858  0.00  0.00    +0.000 HD
ENDROOT
BRANCH   3   7
ATOM      7  C   UNL     1       9.074   9.839  18.990  0.00  0.00    +0.000 A 
ATOM      8  C   UNL     1       9.310  10.605  17.842  0.00  0.00    +0.000 A 
ATOM      9  C   UNL     1       9.614  11.965  17.920  0.00  0.00    +0.000 A 
ATOM     10  C   UNL     1       9.677  12.590  19.158  0.00  0.00    +0.000 A 
ATOM     11  C   UNL     1       9.449  11.843  20.320  0.00  0.00    +0.000 A 
ATOM     12  C   UNL     1       9.119  10.474  20.235  0.00  0.00    +0.000 A 
BRANCH  11  13
ATOM     13  C   UNL     1       9.522  12.472  21.659  0.00  0.00    +0.000 C 
ATOM     14  O   UNL     1       9.901  13.622  21.822  0.00  0.00    +0.000 OA
BRANCH  13  15
ATOM     15  O   UNL     1       9.096  11.686  22.671  0.00  0.00    +0.000 OA
ATOM     16  H   UNL     1       9.404  10.761  22.641  0.00  0.00    +0.000 HD
ENDBRANCH  13  15
ENDBRANCH  11  13
ENDBRANCH   3   7
BRANCH   4  17
ATOM     17  C   UNL     1       6.989   5.656  17.381  0.00  0.00    +0.000 A 
ATOM     18  C   UNL     1       7.375   5.269  16.095  0.00  0.00    +0.000 A 
ATOM     19  C   UNL     1       6.611   4.372  15.359  0.00  0.00    +0.000 A 
ATOM     20  C   UNL     1       5.434   3.861  15.896  0.00  0.00    +0.000 A 
ATOM     21  C   UNL     1       4.970   4.268  17.161  0.00  0.00    +0.000 A 
ATOM     22  C   UNL     1       5.771   5.176  17.888  0.00  0.00    +0.000 A 
BRANCH  21  23
ATOM     23  C   UNL     1       3.680   3.759  17.688  0.00  0.00    +0.000 A 
ATOM     24  C   UNL     1       2.522   4.554  17.723  0.00  0.00    +0.000 A 
ATOM     25  C   UNL     1       1.309   4.054  18.212  0.00  0.00    +0.000 A 
ATOM     26  C   UNL     1       1.232   2.750  18.692  0.00  0.00    +0.000 A 
ATOM     27  C   UNL     1       2.364   1.944  18.680  0.00  0.00    +0.000 A 
ATOM     28  C   UNL     1       3.569   2.442  18.177  0.00  0.00    +0.000 A 
ENDBRANCH  21  23
ENDBRANCH   4  17
TORSDOF 5
ENDMDL
MODEL 4
REMARK VINA RESULT:      -8.5      5.979      7.914
REMARK  Name = 
REMARK  5 active torsions:
REMARK  status: ('A' for Active; 'I' for Inactive)
REMARK    1  A    between atoms: N_3  and  C_4
REMARK    2  A    between atoms: C_8  and  C_9
REMARK    3  A    between atoms: C_9  and  O_11
REMARK    4  A    between atoms: N_13  and  C_14
REMARK    5  A    between atoms: C_18  and  C_19
REMARK                            x       y       z     vdW  Elec       q    Type
REMARK                         _______ _______ _______ _____ _____    ______ ____
ROOT
ATOM      1  O   UNL     1       4.196   4.878  16.223  0.00  0.00    +0.000 OA
ATOM      2  C   UNL     1       5.159   4.480  16.866  0.00  0.00    +0.000 C 
ATOM      3  N   UNL     1       6.362   4.099  16.286  0.00  0.00    +0.000 N 
ATOM      4  N   UNL     1       5.153   4.319  18.244  0.00  0.00    +0.000 N 
ATOM      5  H   UNL     1       6.992   3.539  16.840  0.00  0.00    +0.000 HD
ATOM      6  H   UNL     1       5.935   3.843  18.666  0.00  0.00    +0.000 HD
ENDROOT
BRANCH   3   7
ATOM      7  C   UNL     1       6.639   4.199  14.895  0.00  0.00    +0.000 A 
ATOM      8  C   UNL     1       7.574   5.102  14.376  0.00  0.00    +0.000 A 
ATOM      9  C   UNL     1       7.811   5.201  13.004  0.00  0.00    +0.000 A 
ATOM     10  C   UNL     1       7.117   4.384  12.122  0.00  0.00    +0.000 A 
ATOM     11  C   UNL     1       6.174   3.477  12.618  0.00  0.00    +0.000 A 
ATOM     12  C   UNL     1       5.955   3.364  14.007  0.00  0.00    +0.000 A 
BRANCH  11  13
ATOM     13  C   UNL     1       5.404   2.599  11.705  0.00  0.00    +0.000 C 
ATOM     14  O   UNL     1       4.322   2.925  11.243  0.00  0.00    +0.000 OA
BRANCH  13  15
ATOM     15  O   UNL     1       6.019   1.438  11.396  0.00  0.00    +0.000 OA
ATOM     16  H   UNL     1       5.773   1.049  10.536  0.00  0.00    +0.000 HD
ENDBRANCH  13  15
ENDBRANCH  11  13
ENDBRANCH   3   7
BRANCH   4  17
ATOM     17  C   UNL     1       4.033   4.576  19.080  0.00  0.00    +0.000 A 
ATOM     18  C   UNL     1       3.456   3.603  19.900  0.00  0.00    +0.000 A 
ATOM     19  C   UNL     1       2.416   3.923  20.764  0.00  0.00    +0.000 A 
ATOM     20  C   UNL     1       1.924   5.224  20.804  0.00  0.00    +0.000 A 
ATOM     21  C   UNL     1       2.430   6.224  19.953  0.00  0.00    +0.000 A 
ATOM     22  C   UNL     1       3.491   5.870  19.090  0.00  0.00    +0.000 A 
BRANCH  21  23
ATOM     23  C   UNL     1       1.849   7.588  19.968  0.00  0.00    +0.000 A 
ATOM     24  C   UNL     1       1.251   8.133  21.118  0.00  0.00    +0.000 A 
ATOM     25  C   UNL     1       0.718   9.427  21.118  0.00  0.00    +0.000 A 
ATOM     26  C   UNL     1       0.758  10.202  19.963  0.00  0.00    +0.000 A 
ATOM     27  C   UNL     1       1.333   9.686  18.808  0.00  0.00    +0.000 A 
ATOM     28  C   UNL     1       1.877   8.398  18.815  0.00  0.00    +0.000 A 
ENDBRANCH  21  23
ENDBRANCH   4  17
TORSDOF 5
ENDMDL
MODEL 5
REMARK VINA RESULT:      -8.4      1.800      2.502
REMARK  Name = 
REMARK  5 active torsions:
REMARK  status: ('A' for Active; 'I' for Inactive)
REMARK    1  A    between atoms: N_3  and  C_4
REMARK    2  A    between atoms: C_8  and  C_9
REMARK    3  A    between atoms: C_9  and  O_11
REMARK    4  A    between atoms: N_13  and  C_14
REMARK    5  A    between atoms: C_18  and  C_19
REMARK                            x       y       z     vdW  Elec       q    Type
REMARK                         _______ _______ _______ _____ _____    ______ ____
ROOT
ATOM      1  O   UNL     1       7.456   8.728  17.209  0.00  0.00    +0.000 OA
ATOM      2  C   UNL     1       7.987   8.087  18.108  0.00  0.00    +0.000 C 
ATOM      3  N   UNL     1       8.880   8.640  19.017  0.00  0.00    +0.000 N 
ATOM      4  N   UNL     1       7.797   6.727  18.301  0.00  0.00    +0.000 N 
ATOM      5  H   UNL     1       9.468   8.007  19.539  0.00  0.00    +0.000 HD
ATOM      6  H   UNL     1       8.391   6.258  18.967  0.00  0.00    +0.000 HD
ENDROOT
BRANCH   3   7
ATOM      7  C   UNL     1       9.221  10.019  19.057  0.00  0.00    +0.000 A 
ATOM      8  C   UNL     1       9.609  10.732  17.916  0.00  0.00    +0.000 A 
ATOM      9  C   UNL     1       9.966  12.079  17.982  0.00  0.00    +0.000 A 
ATOM     10  C   UNL     1       9.930  12.745  19.199  0.00  0.00    +0.000 A 
ATOM     11  C   UNL     1       9.549  12.051  20.354  0.00  0.00    +0.000 A 
ATOM     12  C   UNL     1       9.168  10.696  20.278  0.00  0.00    +0.000 A 
BRANCH  11  13
ATOM     13  C   UNL     1       9.513  12.726  21.673  0.00  0.00    +0.000 C 
ATOM     14  O   UNL     1       9.021  12.205  22.662  0.00  0.00    +0.000 OA
BRANCH  13  15
ATOM     15  O   UNL     1      10.107  13.938  21.697  0.00  0.00    +0.000 OA
ATOM     16  H   UNL     1      10.192  14.347  22.579  0.00  0.00    +0.000 HD
ENDBRANCH  13  15
ENDBRANCH  11  13
ENDBRANCH   3   7
BRANCH   4  17
ATOM     17  C   UNL     1       6.982   5.903  17.478  0.00  0.00    +0.000 A 
ATOM     18  C   UNL     1       7.339   5.534  16.179  0.00  0.00    +0.000 A 
ATOM     19  C   UNL     1       6.552   4.657  15.443  0.00  0.00    +0.000 A 
ATOM     20  C   UNL     1       5.379   4.150  15.995  0.00  0.00    +0.000 A 
ATOM     21  C   UNL     1       4.944   4.541  17.275  0.00  0.00    +0.000 A 
ATOM     22  C   UNL     1       5.770   5.429  18.001  0.00  0.00    +0.000 A 
BRANCH  21  23
ATOM     23  C   UNL     1       3.660   4.038  17.819  0.00  0.00    +0.000 A 
ATOM     24  C   UNL     1       3.264   2.696  17.679  0.00  0.00    +0.000 A 
ATOM     25  C   UNL     1       2.053   2.235  18.209  0.00  0.00    +0.000 A 
ATOM     26  C   UNL     1       1.203   3.110  18.879  0.00  0.00    +0.000 A 
ATOM     27  C   UNL     1       1.563   4.443  19.024  0.00  0.00    +0.000 A 
ATOM     28  C   UNL     1       2.780   4.898  18.506  0.00  0.00    +0.000 A 
ENDBRANCH  21  23
ENDBRANCH   4  17
TORSDOF 5
ENDMDL
MODEL 6
REMARK VINA RESULT:      -8.4      1.330      1.525
REMARK  Name = 
REMARK  5 active torsions:
REMARK  status: ('A' for Active; 'I' for Inactive)
REMARK    1  A    between atoms: N_3  and  C_4
REMARK    2  A    between atoms: C_8  and  C_9
REMARK    3  A    between atoms: C_9  and  O_11
REMARK    4  A    between atoms: N_13  and  C_14
REMARK    5  A    between atoms: C_18  and  C_19
REMARK                            x       y       z     vdW  Elec       q    Type
REMARK                         _______ _______ _______ _____ _____    ______ ____
ROOT
ATOM      1  O   UNL     1       7.408   8.965  17.438  0.00  0.00    +0.000 OA
ATOM      2  C   UNL     1       8.011   8.203  18.184  0.00  0.00    +0.000 C 
ATOM      3  N   UNL     1       8.958   8.626  19.108  0.00  0.00    +0.000 N 
ATOM      4  N   UNL     1       7.855   6.824  18.168  0.00  0.00    +0.000 N 
ATOM      5  H   UNL     1       9.591   7.933  19.480  0.00  0.00    +0.000 HD
ATOM      6  H   UNL     1       8.502   6.271  18.708  0.00  0.00    +0.000 HD
ENDROOT
BRANCH   3   7
ATOM      7  C   UNL     1       9.280   9.989  19.345  0.00  0.00    +0.000 A 
ATOM      8  C   UNL     1       9.028  10.621  20.569  0.00  0.00    +0.000 A 
ATOM      9  C   UNL     1       9.328  11.968  20.773  0.00  0.00    +0.000 A 
ATOM     10  C   UNL     1       9.900  12.712  19.750  0.00  0.00    +0.000 A 
ATOM     11  C   UNL     1      10.158  12.102  18.515  0.00  0.00    +0.000 A 
ATOM     12  C   UNL     1       9.874  10.735  18.322  0.00  0.00    +0.000 A 
BRANCH  11  13
ATOM     13  C   UNL     1      10.754  12.868  17.395  0.00  0.00    +0.000 C 
ATOM     14  O   UNL     1      11.882  12.650  16.981  0.00  0.00    +0.000 OA
BRANCH  13  15
ATOM     15  O   UNL     1       9.933  13.790  16.850  0.00  0.00    +0.000 OA
ATOM     16  H   UNL     1       9.437  14.340  17.486  0.00  0.00    +0.000 HD
ENDBRANCH  13  15
ENDBRANCH  11  13
ENDBRANCH   3   7
BRANCH   4  17
ATOM     17  C   UNL     1       6.997   6.122  17.280  0.00  0.00    +0.000 A 
ATOM     18  C   UNL     1       7.240   6.017  15.908  0.00  0.00    +0.000 A 
ATOM     19  C   UNL     1       6.419   5.248  15.093  0.00  0.00    +0.000 A 
ATOM     20  C   UNL     1       5.326   4.584  15.642  0.00  0.00    +0.000 A 
ATOM     21  C   UNL     1       5.002   4.709  17.006  0.00  0.00    +0.000 A 
ATOM     22  C   UNL     1       5.860   5.493  17.809  0.00  0.00    +0.000 A 
BRANCH  21  23
ATOM     23  C   UNL     1       3.797   4.043  17.556  0.00  0.00    +0.000 A 
ATOM     24  C   UNL     1       2.569   4.715  17.691  0.00  0.00    +0.000 A 
ATOM     25  C   UNL     1       1.437   4.068  18.201  0.00  0.00    +0.000 A 
ATOM     26  C   UNL     1       1.512   2.737  18.602  0.00  0.00    +0.000 A 
ATOM     27  C   UNL     1       2.715   2.052  18.491  0.00  0.00    +0.000 A 
ATOM     28  C   UNL     1       3.839   2.697  17.967  0.00  0.00    +0.000 A 
ENDBRANCH  21  23
ENDBRANCH   4  17
TORSDOF 5
ENDMDL
MODEL 7
REMARK VINA RESULT:      -8.4      1.161      1.200
REMARK  Name = 
REMARK  5 active torsions:
REMARK  status: ('A' for Active; 'I' for Inactive)
REMARK    1  A    between atoms: N_3  and  C_4
REMARK    2  A    between atoms: C_8  and  C_9
REMARK    3  A    between atoms: C_9  and  O_11
REMARK    4  A    between atoms: N_13  and  C_14
REMARK    5  A    between atoms: C_18  and  C_19
REMARK                            x       y       z     vdW  Elec       q    Type
REMARK                         _______ _______ _______ _____ _____    ______ ____
ROOT
ATOM      1  O   UNL     1       7.574   9.407  17.745  0.00  0.00    +0.000 OA
ATOM      2  C   UNL     1       8.277   8.705  18.463  0.00  0.00    +0.000 C 
ATOM      3  N   UNL     1       9.319   9.202  19.235  0.00  0.00    +0.000 N 
ATOM      4  N   UNL     1       8.147   7.327  18.558  0.00  0.00    +0.000 N 
ATOM      5  H   UNL     1      10.005   8.544  19.574  0.00  0.00    +0.000 HD
ATOM      6  H   UNL     1       8.865   6.820  19.052  0.00  0.00    +0.000 HD
ENDROOT
BRANCH   3   7
ATOM      7  C   UNL     1       9.641  10.582  19.339  0.00  0.00    +0.000 A 
ATOM      8  C   UNL     1       9.292  11.354  20.454  0.00  0.00    +0.000 A 
ATOM      9  C   UNL     1       9.594  12.715  20.525  0.00  0.00    +0.000 A 
ATOM     10  C   UNL     1      10.266  13.329  19.477  0.00  0.00    +0.000 A 
ATOM     11  C   UNL     1      10.622  12.578  18.350  0.00  0.00    +0.000 A 
ATOM     12  C   UNL     1      10.334  11.198  18.294  0.00  0.00    +0.000 A 
BRANCH  11  13
ATOM     13  C   UNL     1      11.326  13.203  17.206  0.00  0.00    +0.000 C 
ATOM     14  O   UNL     1      11.041  14.315  16.791  0.00  0.00    +0.000 OA
BRANCH  13  15
ATOM     15  O   UNL     1      12.332  12.461  16.696  0.00  0.00    +0.000 OA
ATOM     16  H   UNL     1      13.128  12.959  16.430  0.00  0.00    +0.000 HD
ENDBRANCH  13  15
ENDBRANCH  11  13
ENDBRANCH   3   7
BRANCH   4  17
ATOM     17  C   UNL     1       7.203   6.555  17.830  0.00  0.00    +0.000 A 
ATOM     18  C   UNL     1       7.397   6.169  16.501  0.00  0.00    +0.000 A 
ATOM     19  C   UNL     1       6.485   5.342  15.857  0.00  0.00    +0.000 A 
ATOM     20  C   UNL     1       5.351   4.903  16.532  0.00  0.00    +0.000 A 
ATOM     21  C   UNL     1       5.078   5.316  17.850  0.00  0.00    +0.000 A 
ATOM     22  C   UNL     1       6.027   6.151  18.480  0.00  0.00    +0.000 A 
BRANCH  21  23
ATOM     23  C   UNL     1       3.832   4.887  18.529  0.00  0.00    +0.000 A 
ATOM     24  C   UNL     1       3.279   5.609  19.601  0.00  0.00    +0.000 A 
ATOM     25  C   UNL     1       2.094   5.197  20.223  0.00  0.00    +0.000 A 
ATOM     26  C   UNL     1       1.443   4.044  19.795  0.00  0.00    +0.000 A 
ATOM     27  C   UNL     1       1.972   3.304  18.745  0.00  0.00    +0.000 A 
ATOM     28  C   UNL     1       3.147   3.727  18.117  0.00  0.00    +0.000 A 
ENDBRANCH  21  23
ENDBRANCH   4  17
TORSDOF 5
ENDMDL
MODEL 8
REMARK VINA RESULT:      -8.4      1.770      2.240
REMARK  Name = 
REMARK  5 active torsions:
REMARK  status: ('A' for Active; 'I' for Inactive)
REMARK    1  A    between atoms: N_3  and  C_4
REMARK    2  A    between atoms: C_8  and  C_9
REMARK    3  A    between atoms: C_9  and  O_11
REMARK    4  A    between atoms: N_13  and  C_14
REMARK    5  A    between atoms: C_18  and  C_19
REMARK                            x       y       z     vdW  Elec       q    Type
REMARK                         _______ _______ _______ _____ _____    ______ ____
ROOT
ATOM      1  O   UNL     1       8.571   7.894  18.831  0.00  0.00    +0.000 OA
ATOM      2  C   UNL     1       8.023   8.565  17.964  0.00  0.00    +0.000 C 
ATOM      3  N   UNL     1       8.284   9.913  17.760  0.00  0.00    +0.000 N 
ATOM      4  N   UNL     1       7.047   8.072  17.111  0.00  0.00    +0.000 N 
ATOM      5  H   UNL     1       7.613  10.444  17.226  0.00  0.00    +0.000 HD
ATOM      6  H   UNL     1       6.547   8.732  16.536  0.00  0.00    +0.000 HD
ENDROOT
BRANCH   3   7
ATOM      7  C   UNL     1       9.265  10.649  18.479  0.00  0.00    +0.000 A 
ATOM      8  C   UNL     1      10.552  10.877  17.979  0.00  0.00    +0.000 A 
ATOM      9  C   UNL     1      11.509  11.579  18.714  0.00  0.00    +0.000 A 
ATOM     10  C   UNL     1      11.187  12.080  19.968  0.00  0.00    +0.000 A 
ATOM     11  C   UNL     1       9.906  11.861  20.490  0.00  0.00    +0.000 A 
ATOM     12  C   UNL     1       8.937  11.170  19.734  0.00  0.00    +0.000 A 
BRANCH  11  13
ATOM     13  C   UNL     1       9.532  12.367  21.832  0.00  0.00    +0.000 C 
ATOM     14  O   UNL     1       9.628  13.546  22.136  0.00  0.00    +0.000 OA
BRANCH  13  15
ATOM     15  O   UNL     1       9.038  11.428  22.666  0.00  0.00    +0.000 OA
ATOM     16  H   UNL     1       9.660  11.095  23.339  0.00  0.00    +0.000 HD
ENDBRANCH  13  15
ENDBRANCH  11  13
ENDBRANCH   3   7
BRANCH   4  17
ATOM     17  C   UNL     1       6.546   6.742  17.143  0.00  0.00    +0.000 A 
ATOM     18  C   UNL     1       7.047   5.720  16.333  0.00  0.00    +0.000 A 
ATOM     19  C   UNL     1       6.585   4.416  16.460  0.00  0.00    +0.000 A 
ATOM     20  C   UNL     1       5.595   4.120  17.393  0.00  0.00    +0.000 A 
ATOM     21  C   UNL     1       5.014   5.126  18.188  0.00  0.00    +0.000 A 
ATOM     22  C   UNL     1       5.510   6.441  18.040  0.00  0.00    +0.000 A 
BRANCH  21  23
ATOM     23  C   UNL     1       3.917   4.799  19.131  0.00  0.00    +0.000 A 
ATOM     24  C   UNL     1       2.985   5.763  19.555  0.00  0.00    +0.000 A 
ATOM     25  C   UNL     1       1.948   5.434  20.436  0.00  0.00    +0.000 A 
ATOM     26  C   UNL     1       1.829   4.136  20.924  0.00  0.00    +0.000 A 
ATOM     27  C   UNL     1       2.742   3.166  20.531  0.00  0.00    +0.000 A 
ATOM     28  C   UNL     1       3.768   3.494  19.639  0.00  0.00    +0.000 A 
ENDBRANCH  21  23
ENDBRANCH   4  17
TORSDOF 5
ENDMDL
MODEL 9
REMARK VINA RESULT:      -8.4      1.620      2.372
REMARK  Name = 
REMARK  5 active torsions:
REMARK  status: ('A' for Active; 'I' for Inactive)
REMARK    1  A    between atoms: N_3  and  C_4
REMARK    2  A    between atoms: C_8  and  C_9
REMARK    3  A    between atoms: C_9  and  O_11
REMARK    4  A    between atoms: N_13  and  C_14
REMARK    5  A    between atoms: C_18  and  C_19
REMARK                            x       y       z     vdW  Elec       q    Type
REMARK                         _______ _______ _______ _____ _____    ______ ____
ROOT
ATOM      1  O   UNL     1       8.583   7.897  18.786  0.00  0.00    +0.000 OA
ATOM      2  C   UNL     1       8.019   8.598  17.954  0.00  0.00    +0.000 C 
ATOM      3  N   UNL     1       8.253   9.960  17.815  0.00  0.00    +0.000 N 
ATOM      4  N   UNL     1       7.049   8.128  17.081  0.00  0.00    +0.000 N 
ATOM      5  H   UNL     1       7.570  10.503  17.309  0.00  0.00    +0.000 HD
ATOM      6  H   UNL     1       6.534   8.805  16.541  0.00  0.00    +0.000 HD
ENDROOT
BRANCH   3   7
ATOM      7  C   UNL     1       9.222  10.679  18.566  0.00  0.00    +0.000 A 
ATOM      8  C   UNL     1      10.541  10.849  18.127  0.00  0.00    +0.000 A 
ATOM      9  C   UNL     1      11.483  11.536  18.893  0.00  0.00    +0.000 A 
ATOM     10  C   UNL     1      11.117  12.079  20.117  0.00  0.00    +0.000 A 
ATOM     11  C   UNL     1       9.805  11.917  20.579  0.00  0.00    +0.000 A 
ATOM     12  C   UNL     1       8.850  11.242  19.791  0.00  0.00    +0.000 A 
BRANCH  11  13
ATOM     13  C   UNL     1       9.382  12.470  21.887  0.00  0.00    +0.000 C 
ATOM     14  O   UNL     1       8.756  11.812  22.704  0.00  0.00    +0.000 OA
BRANCH  13  15
ATOM     15  O   UNL     1       9.784  13.738  22.114  0.00  0.00    +0.000 OA
ATOM     16  H   UNL     1      10.748  13.886  22.079  0.00  0.00    +0.000 HD
ENDBRANCH  13  15
ENDBRANCH  11  13
ENDBRANCH   3   7
BRANCH   4  17
ATOM     17  C   UNL     1       6.575   6.789  17.050  0.00  0.00    +0.000 A 
ATOM     18  C   UNL     1       7.257   5.754  16.405  0.00  0.00    +0.000 A 
ATOM     19  C   UNL     1       6.798   4.444  16.475  0.00  0.00    +0.000 A 
ATOM     20  C   UNL     1       5.633   4.155  17.179  0.00  0.00    +0.000 A 
ATOM     21  C   UNL     1       4.877   5.171  17.791  0.00  0.00    +0.000 A 
ATOM     22  C   UNL     1       5.372   6.492  17.709  0.00  0.00    +0.000 A 
BRANCH  21  23
ATOM     23  C   UNL     1       3.605   4.849  18.483  0.00  0.00    +0.000 A 
ATOM     24  C   UNL     1       2.579   4.119  17.858  0.00  0.00    +0.000 A 
ATOM     25  C   UNL     1       1.390   3.812  18.529  0.00  0.00    +0.000 A 
ATOM     26  C   UNL     1       1.194   4.243  19.838  0.00  0.00    +0.000 A 
ATOM     27  C   UNL     1       2.186   4.975  20.478  0.00  0.00    +0.000 A 
ATOM     28  C   UNL     1       3.378   5.266  19.809  0.00  0.00    +0.000 A 
ENDBRANCH  21  23
ENDBRANCH   4  17
TORSDOF 5
ENDMDL
