MODEL 1
REMARK VINA RESULT:      -8.8      0.000      0.000
REMARK  Name = 
REMARK  7 active torsions:
REMARK  status: ('A' for Active; 'I' for Inactive)
REMARK    1  A    between atoms: C_1  and  C_2
REMARK    2  A    between atoms: C_2  and  N_3
REMARK    3  A    between atoms: C_2  and  C_9
REMARK    4  A    between atoms: C_4  and  C_6
REMARK    5  A    between atoms: C_12  and  O_13
REMARK    6  A    between atoms: O_13  and  C_14
REMARK    7  A    between atoms: N_17  and  C_18
REMARK                            x       y       z     vdW  Elec       q    Type
REMARK                         _______ _______ _______ _____ _____    ______ ____
ROOT
ATOM      1  C   UNL     1       2.621   3.196  20.904  0.00  0.00    +0.000 C 
ATOM      2  C   UNL     1       1.126   3.144  20.572  0.00  0.00    +0.000 C 
ATOM      3  C   UNL     1       0.829   4.376  19.702  0.00  0.00    +0.000 C 
ATOM      4  N   UNL     1       1.849   5.337  20.072  0.00  0.00    +0.000 N 
ATOM      5  C   UNL     1       2.952   4.702  20.795  0.00  0.00    +0.000 C 
ENDROOT
BRANCH   4   6
ATOM      6  C   UNL     1       1.767   6.704  19.828  0.00  0.00    +0.000 A 
ATOM      7  N   UNL     1       1.137   7.525  20.713  0.00  0.00    +0.000 NA
ATOM      8  C   UNL     1       1.093   8.882  20.501  0.00  0.00    +0.000 A 
ATOM      9  N   UNL     1       0.516   9.689  21.446  0.00  0.00    +0.000 N 
ATOM     10  C   UNL     1      -0.238   9.067  22.523  0.00  0.00    +0.000 C 
ATOM     11  C   UNL     1      -0.591  10.250  23.405  0.00  0.00    +0.000 C 
ATOM     12  C   UNL     1      -0.841  11.339  22.398  0.00  0.00    +0.000 C 
ATOM     13  C   UNL     1      -1.636  12.506  22.972  0.00  0.00    +0.000 C 
ATOM     14  C   UNL     1      -2.192  11.755  21.822  0.00  0.00    +0.000 C 
ATOM     15  C   UNL     1       0.224  11.133  21.312  0.00  0.00    +0.000 C 
ATOM     16  N   UNL     1       1.631   9.461  19.421  0.00  0.00    +0.000 NA
ATOM     17  C   UNL     1       2.239   8.640  18.546  0.00  0.00    +0.000 A 
ATOM     18  C   UNL     1       2.340   7.279  18.698  0.00  0.00    +0.000 A 
ATOM     19  F   UNL     1       2.985   6.563  17.767  0.00  0.00    +0.000 F 
ENDBRANCH   4   6
BRANCH   1  20
ATOM     20  O   UNL     1       3.362   2.373  19.978  0.00  0.00    +0.000 OA
BRANCH  20  24
ATOM     21  C   UNL     1       5.316   4.392  16.814  0.00  0.00    +0.000 A 
ATOM     22  C   UNL     1       4.141   3.654  16.628  0.00  0.00    +0.000 A 
ATOM     23  C   UNL     1       3.518   2.984  17.706  0.00  0.00    +0.000 A 
ATOM     24  C   UNL     1       4.062   3.022  18.990  0.00  0.00    +0.000 A 
ATOM     25  C   UNL     1       5.224   3.766  19.185  0.00  0.00    +0.000 A 
ATOM     26  C   UNL     1       5.834   4.451  18.114  0.00  0.00    +0.000 A 
BRANCH  21  28
ATOM     27  C   UNL     1       5.485   6.554  15.452  0.00  0.00    +0.000 C 
ATOM     28  C   UNL     1       5.968   5.109  15.634  0.00  0.00    +0.000 C 
BRANCH  28  29
ATOM     29  N   UNL     1       5.777   4.342  14.411  0.00  0.00    +0.000 N 
ATOM     30  C   UNL     1       6.624   4.466  13.324  0.00  0.00    +0.000 C 
ATOM     31  O   UNL     1       7.594   5.216  13.309  0.00  0.00    +0.000 OA
ATOM     32  H   UNL     1       4.954   3.771  14.330  0.00  0.00    +0.000 HD
BRANCH  30  33
ATOM     33  C   UNL     1       6.326   3.638  12.127  0.00  0.00    +0.000 C 
ATOM     34  C   UNL     1       5.854   2.208  12.161  0.00  0.00    +0.000 C 
ATOM     35  C   UNL     1       4.900   3.293  11.755  0.00  0.00    +0.000 C 
ENDBRANCH  30  33
ENDBRANCH  28  29
ENDBRANCH  21  28
ENDBRANCH  20  24
ENDBRANCH   1  20
TORSDOF 6
ENDMDL
MODEL 2
REMARK VINA RESULT:      -8.5      1.598      2.828
REMARK  Name = 
REMARK  7 active torsions:
REMARK  status: ('A' for Active; 'I' for Inactive)
REMARK    1  A    between atoms: C_1  and  C_2
REMARK    2  A    between atoms: C_2  and  N_3
REMARK    3  A    between atoms: C_2  and  C_9
REMARK    4  A    between atoms: C_4  and  C_6
REMARK    5  A    between atoms: C_12  and  O_13
REMARK    6  A    between atoms: O_13  and  C_14
REMARK    7  A    between atoms: N_17  and  C_18
REMARK                            x       y       z     vdW  Elec       q    Type
REMARK                         _______ _______ _______ _____ _____    ______ ____
ROOT
ATOM      1  C   UNL     1       2.441   3.021  20.842  0.00  0.00    +0.000 C 
ATOM      2  C   UNL     1       1.074   2.962  20.150  0.00  0.00    +0.000 C 
ATOM      3  C   UNL     1       0.977   4.218  19.269  0.00  0.00    +0.000 C 
ATOM      4  N   UNL     1       1.855   5.179  19.906  0.00  0.00    +0.000 N 
ATOM      5  C   UNL     1       2.759   4.533  20.860  0.00  0.00    +0.000 C 
ENDROOT
BRANCH   4   6
ATOM      6  C   UNL     1       1.809   6.552  19.688  0.00  0.00    +0.000 A 
ATOM      7  N   UNL     1       1.211   7.373  20.595  0.00  0.00    +0.000 NA
ATOM      8  C   UNL     1       1.204   8.735  20.409  0.00  0.00    +0.000 A 
ATOM      9  N   UNL     1       0.659   9.540  21.375  0.00  0.00    +0.000 N 
ATOM     10  C   UNL     1      -0.101   8.919  22.448  0.00  0.00    +0.000 C 
ATOM     11  C   UNL     1      -0.412  10.094  23.355  0.00  0.00    +0.000 C 
ATOM     12  C   UNL     1      -0.641  11.209  22.372  0.00  0.00    +0.000 C 
ATOM     13  C   UNL     1      -1.398  12.386  22.976  0.00  0.00    +0.000 C 
ATOM     14  C   UNL     1      -1.986  11.673  21.818  0.00  0.00    +0.000 C 
ATOM     15  C   UNL     1       0.407  10.993  21.271  0.00  0.00    +0.000 C 
ATOM     16  N   UNL     1       1.746   9.319  19.334  0.00  0.00    +0.000 NA
ATOM     17  C   UNL     1       2.323   8.497  18.438  0.00  0.00    +0.000 A 
ATOM     18  C   UNL     1       2.387   7.132  18.564  0.00  0.00    +0.000 A 
ATOM     19  F   UNL     1       3.002   6.416  17.612  0.00  0.00    +0.000 F 
ENDBRANCH   4   6
BRANCH   1  20
ATOM     20  O   UNL     1       3.401   2.238  20.104  0.00  0.00    +0.000 OA
BRANCH  20  24
ATOM     21  C   UNL     1       5.403   4.238  16.958  0.00  0.00    +0.000 A 
ATOM     22  C   UNL     1       4.287   3.420  16.744  0.00  0.00    +0.000 A 
ATOM     23  C   UNL     1       3.647   2.759  17.817  0.00  0.00    +0.000 A 
ATOM     24  C   UNL     1       4.115   2.886  19.125  0.00  0.00    +0.000 A 
ATOM     25  C   UNL     1       5.218   3.710  19.347  0.00  0.00    +0.000 A 
ATOM     26  C   UNL     1       5.844   4.385  18.280  0.00  0.00    +0.000 A 
BRANCH  21  28
ATOM     27  C   UNL     1       6.580   3.980  14.698  0.00  0.00    +0.000 C 
ATOM     28  C   UNL     1       6.076   4.943  15.782  0.00  0.00    +0.000 C 
BRANCH  28  29
ATOM     29  N   UNL     1       7.155   5.798  16.257  0.00  0.00    +0.000 N 
ATOM     30  C   UNL     1       6.926   7.076  16.731  0.00  0.00    +0.000 C 
ATOM     31  O   UNL     1       5.810   7.581  16.797  0.00  0.00    +0.000 OA
ATOM     32  H   UNL     1       8.100   5.473  16.154  0.00  0.00    +0.000 HD
BRANCH  30  33
ATOM     33  C   UNL     1       8.105   7.860  17.183  0.00  0.00    +0.000 C 
ATOM     34  C   UNL     1       8.044   9.226  17.815  0.00  0.00    +0.000 C 
ATOM     35  C   UNL     1       8.402   8.037  18.656  0.00  0.00    +0.000 C 
ENDBRANCH  30  33
ENDBRANCH  28  29
ENDBRANCH  21  28
ENDBRANCH  20  24
ENDBRANCH   1  20
TORSDOF 6
ENDMDL
MODEL 3
REMARK VINA RESULT:      -8.2      5.669      9.137
REMARK  Name = 
REMARK  7 active torsions:
REMARK  status: ('A' for Active; 'I' for Inactive)
REMARK    1  A    between atoms: C_1  and  C_2
REMARK    2  A    between atoms: C_2  and  N_3
REMARK    3  A    between atoms: C_2  and  C_9
REMARK    4  A    between atoms: C_4  and  C_6
REMARK    5  A    between atoms: C_12  and  O_13
REMARK    6  A    between atoms: O_13  and  C_14
REMARK    7  A    between atoms: N_17  and  C_18
REMARK                            x       y       z     vdW  Elec       q    Type
REMARK                         _______ _______ _______ _____ _____    ______ ____
ROOT
ATOM      1  C   UNL     1       1.389  13.815  18.416  0.00  0.00    +0.000 C 
ATOM      2  C   UNL     1      -0.102  13.783  18.768  0.00  0.00    +0.000 C 
ATOM      3  C   UNL     1      -0.264  12.746  19.891  0.00  0.00    +0.000 C 
ATOM      4  N   UNL     1       0.852  11.839  19.711  0.00  0.00    +0.000 N 
ATOM      5  C   UNL     1       1.879  12.412  18.840  0.00  0.00    +0.000 C 
ENDROOT
BRANCH   4   6
ATOM      6  C   UNL     1       0.917  10.557  20.248  0.00  0.00    +0.000 A 
ATOM      7  N   UNL     1       1.504   9.547  19.548  0.00  0.00    +0.000 NA
ATOM      8  C   UNL     1       1.614   8.289  20.091  0.00  0.00    +0.000 A 
ATOM      9  N   UNL     1       2.275   7.313  19.392  0.00  0.00    +0.000 N 
ATOM     10  C   UNL     1       2.630   7.572  18.006  0.00  0.00    +0.000 C 
ATOM     11  C   UNL     1       3.440   6.343  17.639  0.00  0.00    +0.000 C 
ATOM     12  C   UNL     1       2.727   5.251  18.387  0.00  0.00    +0.000 C 
ATOM     13  C   UNL     1       3.050   3.859  17.855  0.00  0.00    +0.000 C 
ATOM     14  C   UNL     1       1.644   4.326  17.837  0.00  0.00    +0.000 C 
ATOM     15  C   UNL     1       2.339   5.876  19.734  0.00  0.00    +0.000 C 
ATOM     16  N   UNL     1       1.134   7.982  21.302  0.00  0.00    +0.000 NA
ATOM     17  C   UNL     1       0.544   8.984  21.980  0.00  0.00    +0.000 A 
ATOM     18  C   UNL     1       0.415  10.268  21.512  0.00  0.00    +0.000 A 
ATOM     19  F   UNL     1      -0.180  11.188  22.284  0.00  0.00    +0.000 F 
ENDBRANCH   4   6
BRANCH   1  20
ATOM     20  O   UNL     1       2.040  14.892  19.122  0.00  0.00    +0.000 OA
BRANCH  20  24
ATOM     21  C   UNL     1       6.267  15.045  19.005  0.00  0.00    +0.000 A 
ATOM     22  C   UNL     1       5.543  15.071  20.203  0.00  0.00    +0.000 A 
ATOM     23  C   UNL     1       4.130  15.027  20.206  0.00  0.00    +0.000 A 
ATOM     24  C   UNL     1       3.407  14.973  19.015  0.00  0.00    +0.000 A 
ATOM     25  C   UNL     1       4.122  14.933  17.818  0.00  0.00    +0.000 A 
ATOM     26  C   UNL     1       5.531  14.957  17.816  0.00  0.00    +0.000 A 
BRANCH  21  28
ATOM     27  C   UNL     1       8.380  16.283  18.259  0.00  0.00    +0.000 C 
ATOM     28  C   UNL     1       7.793  15.092  19.029  0.00  0.00    +0.000 C 
BRANCH  28  29
ATOM     29  N   UNL     1       8.343  13.836  18.538  0.00  0.00    +0.000 N 
ATOM     30  C   UNL     1       9.016  12.955  19.365  0.00  0.00    +0.000 C 
ATOM     31  O   UNL     1       9.191  13.155  20.562  0.00  0.00    +0.000 OA
ATOM     32  H   UNL     1       8.304  13.653  17.551  0.00  0.00    +0.000 HD
BRANCH  30  33
ATOM     33  C   UNL     1       9.541  11.707  18.752  0.00  0.00    +0.000 C 
ATOM     34  C   UNL     1       9.450  10.336  19.371  0.00  0.00    +0.000 C 
ATOM     35  C   UNL     1       8.602  10.668  18.178  0.00  0.00    +0.000 C 
ENDBRANCH  30  33
ENDBRANCH  28  29
ENDBRANCH  21  28
ENDBRANCH  20  24
ENDBRANCH   1  20
TORSDOF 6
ENDMDL
MODEL 4
REMARK VINA RESULT:      -8.2      3.609      6.118
REMARK  Name = 
REMARK  7 active torsions:
REMARK  status: ('A' for Active; 'I' for Inactive)
REMARK    1  A    between atoms: C_1  and  C_2
REMARK    2  A    between atoms: C_2  and  N_3
REMARK    3  A    between atoms: C_2  and  C_9
REMARK    4  A    between atoms: C_4  and  C_6
REMARK    5  A    between atoms: C_12  and  O_13
REMARK    6  A    between atoms: O_13  and  C_14
REMARK    7  A    between atoms: N_17  and  C_18
REMARK                            x       y       z     vdW  Elec       q    Type
REMARK                         _______ _______ _______ _____ _____    ______ ____
ROOT
ATOM      1  C   UNL     1       0.993   9.271  22.112  0.00  0.00    +0.000 C 
ATOM      2  C   UNL     1       0.244   9.413  23.442  0.00  0.00    +0.000 C 
ATOM      3  C   UNL     1      -0.888  10.425  23.199  0.00  0.00    +0.000 C 
ATOM      4  N   UNL     1      -0.414  11.244  22.102  0.00  0.00    +0.000 N 
ATOM      5  C   UNL     1       0.711  10.616  21.406  0.00  0.00    +0.000 C 
ENDROOT
BRANCH   4   6
ATOM      6  C   UNL     1      -0.919  12.500  21.782  0.00  0.00    +0.000 A 
ATOM      7  N   UNL     1      -1.223  13.391  22.766  0.00  0.00    +0.000 NA
ATOM      8  C   UNL     1      -1.678  14.650  22.455  0.00  0.00    +0.000 A 
ATOM      9  N   UNL     1      -1.905  15.549  23.465  0.00  0.00    +0.000 N 
ATOM     10  C   UNL     1      -1.883  15.070  24.837  0.00  0.00    +0.000 C 
ATOM     11  C   UNL     1      -2.038  16.350  25.636  0.00  0.00    +0.000 C 
ATOM     12  C   UNL     1      -2.985  17.149  24.784  0.00  0.00    +0.000 C 
ATOM     13  C   UNL     1      -3.659  18.283  25.548  0.00  0.00    +0.000 C 
ATOM     14  C   UNL     1      -4.502  17.229  24.938  0.00  0.00    +0.000 C 
ATOM     15  C   UNL     1      -2.554  16.871  23.337  0.00  0.00    +0.000 C 
ATOM     16  N   UNL     1      -1.875  15.055  21.195  0.00  0.00    +0.000 NA
ATOM     17  C   UNL     1      -1.585  14.162  20.231  0.00  0.00    +0.000 A 
ATOM     18  C   UNL     1      -1.108  12.896  20.462  0.00  0.00    +0.000 A 
ATOM     19  F   UNL     1      -0.840  12.098  19.419  0.00  0.00    +0.000 F 
ENDBRANCH   4   6
BRANCH   1  20
ATOM     20  O   UNL     1       0.500   8.124  21.388  0.00  0.00    +0.000 OA
BRANCH  20  24
ATOM     21  C   UNL     1       3.026   6.150  18.626  0.00  0.00    +0.000 A 
ATOM     22  C   UNL     1       2.510   5.517  19.763  0.00  0.00    +0.000 A 
ATOM     23  C   UNL     1       1.675   6.209  20.671  0.00  0.00    +0.000 A 
ATOM     24  C   UNL     1       1.350   7.551  20.474  0.00  0.00    +0.000 A 
ATOM     25  C   UNL     1       1.851   8.184  19.337  0.00  0.00    +0.000 A 
ATOM     26  C   UNL     1       2.666   7.489  18.421  0.00  0.00    +0.000 A 
BRANCH  21  28
ATOM     27  C   UNL     1       3.801   3.857  17.792  0.00  0.00    +0.000 C 
ATOM     28  C   UNL     1       3.924   5.381  17.660  0.00  0.00    +0.000 C 
BRANCH  28  29
ATOM     29  N   UNL     1       5.309   5.803  17.814  0.00  0.00    +0.000 N 
ATOM     30  C   UNL     1       5.996   6.454  16.807  0.00  0.00    +0.000 C 
ATOM     31  O   UNL     1       5.498   6.732  15.722  0.00  0.00    +0.000 OA
ATOM     32  H   UNL     1       5.799   5.533  18.649  0.00  0.00    +0.000 HD
BRANCH  30  33
ATOM     33  C   UNL     1       7.409   6.831  17.075  0.00  0.00    +0.000 C 
ATOM     34  C   UNL     1       7.853   8.133  17.690  0.00  0.00    +0.000 C 
ATOM     35  C   UNL     1       7.949   6.866  18.488  0.00  0.00    +0.000 C 
ENDBRANCH  30  33
ENDBRANCH  28  29
ENDBRANCH  21  28
ENDBRANCH  20  24
ENDBRANCH   1  20
TORSDOF 6
ENDMDL
MODEL 5
REMARK VINA RESULT:      -8.2      3.760      6.118
REMARK  Name = 
REMARK  7 active torsions:
REMARK  status: ('A' for Active; 'I' for Inactive)
REMARK    1  A    between atoms: C_1  and  C_2
REMARK    2  A    between atoms: C_2  and  N_3
REMARK    3  A    between atoms: C_2  and  C_9
REMARK    4  A    between atoms: C_4  and  C_6
REMARK    5  A    between atoms: C_12  and  O_13
REMARK    6  A    between atoms: O_13  and  C_14
REMARK    7  A    between atoms: N_17  and  C_18
REMARK                            x       y       z     vdW  Elec       q    Type
REMARK                         _______ _______ _______ _____ _____    ______ ____
ROOT
ATOM      1  C   UNL     1       0.953  10.295  18.537  0.00  0.00    +0.000 C 
ATOM      2  C   UNL     1       1.166  11.804  18.697  0.00  0.00    +0.000 C 
ATOM      3  C   UNL     1      -0.121  12.362  19.325  0.00  0.00    +0.000 C 
ATOM      4  N   UNL     1      -1.154  11.425  18.932  0.00  0.00    +0.000 N 
ATOM      5  C   UNL     1      -0.585  10.166  18.450  0.00  0.00    +0.000 C 
ENDROOT
BRANCH   4   6
ATOM      6  C   UNL     1      -2.517  11.703  18.950  0.00  0.00    +0.000 A 
ATOM      7  N   UNL     1      -3.103  12.199  20.074  0.00  0.00    +0.000 NA
ATOM      8  C   UNL     1      -4.440  12.520  20.085  0.00  0.00    +0.000 A 
ATOM      9  N   UNL     1      -4.984  13.086  21.208  0.00  0.00    +0.000 N 
ATOM     10  C   UNL     1      -4.192  13.110  22.426  0.00  0.00    +0.000 C 
ATOM     11  C   UNL     1      -5.065  13.912  23.372  0.00  0.00    +0.000 C 
ATOM     12  C   UNL     1      -6.449  13.464  22.991  0.00  0.00    +0.000 C 
ATOM     13  C   UNL     1      -7.488  13.769  24.065  0.00  0.00    +0.000 C 
ATOM     14  C   UNL     1      -7.266  12.361  23.659  0.00  0.00    +0.000 C 
ATOM     15  C   UNL     1      -6.420  13.332  21.462  0.00  0.00    +0.000 C 
ATOM     16  N   UNL     1      -5.233  12.339  19.022  0.00  0.00    +0.000 NA
ATOM     17  C   UNL     1      -4.647  11.835  17.921  0.00  0.00    +0.000 A 
ATOM     18  C   UNL     1      -3.316  11.510  17.828  0.00  0.00    +0.000 A 
ATOM     19  F   UNL     1      -2.840  11.029  16.672  0.00  0.00    +0.000 F 
ENDBRANCH   4   6
BRANCH   1  20
ATOM     20  O   UNL     1       1.529   9.594  19.659  0.00  0.00    +0.000 OA
BRANCH  20  24
ATOM     21  C   UNL     1       2.425   5.514  18.979  0.00  0.00    +0.000 A 
ATOM     22  C   UNL     1       2.485   6.479  17.967  0.00  0.00    +0.000 A 
ATOM     23  C   UNL     1       2.170   7.833  18.226  0.00  0.00    +0.000 A 
ATOM     24  C   UNL     1       1.774   8.252  19.496  0.00  0.00    +0.000 A 
ATOM     25  C   UNL     1       1.725   7.298  20.513  0.00  0.00    +0.000 A 
ATOM     26  C   UNL     1       2.059   5.952  20.259  0.00  0.00    +0.000 A 
BRANCH  21  28
ATOM     27  C   UNL     1       3.332   3.297  19.883  0.00  0.00    +0.000 C 
ATOM     28  C   UNL     1       2.772   4.059  18.674  0.00  0.00    +0.000 C 
BRANCH  28  29
ATOM     29  N   UNL     1       3.688   3.985  17.545  0.00  0.00    +0.000 N 
ATOM     30  C   UNL     1       5.029   4.304  17.664  0.00  0.00    +0.000 C 
ATOM     31  O   UNL     1       5.546   4.661  18.717  0.00  0.00    +0.000 OA
ATOM     32  H   UNL     1       3.310   3.777  16.638  0.00  0.00    +0.000 HD
BRANCH  30  33
ATOM     33  C   UNL     1       5.868   4.198  16.442  0.00  0.00    +0.000 C 
ATOM     34  C   UNL     1       5.394   4.486  15.041  0.00  0.00    +0.000 C 
ATOM     35  C   UNL     1       6.339   5.438  15.713  0.00  0.00    +0.000 C 
ENDBRANCH  30  33
ENDBRANCH  28  29
ENDBRANCH  21  28
ENDBRANCH  20  24
ENDBRANCH   1  20
TORSDOF 6
ENDMDL
MODEL 6
REMARK VINA RESULT:      -8.1      5.806      9.216
REMARK  Name = 
REMARK  7 active torsions:
REMARK  status: ('A' for Active; 'I' for Inactive)
REMARK    1  A    between atoms: C_1  and  C_2
REMARK    2  A    between atoms: C_2  and  N_3
REMARK    3  A    between atoms: C_2  and  C_9
REMARK    4  A    between atoms: C_4  and  C_6
REMARK    5  A    between atoms: C_12  and  O_13
REMARK    6  A    between atoms: O_13  and  C_14
REMARK    7  A    between atoms: N_17  and  C_18
REMARK                            x       y       z     vdW  Elec       q    Type
REMARK                         _______ _______ _______ _____ _____    ______ ____
ROOT
ATOM      1  C   UNL     1       1.422  13.635  18.223  0.00  0.00    +0.000 C 
ATOM      2  C   UNL     1      -0.091  13.572  18.460  0.00  0.00    +0.000 C 
ATOM      3  C   UNL     1      -0.312  12.580  19.613  0.00  0.00    +0.000 C 
ATOM      4  N   UNL     1       0.839  11.700  19.562  0.00  0.00    +0.000 N 
ATOM      5  C   UNL     1       1.915  12.267  18.748  0.00  0.00    +0.000 C 
ENDROOT
BRANCH   4   6
ATOM      6  C   UNL     1       0.897  10.446  20.159  0.00  0.00    +0.000 A 
ATOM      7  N   UNL     1       1.479   9.400  19.510  0.00  0.00    +0.000 NA
ATOM      8  C   UNL     1       1.582   8.170  20.113  0.00  0.00    +0.000 A 
ATOM      9  N   UNL     1       2.238   7.157  19.463  0.00  0.00    +0.000 N 
ATOM     10  C   UNL     1       2.596   7.347  18.067  0.00  0.00    +0.000 C 
ATOM     11  C   UNL     1       3.400   6.098  17.760  0.00  0.00    +0.000 C 
ATOM     12  C   UNL     1       2.680   5.047  18.559  0.00  0.00    +0.000 C 
ATOM     13  C   UNL     1       2.996   3.629  18.095  0.00  0.00    +0.000 C 
ATOM     14  C   UNL     1       1.593   4.102  18.053  0.00  0.00    +0.000 C 
ATOM     15  C   UNL     1       2.295   5.738  19.874  0.00  0.00    +0.000 C 
ATOM     16  N   UNL     1       1.099   7.924  21.338  0.00  0.00    +0.000 NA
ATOM     17  C   UNL     1       0.514   8.960  21.965  0.00  0.00    +0.000 A 
ATOM     18  C   UNL     1       0.392  10.221  21.436  0.00  0.00    +0.000 A 
ATOM     19  F   UNL     1      -0.199  11.180  22.162  0.00  0.00    +0.000 F 
ENDBRANCH   4   6
BRANCH   1  20
ATOM     20  O   UNL     1       1.985  14.761  18.928  0.00  0.00    +0.000 OA
BRANCH  20  24
ATOM     21  C   UNL     1       6.208  14.995  19.068  0.00  0.00    +0.000 A 
ATOM     22  C   UNL     1       5.495  14.917  17.866  0.00  0.00    +0.000 A 
ATOM     23  C   UNL     1       4.084  14.831  17.855  0.00  0.00    +0.000 A 
ATOM     24  C   UNL     1       3.353  14.804  19.043  0.00  0.00    +0.000 A 
ATOM     25  C   UNL     1       4.056  14.895  20.244  0.00  0.00    +0.000 A 
ATOM     26  C   UNL     1       5.462  15.001  20.254  0.00  0.00    +0.000 A 
BRANCH  21  28
ATOM     27  C   UNL     1       8.269  16.173  18.110  0.00  0.00    +0.000 C 
ATOM     28  C   UNL     1       7.732  15.088  19.053  0.00  0.00    +0.000 C 
BRANCH  28  29
ATOM     29  N   UNL     1       8.313  13.792  18.735  0.00  0.00    +0.000 N 
ATOM     30  C   UNL     1       9.235  13.176  19.562  0.00  0.00    +0.000 C 
ATOM     31  O   UNL     1       9.623  13.662  20.618  0.00  0.00    +0.000 OA
ATOM     32  H   UNL     1       8.098  13.379  17.844  0.00  0.00    +0.000 HD
BRANCH  30  33
ATOM     33  C   UNL     1       9.766  11.856  19.131  0.00  0.00    +0.000 C 
ATOM     34  C   UNL     1      10.483  11.597  17.832  0.00  0.00    +0.000 C 
ATOM     35  C   UNL     1      11.254  11.584  19.119  0.00  0.00    +0.000 C 
ENDBRANCH  30  33
ENDBRANCH  28  29
ENDBRANCH  21  28
ENDBRANCH  20  24
ENDBRANCH   1  20
TORSDOF 6
ENDMDL
MODEL 7
REMARK VINA RESULT:      -8.0      6.350      8.184
REMARK  Name = 
REMARK  7 active torsions:
REMARK  status: ('A' for Active; 'I' for Inactive)
REMARK    1  A    between atoms: C_1  and  C_2
REMARK    2  A    between atoms: C_2  and  N_3
REMARK    3  A    between atoms: C_2  and  C_9
REMARK    4  A    between atoms: C_4  and  C_6
REMARK    5  A    between atoms: C_12  and  O_13
REMARK    6  A    between atoms: O_13  and  C_14
REMARK    7  A    between atoms: N_17  and  C_18
REMARK                            x       y       z     vdW  Elec       q    Type
REMARK                         _______ _______ _______ _____ _____    ______ ____
ROOT
ATOM      1  C   UNL     1       9.287  10.485  17.852  0.00  0.00    +0.000 C 
ATOM      2  C   UNL     1      10.659  11.132  18.073  0.00  0.00    +0.000 C 
ATOM      3  C   UNL     1      10.399  12.482  18.760  0.00  0.00    +0.000 C 
ATOM      4  N   UNL     1       9.056  12.844  18.354  0.00  0.00    +0.000 N 
ATOM      5  C   UNL     1       8.332  11.699  17.801  0.00  0.00    +0.000 C 
ENDROOT
BRANCH   4   6
ATOM      6  C   UNL     1       8.534  14.132  18.422  0.00  0.00    +0.000 A 
ATOM      7  N   UNL     1       7.187  14.329  18.436  0.00  0.00    +0.000 NA
ATOM      8  C   UNL     1       6.664  15.595  18.550  0.00  0.00    +0.000 A 
ATOM      9  N   UNL     1       5.306  15.754  18.635  0.00  0.00    +0.000 N 
ATOM     10  C   UNL     1       4.455  14.607  18.365  0.00  0.00    +0.000 C 
ATOM     11  C   UNL     1       3.071  15.140  18.684  0.00  0.00    +0.000 C 
ATOM     12  C   UNL     1       3.155  16.562  18.203  0.00  0.00    +0.000 C 
ATOM     13  C   UNL     1       1.785  17.199  17.993  0.00  0.00    +0.000 C 
ATOM     14  C   UNL     1       2.711  17.090  16.841  0.00  0.00    +0.000 C 
ATOM     15  C   UNL     1       4.564  17.033  18.586  0.00  0.00    +0.000 C 
ATOM     16  N   UNL     1       7.433  16.689  18.623  0.00  0.00    +0.000 NA
ATOM     17  C   UNL     1       8.763  16.484  18.594  0.00  0.00    +0.000 A 
ATOM     18  C   UNL     1       9.358  15.250  18.502  0.00  0.00    +0.000 A 
ATOM     19  F   UNL     1      10.695  15.168  18.498  0.00  0.00    +0.000 F 
ENDBRANCH   4   6
BRANCH   1  20
ATOM     20  O   UNL     1       8.996   9.566  18.925  0.00  0.00    +0.000 OA
BRANCH  20  24
ATOM     21  C   UNL     1       7.110   5.997  17.656  0.00  0.00    +0.000 A 
ATOM     22  C   UNL     1       6.993   7.203  16.955  0.00  0.00    +0.000 A 
ATOM     23  C   UNL     1       7.630   8.380  17.412  0.00  0.00    +0.000 A 
ATOM     24  C   UNL     1       8.383   8.384  18.586  0.00  0.00    +0.000 A 
ATOM     25  C   UNL     1       8.515   7.183  19.282  0.00  0.00    +0.000 A 
ATOM     26  C   UNL     1       7.896   6.005  18.816  0.00  0.00    +0.000 A 
BRANCH  21  28
ATOM     27  C   UNL     1       6.614   4.501  15.638  0.00  0.00    +0.000 C 
ATOM     28  C   UNL     1       6.414   4.739  17.141  0.00  0.00    +0.000 C 
BRANCH  28  29
ATOM     29  N   UNL     1       4.997   4.774  17.475  0.00  0.00    +0.000 N 
ATOM     30  C   UNL     1       4.482   4.105  18.570  0.00  0.00    +0.000 C 
ATOM     31  O   UNL     1       5.171   3.445  19.341  0.00  0.00    +0.000 OA
ATOM     32  H   UNL     1       4.369   5.230  16.837  0.00  0.00    +0.000 HD
BRANCH  30  33
ATOM     33  C   UNL     1       3.019   4.207  18.809  0.00  0.00    +0.000 C 
ATOM     34  C   UNL     1       1.997   4.569  17.763  0.00  0.00    +0.000 C 
ATOM     35  C   UNL     1       2.069   3.159  18.271  0.00  0.00    +0.000 C 
ENDBRANCH  30  33
ENDBRANCH  28  29
ENDBRANCH  21  28
ENDBRANCH  20  24
ENDBRANCH   1  20
TORSDOF 6
ENDMDL
MODEL 8
REMARK VINA RESULT:      -8.0      6.405      8.313
REMARK  Name = 
REMARK  7 active torsions:
REMARK  status: ('A' for Active; 'I' for Inactive)
REMARK    1  A    between atoms: C_1  and  C_2
REMARK    2  A    between atoms: C_2  and  N_3
REMARK    3  A    between atoms: C_2  and  C_9
REMARK    4  A    between atoms: C_4  and  C_6
REMARK    5  A    between atoms: C_12  and  O_13
REMARK    6  A    between atoms: O_13  and  C_14
REMARK    7  A    between atoms: N_17  and  C_18
REMARK                            x       y       z     vdW  Elec       q    Type
REMARK                         _______ _______ _______ _____ _____    ______ ____
ROOT
ATOM      1  C   UNL     1       9.529  10.599  18.091  0.00  0.00    +0.000 C 
ATOM      2  C   UNL     1      10.785  11.244  18.687  0.00  0.00    +0.000 C 
ATOM      3  C   UNL     1      10.341  12.583  19.296  0.00  0.00    +0.000 C 
ATOM      4  N   UNL     1       9.158  12.950  18.544  0.00  0.00    +0.000 N 
ATOM      5  C   UNL     1       8.618  11.812  17.799  0.00  0.00    +0.000 C 
ENDROOT
BRANCH   4   6
ATOM      6  C   UNL     1       8.630  14.236  18.486  0.00  0.00    +0.000 A 
ATOM      7  N   UNL     1       7.307  14.449  18.723  0.00  0.00    +0.000 NA
ATOM      8  C   UNL     1       6.788  15.722  18.713  0.00  0.00    +0.000 A 
ATOM      9  N   UNL     1       5.468  15.910  19.027  0.00  0.00    +0.000 N 
ATOM     10  C   UNL     1       4.606  14.744  19.129  0.00  0.00    +0.000 C 
ATOM     11  C   UNL     1       3.297  15.342  19.609  0.00  0.00    +0.000 C 
ATOM     12  C   UNL     1       3.257  16.657  18.880  0.00  0.00    +0.000 C 
ATOM     13  C   UNL     1       1.859  17.263  18.829  0.00  0.00    +0.000 C 
ATOM     14  C   UNL     1       2.550  16.944  17.558  0.00  0.00    +0.000 C 
ATOM     15  C   UNL     1       4.703  17.170  18.899  0.00  0.00    +0.000 C 
ATOM     16  N   UNL     1       7.533  16.802  18.445  0.00  0.00    +0.000 NA
ATOM     17  C   UNL     1       8.837  16.579  18.199  0.00  0.00    +0.000 A 
ATOM     18  C   UNL     1       9.430  15.341  18.211  0.00  0.00    +0.000 A 
ATOM     19  F   UNL     1      10.744  15.243  17.966  0.00  0.00    +0.000 F 
ENDBRANCH   4   6
BRANCH   1  20
ATOM     20  O   UNL     1       8.961   9.663  19.031  0.00  0.00    +0.000 OA
BRANCH  20  24
ATOM     21  C   UNL     1       7.159   6.092  17.650  0.00  0.00    +0.000 A 
ATOM     22  C   UNL     1       7.942   6.144  18.810  0.00  0.00    +0.000 A 
ATOM     23  C   UNL     1       8.536   7.353  19.239  0.00  0.00    +0.000 A 
ATOM     24  C   UNL     1       8.379   8.533  18.512  0.00  0.00    +0.000 A 
ATOM     25  C   UNL     1       7.590   8.491  17.363  0.00  0.00    +0.000 A 
ATOM     26  C   UNL     1       6.980   7.291  16.946  0.00  0.00    +0.000 A 
BRANCH  21  28
ATOM     27  C   UNL     1       6.769   4.444  15.730  0.00  0.00    +0.000 C 
ATOM     28  C   UNL     1       6.526   4.775  17.209  0.00  0.00    +0.000 C 
BRANCH  28  29
ATOM     29  N   UNL     1       5.102   4.774  17.511  0.00  0.00    +0.000 N 
ATOM     30  C   UNL     1       4.590   4.160  18.640  0.00  0.00    +0.000 C 
ATOM     31  O   UNL     1       5.287   3.585  19.469  0.00  0.00    +0.000 OA
ATOM     32  H   UNL     1       4.470   5.158  16.831  0.00  0.00    +0.000 HD
BRANCH  30  33
ATOM     33  C   UNL     1       3.119   4.217  18.842  0.00  0.00    +0.000 C 
ATOM     34  C   UNL     1       2.435   4.334  20.180  0.00  0.00    +0.000 C 
ATOM     35  C   UNL     1       2.439   5.508  19.245  0.00  0.00    +0.000 C 
ENDBRANCH  30  33
ENDBRANCH  28  29
ENDBRANCH  21  28
ENDBRANCH  20  24
ENDBRANCH   1  20
TORSDOF 6
ENDMDL
MODEL 9
REMARK VINA RESULT:      -7.9      4.001      6.231
REMARK  Name = 
REMARK  7 active torsions:
REMARK  status: ('A' for Active; 'I' for Inactive)
REMARK    1  A    between atoms: C_1  and  C_2
REMARK    2  A    between atoms: C_2  and  N_3
REMARK    3  A    between atoms: C_2  and  C_9
REMARK    4  A    between atoms: C_4  and  C_6
REMARK    5  A    between atoms: C_12  and  O_13
REMARK    6  A    between atoms: O_13  and  C_14
REMARK    7  A    between atoms: N_17  and  C_18
REMARK                            x       y       z     vdW  Elec       q    Type
REMARK                         _______ _______ _______ _____ _____    ______ ____
ROOT
ATOM      1  C   UNL     1       1.209   9.134  21.761  0.00  0.00    +0.000 C 
ATOM      2  C   UNL     1       0.772   9.342  23.215  0.00  0.00    +0.000 C 
ATOM      3  C   UNL     1      -0.447  10.277  23.175  0.00  0.00    +0.000 C 
ATOM      4  N   UNL     1      -0.287  11.031  21.948  0.00  0.00    +0.000 N 
ATOM      5  C   UNL     1       0.688  10.405  21.053  0.00  0.00    +0.000 C 
ENDROOT
BRANCH   4   6
ATOM      6  C   UNL     1      -0.932  12.232  21.673  0.00  0.00    +0.000 A 
ATOM      7  N   UNL     1      -0.327  13.178  20.904  0.00  0.00    +0.000 NA
ATOM      8  C   UNL     1      -0.977  14.348  20.590  0.00  0.00    +0.000 A 
ATOM      9  N   UNL     1      -0.370  15.249  19.755  0.00  0.00    +0.000 N 
ATOM     10  C   UNL     1       1.031  15.049  19.419  0.00  0.00    +0.000 C 
ATOM     11  C   UNL     1       1.285  16.143  18.400  0.00  0.00    +0.000 C 
ATOM     12  C   UNL     1       0.451  17.277  18.929  0.00  0.00    +0.000 C 
ATOM     13  C   UNL     1       0.859  18.630  18.358  0.00  0.00    +0.000 C 
ATOM     14  C   UNL     1       0.928  18.419  19.823  0.00  0.00    +0.000 C 
ATOM     15  C   UNL     1      -0.834  16.619  19.450  0.00  0.00    +0.000 C 
ATOM     16  N   UNL     1      -2.206  14.632  21.037  0.00  0.00    +0.000 NA
ATOM     17  C   UNL     1      -2.791  13.696  21.807  0.00  0.00    +0.000 A 
ATOM     18  C   UNL     1      -2.213  12.498  22.146  0.00  0.00    +0.000 A 
ATOM     19  F   UNL     1      -2.899  11.634  22.908  0.00  0.00    +0.000 F 
ENDBRANCH   4   6
BRANCH   1  20
ATOM     20  O   UNL     1       0.640   7.912  21.245  0.00  0.00    +0.000 OA
BRANCH  20  24
ATOM     21  C   UNL     1       3.191   5.787  18.622  0.00  0.00    +0.000 A 
ATOM     22  C   UNL     1       2.884   7.141  18.444  0.00  0.00    +0.000 A 
ATOM     23  C   UNL     1       2.021   7.819  19.335  0.00  0.00    +0.000 A 
ATOM     24  C   UNL     1       1.431   7.158  20.413  0.00  0.00    +0.000 A 
ATOM     25  C   UNL     1       1.742   5.812  20.603  0.00  0.00    +0.000 A 
ATOM     26  C   UNL     1       2.619   5.141  19.726  0.00  0.00    +0.000 A 
BRANCH  21  28
ATOM     27  C   UNL     1       4.085   3.547  17.761  0.00  0.00    +0.000 C 
ATOM     28  C   UNL     1       4.128   5.077  17.646  0.00  0.00    +0.000 C 
BRANCH  28  29
ATOM     29  N   UNL     1       5.488   5.570  17.806  0.00  0.00    +0.000 N 
ATOM     30  C   UNL     1       6.078   6.414  16.883  0.00  0.00    +0.000 C 
ATOM     31  O   UNL     1       5.505   6.816  15.876  0.00  0.00    +0.000 OA
ATOM     32  H   UNL     1       6.038   5.212  18.567  0.00  0.00    +0.000 HD
BRANCH  30  33
ATOM     33  C   UNL     1       7.475   6.847  17.146  0.00  0.00    +0.000 C 
ATOM     34  C   UNL     1       7.876   8.209  17.650  0.00  0.00    +0.000 C 
ATOM     35  C   UNL     1       7.981   7.022  18.561  0.00  0.00    +0.000 C 
ENDBRANCH  30  33
ENDBRANCH  28  29
ENDBRANCH  21  28
ENDBRANCH  20  24
ENDBRANCH   1  20
TORSDOF 6
ENDMDL
