MODEL 1
REMARK VINA RESULT:      -7.8      0.000      0.000
REMARK  Name = 
REMARK  6 active torsions:
REMARK  status: ('A' for Active; 'I' for Inactive)
REMARK    1  A    between atoms: C_1  and  C_2
REMARK    2  A    between atoms: C_2  and  S_3
REMARK    3  A    between atoms: C_2  and  C_18
REMARK    4  A    between atoms: S_3  and  C_4
REMARK    5  A    between atoms: C_9  and  C_10
REMARK    6  A    between atoms: C_10  and  C_11
REMARK                            x       y       z     vdW  Elec       q    Type
REMARK                         _______ _______ _______ _____ _____    ______ ____
ROOT
ATOM      1  C   UNL     1       3.473   3.736  17.915  0.00  0.00    +0.000 A 
ATOM      2  N   UNL     1       2.603   2.717  17.907  0.00  0.00    +0.000 NA
ATOM      3  C   UNL     1       1.528   2.844  18.689  0.00  0.00    +0.000 A 
ATOM      4  N   UNL     1       0.602   1.801  18.657  0.00  0.00    +0.000 N 
ATOM      5  C   UNL     1       1.298   3.954  19.468  0.00  0.00    +0.000 A 
ATOM      6  C   UNL     1       2.279   4.924  19.462  0.00  0.00    +0.000 A 
ATOM      7  N   UNL     1       3.373   4.827  18.680  0.00  0.00    +0.000 NA
ATOM      8  H   UNL     1       0.999   1.063  18.078  0.00  0.00    +0.000 HD
ATOM      9  H   UNL     1       0.366   1.468  19.584  0.00  0.00    +0.000 HD
ENDROOT
BRANCH   1  10
ATOM     10  S   UNL     1       4.894   3.660  16.859  0.00  0.00    +0.000 S 
BRANCH  10  12
ATOM     11  C   UNL     1       5.225   5.729  15.030  0.00  0.00    +0.000 C 
ATOM     12  C   UNL     1       5.166   5.452  16.537  0.00  0.00    +0.000 C 
BRANCH  12  13
ATOM     13  C   UNL     1       6.299   6.037  17.370  0.00  0.00    +0.000 A 
ATOM     14  C   UNL     1       6.913   5.327  18.417  0.00  0.00    +0.000 A 
ATOM     15  C   UNL     1       7.947   5.895  19.160  0.00  0.00    +0.000 A 
ATOM     16  C   UNL     1       8.387   7.185  18.876  0.00  0.00    +0.000 A 
ATOM     17  C   UNL     1       7.798   7.906  17.845  0.00  0.00    +0.000 A 
ATOM     18  C   UNL     1       6.771   7.333  17.088  0.00  0.00    +0.000 A 
ENDBRANCH  12  13
ENDBRANCH  10  12
ENDBRANCH   1  10
BRANCH   6  19
ATOM     19  C   UNL     1       2.191   6.130  20.364  0.00  0.00    +0.000 C 
BRANCH  19  20
ATOM     20  C   UNL     1       1.992   7.450  19.658  0.00  0.00    +0.000 A 
ATOM     21  C   UNL     1       2.432   7.618  18.337  0.00  0.00    +0.000 A 
ATOM     22  C   UNL     1       2.180   8.809  17.653  0.00  0.00    +0.000 A 
ATOM     23  C   UNL     1       1.490   9.844  18.281  0.00  0.00    +0.000 A 
ATOM     24  C   UNL     1       1.052   9.692  19.594  0.00  0.00    +0.000 A 
ATOM     25  C   UNL     1       1.300   8.500  20.279  0.00  0.00    +0.000 A 
ENDBRANCH  19  20
ENDBRANCH   6  19
TORSDOF 5
ENDMDL
MODEL 2
REMARK VINA RESULT:      -7.8      2.139      4.971
REMARK  Name = 
REMARK  6 active torsions:
REMARK  status: ('A' for Active; 'I' for Inactive)
REMARK    1  A    between atoms: C_1  and  C_2
REMARK    2  A    between atoms: C_2  and  S_3
REMARK    3  A    between atoms: C_2  and  C_18
REMARK    4  A    between atoms: S_3  and  C_4
REMARK    5  A    between atoms: C_9  and  C_10
REMARK    6  A    between atoms: C_10  and  C_11
REMARK                            x       y       z     vdW  Elec       q    Type
REMARK                         _______ _______ _______ _____ _____    ______ ____
ROOT
ATOM      1  C   UNL     1       3.523   7.317  17.686  0.00  0.00    +0.000 A 
ATOM      2  N   UNL     1       2.896   8.422  17.262  0.00  0.00    +0.000 NA
ATOM      3  C   UNL     1       1.977   8.939  18.083  0.00  0.00    +0.000 A 
ATOM      4  N   UNL     1       1.345  10.109  17.661  0.00  0.00    +0.000 N 
ATOM      5  C   UNL     1       1.674   8.388  19.306  0.00  0.00    +0.000 A 
ATOM      6  C   UNL     1       2.324   7.215  19.631  0.00  0.00    +0.000 A 
ATOM      7  N   UNL     1       3.260   6.671  18.826  0.00  0.00    +0.000 NA
ATOM      8  H   UNL     1       1.664  10.299  16.712  0.00  0.00    +0.000 HD
ATOM      9  H   UNL     1       0.336  10.042  17.714  0.00  0.00    +0.000 HD
ENDROOT
BRANCH   1  10
ATOM     10  S   UNL     1       4.794   6.610  16.673  0.00  0.00    +0.000 S 
BRANCH  10  12
ATOM     11  C   UNL     1       7.175   5.539  17.631  0.00  0.00    +0.000 C 
ATOM     12  C   UNL     1       5.668   5.568  17.914  0.00  0.00    +0.000 C 
BRANCH  12  13
ATOM     13  C   UNL     1       5.000   4.216  18.127  0.00  0.00    +0.000 A 
ATOM     14  C   UNL     1       5.083   3.514  19.343  0.00  0.00    +0.000 A 
ATOM     15  C   UNL     1       4.460   2.277  19.502  0.00  0.00    +0.000 A 
ATOM     16  C   UNL     1       3.745   1.714  18.450  0.00  0.00    +0.000 A 
ATOM     17  C   UNL     1       3.646   2.388  17.239  0.00  0.00    +0.000 A 
ATOM     18  C   UNL     1       4.257   3.636  17.082  0.00  0.00    +0.000 A 
ENDBRANCH  12  13
ENDBRANCH  10  12
ENDBRANCH   1  10
BRANCH   6  19
ATOM     19  C   UNL     1       1.990   6.460  20.894  0.00  0.00    +0.000 C 
BRANCH  19  20
ATOM     20  C   UNL     1       1.728   4.985  20.712  0.00  0.00    +0.000 A 
ATOM     21  C   UNL     1       2.122   4.069  21.698  0.00  0.00    +0.000 A 
ATOM     22  C   UNL     1       1.813   2.714  21.572  0.00  0.00    +0.000 A 
ATOM     23  C   UNL     1       1.107   2.258  20.459  0.00  0.00    +0.000 A 
ATOM     24  C   UNL     1       0.714   3.156  19.470  0.00  0.00    +0.000 A 
ATOM     25  C   UNL     1       1.021   4.512  19.596  0.00  0.00    +0.000 A 
ENDBRANCH  19  20
ENDBRANCH   6  19
TORSDOF 5
ENDMDL
MODEL 3
REMARK VINA RESULT:      -7.8      0.252      1.033
REMARK  Name = 
REMARK  6 active torsions:
REMARK  status: ('A' for Active; 'I' for Inactive)
REMARK    1  A    between atoms: C_1  and  C_2
REMARK    2  A    between atoms: C_2  and  S_3
REMARK    3  A    between atoms: C_2  and  C_18
REMARK    4  A    between atoms: S_3  and  C_4
REMARK    5  A    between atoms: C_9  and  C_10
REMARK    6  A    between atoms: C_10  and  C_11
REMARK                            x       y       z     vdW  Elec       q    Type
REMARK                         _______ _______ _______ _____ _____    ______ ____
ROOT
ATOM      1  C   UNL     1       3.597   3.655  17.781  0.00  0.00    +0.000 A 
ATOM      2  N   UNL     1       2.654   2.704  17.794  0.00  0.00    +0.000 NA
ATOM      3  C   UNL     1       1.610   2.910  18.601  0.00  0.00    +0.000 A 
ATOM      4  N   UNL     1       0.608   1.939  18.592  0.00  0.00    +0.000 N 
ATOM      5  C   UNL     1       1.481   4.034  19.383  0.00  0.00    +0.000 A 
ATOM      6  C   UNL     1       2.531   4.929  19.353  0.00  0.00    +0.000 A 
ATOM      7  N   UNL     1       3.597   4.751  18.546  0.00  0.00    +0.000 NA
ATOM      8  H   UNL     1       0.936   1.173  18.005  0.00  0.00    +0.000 HD
ATOM      9  H   UNL     1       0.370   1.624  19.524  0.00  0.00    +0.000 HD
ENDROOT
BRANCH   1  10
ATOM     10  S   UNL     1       4.983   3.475  16.691  0.00  0.00    +0.000 S 
BRANCH  10  12
ATOM     11  C   UNL     1       5.517   5.410  14.766  0.00  0.00    +0.000 C 
ATOM     12  C   UNL     1       5.314   5.238  16.277  0.00  0.00    +0.000 C 
BRANCH  12  13
ATOM     13  C   UNL     1       6.374   5.867  17.172  0.00  0.00    +0.000 A 
ATOM     14  C   UNL     1       7.040   5.146  18.179  0.00  0.00    +0.000 A 
ATOM     15  C   UNL     1       8.005   5.755  18.980  0.00  0.00    +0.000 A 
ATOM     16  C   UNL     1       8.322   7.097  18.795  0.00  0.00    +0.000 A 
ATOM     17  C   UNL     1       7.680   7.831  17.804  0.00  0.00    +0.000 A 
ATOM     18  C   UNL     1       6.724   7.218  16.989  0.00  0.00    +0.000 A 
ENDBRANCH  12  13
ENDBRANCH  10  12
ENDBRANCH   1  10
BRANCH   6  19
ATOM     19  C   UNL     1       2.553   6.138  20.255  0.00  0.00    +0.000 C 
BRANCH  19  20
ATOM     20  C   UNL     1       2.082   7.424  19.620  0.00  0.00    +0.000 A 
ATOM     21  C   UNL     1       1.315   8.338  20.358  0.00  0.00    +0.000 A 
ATOM     22  C   UNL     1       0.943   9.563  19.802  0.00  0.00    +0.000 A 
ATOM     23  C   UNL     1       1.332   9.888  18.504  0.00  0.00    +0.000 A 
ATOM     24  C   UNL     1       2.089   8.988  17.758  0.00  0.00    +0.000 A 
ATOM     25  C   UNL     1       2.463   7.764  18.313  0.00  0.00    +0.000 A 
ENDBRANCH  19  20
ENDBRANCH   6  19
TORSDOF 5
ENDMDL
MODEL 4
REMARK VINA RESULT:      -7.8      1.765      3.294
REMARK  Name = 
REMARK  6 active torsions:
REMARK  status: ('A' for Active; 'I' for Inactive)
REMARK    1  A    between atoms: C_1  and  C_2
REMARK    2  A    between atoms: C_2  and  S_3
REMARK    3  A    between atoms: C_2  and  C_18
REMARK    4  A    between atoms: S_3  and  C_4
REMARK    5  A    between atoms: C_9  and  C_10
REMARK    6  A    between atoms: C_10  and  C_11
REMARK                            x       y       z     vdW  Elec       q    Type
REMARK                         _______ _______ _______ _____ _____    ______ ____
ROOT
ATOM      1  C   UNL     1       5.020   4.300  17.934  0.00  0.00    +0.000 A 
ATOM      2  N   UNL     1       4.352   3.215  17.520  0.00  0.00    +0.000 NA
ATOM      3  C   UNL     1       3.101   3.077  17.969  0.00  0.00    +0.000 A 
ATOM      4  N   UNL     1       2.389   1.967  17.513  0.00  0.00    +0.000 N 
ATOM      5  C   UNL     1       2.504   3.989  18.808  0.00  0.00    +0.000 A 
ATOM      6  C   UNL     1       3.289   5.040  19.233  0.00  0.00    +0.000 A 
ATOM      7  N   UNL     1       4.553   5.210  18.795  0.00  0.00    +0.000 NA
ATOM      8  H   UNL     1       3.035   1.398  16.967  0.00  0.00    +0.000 HD
ATOM      9  H   UNL     1       1.970   1.441  18.270  0.00  0.00    +0.000 HD
ENDROOT
BRANCH   1  10
ATOM     10  S   UNL     1       6.664   4.576  17.334  0.00  0.00    +0.000 S 
BRANCH  10  12
ATOM     11  C   UNL     1       5.031   6.491  16.150  0.00  0.00    +0.000 C 
ATOM     12  C   UNL     1       6.316   5.689  15.910  0.00  0.00    +0.000 C 
BRANCH  12  13
ATOM     13  C   UNL     1       6.422   4.982  14.565  0.00  0.00    +0.000 A 
ATOM     14  C   UNL     1       5.469   4.046  14.125  0.00  0.00    +0.000 A 
ATOM     15  C   UNL     1       5.599   3.416  12.888  0.00  0.00    +0.000 A 
ATOM     16  C   UNL     1       6.685   3.704  12.067  0.00  0.00    +0.000 A 
ATOM     17  C   UNL     1       7.640   4.626  12.479  0.00  0.00    +0.000 A 
ATOM     18  C   UNL     1       7.504   5.271  13.712  0.00  0.00    +0.000 A 
ENDBRANCH  12  13
ENDBRANCH  10  12
ENDBRANCH   1  10
BRANCH   6  19
ATOM     19  C   UNL     1       2.779   6.037  20.244  0.00  0.00    +0.000 C 
BRANCH  19  20
ATOM     20  C   UNL     1       2.169   7.290  19.663  0.00  0.00    +0.000 A 
ATOM     21  C   UNL     1       1.461   8.179  20.484  0.00  0.00    +0.000 A 
ATOM     22  C   UNL     1       0.962   9.377  19.968  0.00  0.00    +0.000 A 
ATOM     23  C   UNL     1       1.164   9.698  18.628  0.00  0.00    +0.000 A 
ATOM     24  C   UNL     1       1.861   8.822  17.800  0.00  0.00    +0.000 A 
ATOM     25  C   UNL     1       2.362   7.625  18.314  0.00  0.00    +0.000 A 
ENDBRANCH  19  20
ENDBRANCH   6  19
TORSDOF 5
ENDMDL
MODEL 5
REMARK VINA RESULT:      -7.8      2.450      5.118
REMARK  Name = 
REMARK  6 active torsions:
REMARK  status: ('A' for Active; 'I' for Inactive)
REMARK    1  A    between atoms: C_1  and  C_2
REMARK    2  A    between atoms: C_2  and  S_3
REMARK    3  A    between atoms: C_2  and  C_18
REMARK    4  A    between atoms: S_3  and  C_4
REMARK    5  A    between atoms: C_9  and  C_10
REMARK    6  A    between atoms: C_10  and  C_11
REMARK                            x       y       z     vdW  Elec       q    Type
REMARK                         _______ _______ _______ _____ _____    ______ ____
ROOT
ATOM      1  C   UNL     1       4.543   6.825  17.258  0.00  0.00    +0.000 A 
ATOM      2  N   UNL     1       3.919   7.990  17.480  0.00  0.00    +0.000 NA
ATOM      3  C   UNL     1       2.652   7.919  17.897  0.00  0.00    +0.000 A 
ATOM      4  N   UNL     1       2.010   9.128  18.163  0.00  0.00    +0.000 N 
ATOM      5  C   UNL     1       1.999   6.725  18.101  0.00  0.00    +0.000 A 
ATOM      6  C   UNL     1       2.699   5.579  17.786  0.00  0.00    +0.000 A 
ATOM      7  N   UNL     1       3.980   5.617  17.367  0.00  0.00    +0.000 NA
ATOM      8  H   UNL     1       2.644   9.875  17.881  0.00  0.00    +0.000 HD
ATOM      9  H   UNL     1       1.114   9.198  17.697  0.00  0.00    +0.000 HD
ENDROOT
BRANCH   1  10
ATOM     10  S   UNL     1       6.243   6.843  16.758  0.00  0.00    +0.000 S 
BRANCH  10  12
ATOM     11  C   UNL     1       7.575   4.471  17.336  0.00  0.00    +0.000 C 
ATOM     12  C   UNL     1       6.505   5.056  16.404  0.00  0.00    +0.000 C 
BRANCH  12  13
ATOM     13  C   UNL     1       6.679   4.765  14.920  0.00  0.00    +0.000 A 
ATOM     14  C   UNL     1       7.672   5.383  14.139  0.00  0.00    +0.000 A 
ATOM     15  C   UNL     1       7.801   5.093  12.781  0.00  0.00    +0.000 A 
ATOM     16  C   UNL     1       6.939   4.185  12.174  0.00  0.00    +0.000 A 
ATOM     17  C   UNL     1       5.951   3.559  12.925  0.00  0.00    +0.000 A 
ATOM     18  C   UNL     1       5.829   3.836  14.290  0.00  0.00    +0.000 A 
ENDBRANCH  12  13
ENDBRANCH  10  12
ENDBRANCH   1  10
BRANCH   6  19
ATOM     19  C   UNL     1       2.047   4.220  17.860  0.00  0.00    +0.000 C 
BRANCH  19  20
ATOM     20  C   UNL     1       2.130   3.538  19.204  0.00  0.00    +0.000 A 
ATOM     21  C   UNL     1       3.338   2.974  19.638  0.00  0.00    +0.000 A 
ATOM     22  C   UNL     1       3.441   2.412  20.912  0.00  0.00    +0.000 A 
ATOM     23  C   UNL     1       2.339   2.406  21.764  0.00  0.00    +0.000 A 
ATOM     24  C   UNL     1       1.131   2.957  21.344  0.00  0.00    +0.000 A 
ATOM     25  C   UNL     1       1.027   3.522  20.072  0.00  0.00    +0.000 A 
ENDBRANCH  19  20
ENDBRANCH   6  19
TORSDOF 5
ENDMDL
MODEL 6
REMARK VINA RESULT:      -7.8      2.453      5.083
REMARK  Name = 
REMARK  6 active torsions:
REMARK  status: ('A' for Active; 'I' for Inactive)
REMARK    1  A    between atoms: C_1  and  C_2
REMARK    2  A    between atoms: C_2  and  S_3
REMARK    3  A    between atoms: C_2  and  C_18
REMARK    4  A    between atoms: S_3  and  C_4
REMARK    5  A    between atoms: C_9  and  C_10
REMARK    6  A    between atoms: C_10  and  C_11
REMARK                            x       y       z     vdW  Elec       q    Type
REMARK                         _______ _______ _______ _____ _____    ______ ____
ROOT
ATOM      1  C   UNL     1       4.472   6.772  17.208  0.00  0.00    +0.000 A 
ATOM      2  N   UNL     1       3.847   7.931  17.453  0.00  0.00    +0.000 NA
ATOM      3  C   UNL     1       2.594   7.849  17.909  0.00  0.00    +0.000 A 
ATOM      4  N   UNL     1       1.950   9.052  18.199  0.00  0.00    +0.000 N 
ATOM      5  C   UNL     1       1.957   6.649  18.129  0.00  0.00    +0.000 A 
ATOM      6  C   UNL     1       2.656   5.509  17.789  0.00  0.00    +0.000 A 
ATOM      7  N   UNL     1       3.923   5.560  17.331  0.00  0.00    +0.000 NA
ATOM      8  H   UNL     1       2.569   9.805  17.900  0.00  0.00    +0.000 HD
ATOM      9  H   UNL     1       1.040   9.117  17.761  0.00  0.00    +0.000 HD
ENDROOT
BRANCH   1  10
ATOM     10  S   UNL     1       6.156   6.806  16.656  0.00  0.00    +0.000 S 
BRANCH  10  12
ATOM     11  C   UNL     1       7.532   4.464  17.255  0.00  0.00    +0.000 C 
ATOM     12  C   UNL     1       6.436   5.015  16.333  0.00  0.00    +0.000 C 
BRANCH  12  13
ATOM     13  C   UNL     1       6.586   4.697  14.851  0.00  0.00    +0.000 A 
ATOM     14  C   UNL     1       5.757   3.775  14.188  0.00  0.00    +0.000 A 
ATOM     15  C   UNL     1       5.923   3.507  12.830  0.00  0.00    +0.000 A 
ATOM     16  C   UNL     1       6.923   4.151  12.107  0.00  0.00    +0.000 A 
ATOM     17  C   UNL     1       7.753   5.069  12.739  0.00  0.00    +0.000 A 
ATOM     18  C   UNL     1       7.578   5.351  14.097  0.00  0.00    +0.000 A 
ENDBRANCH  12  13
ENDBRANCH  10  12
ENDBRANCH   1  10
BRANCH   6  19
ATOM     19  C   UNL     1       2.017   4.146  17.878  0.00  0.00    +0.000 C 
BRANCH  19  20
ATOM     20  C   UNL     1       2.112   3.477  19.228  0.00  0.00    +0.000 A 
ATOM     21  C   UNL     1       3.325   2.920  19.659  0.00  0.00    +0.000 A 
ATOM     22  C   UNL     1       3.439   2.371  20.937  0.00  0.00    +0.000 A 
ATOM     23  C   UNL     1       2.343   2.371  21.798  0.00  0.00    +0.000 A 
ATOM     24  C   UNL     1       1.131   2.916  21.382  0.00  0.00    +0.000 A 
ATOM     25  C   UNL     1       1.016   3.468  20.105  0.00  0.00    +0.000 A 
ENDBRANCH  19  20
ENDBRANCH   6  19
TORSDOF 5
ENDMDL
MODEL 7
REMARK VINA RESULT:      -7.8      1.766      3.134
REMARK  Name = 
REMARK  6 active torsions:
REMARK  status: ('A' for Active; 'I' for Inactive)
REMARK    1  A    between atoms: C_1  and  C_2
REMARK    2  A    between atoms: C_2  and  S_3
REMARK    3  A    between atoms: C_2  and  C_18
REMARK    4  A    between atoms: S_3  and  C_4
REMARK    5  A    between atoms: C_9  and  C_10
REMARK    6  A    between atoms: C_10  and  C_11
REMARK                            x       y       z     vdW  Elec       q    Type
REMARK                         _______ _______ _______ _____ _____    ______ ____
ROOT
ATOM      1  C   UNL     1       5.017   4.277  17.937  0.00  0.00    +0.000 A 
ATOM      2  N   UNL     1       4.350   3.196  17.511  0.00  0.00    +0.000 NA
ATOM      3  C   UNL     1       3.099   3.053  17.955  0.00  0.00    +0.000 A 
ATOM      4  N   UNL     1       2.388   1.948  17.488  0.00  0.00    +0.000 N 
ATOM      5  C   UNL     1       2.499   3.957  18.802  0.00  0.00    +0.000 A 
ATOM      6  C   UNL     1       3.282   5.005  19.238  0.00  0.00    +0.000 A 
ATOM      7  N   UNL     1       4.548   5.179  18.805  0.00  0.00    +0.000 NA
ATOM      8  H   UNL     1       3.036   1.383  16.938  0.00  0.00    +0.000 HD
ATOM      9  H   UNL     1       1.968   1.414  18.239  0.00  0.00    +0.000 HD
ENDROOT
BRANCH   1  10
ATOM     10  S   UNL     1       6.662   4.560  17.343  0.00  0.00    +0.000 S 
BRANCH  10  12
ATOM     11  C   UNL     1       5.028   6.475  16.161  0.00  0.00    +0.000 C 
ATOM     12  C   UNL     1       6.317   5.678  15.922  0.00  0.00    +0.000 C 
BRANCH  12  13
ATOM     13  C   UNL     1       6.430   4.975  14.575  0.00  0.00    +0.000 A 
ATOM     14  C   UNL     1       5.484   4.035  14.130  0.00  0.00    +0.000 A 
ATOM     15  C   UNL     1       5.620   3.410  12.891  0.00  0.00    +0.000 A 
ATOM     16  C   UNL     1       6.706   3.708  12.073  0.00  0.00    +0.000 A 
ATOM     17  C   UNL     1       7.653   4.636  12.489  0.00  0.00    +0.000 A 
ATOM     18  C   UNL     1       7.510   5.275  13.724  0.00  0.00    +0.000 A 
ENDBRANCH  12  13
ENDBRANCH  10  12
ENDBRANCH   1  10
BRANCH   6  19
ATOM     19  C   UNL     1       2.769   5.993  20.257  0.00  0.00    +0.000 C 
BRANCH  19  20
ATOM     20  C   UNL     1       2.240   7.288  19.689  0.00  0.00    +0.000 A 
ATOM     21  C   UNL     1       2.415   7.588  18.330  0.00  0.00    +0.000 A 
ATOM     22  C   UNL     1       1.860   8.747  17.784  0.00  0.00    +0.000 A 
ATOM     23  C   UNL     1       1.127   9.617  18.588  0.00  0.00    +0.000 A 
ATOM     24  C   UNL     1       0.950   9.334  19.940  0.00  0.00    +0.000 A 
ATOM     25  C   UNL     1       1.503   8.175  20.487  0.00  0.00    +0.000 A 
ENDBRANCH  19  20
ENDBRANCH   6  19
TORSDOF 5
ENDMDL
MODEL 8
REMARK VINA RESULT:      -7.7      1.739      3.165
REMARK  Name = 
REMARK  6 active torsions:
REMARK  status: ('A' for Active; 'I' for Inactive)
REMARK    1  A    between atoms: C_1  and  C_2
REMARK    2  A    between atoms: C_2  and  S_3
REMARK    3  A    between atoms: C_2  and  C_18
REMARK    4  A    between atoms: S_3  and  C_4
REMARK    5  A    between atoms: C_9  and  C_10
REMARK    6  A    between atoms: C_10  and  C_11
REMARK                            x       y       z     vdW  Elec       q    Type
REMARK                         _______ _______ _______ _____ _____    ______ ____
ROOT
ATOM      1  C   UNL     1       4.955   4.331  17.987  0.00  0.00    +0.000 A 
ATOM      2  N   UNL     1       4.313   3.237  17.559  0.00  0.00    +0.000 NA
ATOM      3  C   UNL     1       3.057   3.077  17.983  0.00  0.00    +0.000 A 
ATOM      4  N   UNL     1       2.372   1.956  17.512  0.00  0.00    +0.000 N 
ATOM      5  C   UNL     1       2.429   3.976  18.814  0.00  0.00    +0.000 A 
ATOM      6  C   UNL     1       3.188   5.040  19.256  0.00  0.00    +0.000 A 
ATOM      7  N   UNL     1       4.457   5.231  18.841  0.00  0.00    +0.000 NA
ATOM      8  H   UNL     1       3.038   1.399  16.977  0.00  0.00    +0.000 HD
ATOM      9  H   UNL     1       1.949   1.421  18.260  0.00  0.00    +0.000 HD
ENDROOT
BRANCH   1  10
ATOM     10  S   UNL     1       6.605   4.637  17.418  0.00  0.00    +0.000 S 
BRANCH  10  12
ATOM     11  C   UNL     1       4.958   6.518  16.200  0.00  0.00    +0.000 C 
ATOM     12  C   UNL     1       6.265   5.743  15.986  0.00  0.00    +0.000 C 
BRANCH  12  13
ATOM     13  C   UNL     1       6.414   5.038  14.645  0.00  0.00    +0.000 A 
ATOM     14  C   UNL     1       7.504   5.268  13.786  0.00  0.00    +0.000 A 
ATOM     15  C   UNL     1       7.607   4.605  12.564  0.00  0.00    +0.000 A 
ATOM     16  C   UNL     1       6.623   3.703  12.172  0.00  0.00    +0.000 A 
ATOM     17  C   UNL     1       5.537   3.457  13.003  0.00  0.00    +0.000 A 
ATOM     18  C   UNL     1       5.439   4.108  14.236  0.00  0.00    +0.000 A 
ENDBRANCH  12  13
ENDBRANCH  10  12
ENDBRANCH   1  10
BRANCH   6  19
ATOM     19  C   UNL     1       2.643   6.025  20.259  0.00  0.00    +0.000 C 
BRANCH  19  20
ATOM     20  C   UNL     1       2.166   7.336  19.681  0.00  0.00    +0.000 A 
ATOM     21  C   UNL     1       2.342   7.614  18.318  0.00  0.00    +0.000 A 
ATOM     22  C   UNL     1       1.833   8.789  17.763  0.00  0.00    +0.000 A 
ATOM     23  C   UNL     1       1.146   9.700  18.563  0.00  0.00    +0.000 A 
ATOM     24  C   UNL     1       0.969   9.439  19.920  0.00  0.00    +0.000 A 
ATOM     25  C   UNL     1       1.475   8.263  20.476  0.00  0.00    +0.000 A 
ENDBRANCH  19  20
ENDBRANCH   6  19
TORSDOF 5
ENDMDL
MODEL 9
REMARK VINA RESULT:      -7.7      0.131      1.011
REMARK  Name = 
REMARK  6 active torsions:
REMARK  status: ('A' for Active; 'I' for Inactive)
REMARK    1  A    between atoms: C_1  and  C_2
REMARK    2  A    between atoms: C_2  and  S_3
REMARK    3  A    between atoms: C_2  and  C_18
REMARK    4  A    between atoms: S_3  and  C_4
REMARK    5  A    between atoms: C_9  and  C_10
REMARK    6  A    between atoms: C_10  and  C_11
REMARK                            x       y       z     vdW  Elec       q    Type
REMARK                         _______ _______ _______ _____ _____    ______ ____
ROOT
ATOM      1  C   UNL     1       3.505   3.824  17.838  0.00  0.00    +0.000 A 
ATOM      2  N   UNL     1       2.679   2.770  17.847  0.00  0.00    +0.000 NA
ATOM      3  C   UNL     1       1.623   2.846  18.662  0.00  0.00    +0.000 A 
ATOM      4  N   UNL     1       0.741   1.766  18.650  0.00  0.00    +0.000 N 
ATOM      5  C   UNL     1       1.372   3.940  19.458  0.00  0.00    +0.000 A 
ATOM      6  C   UNL     1       2.310   4.950  19.430  0.00  0.00    +0.000 A 
ATOM      7  N   UNL     1       3.383   4.905  18.615  0.00  0.00    +0.000 NA
ATOM      8  H   UNL     1       1.150   1.048  18.052  0.00  0.00    +0.000 HD
ATOM      9  H   UNL     1       0.548   1.415  19.580  0.00  0.00    +0.000 HD
ENDROOT
BRANCH   1  10
ATOM     10  S   UNL     1       4.894   3.816  16.738  0.00  0.00    +0.000 S 
BRANCH  10  12
ATOM     11  C   UNL     1       5.209   6.004  15.049  0.00  0.00    +0.000 C 
ATOM     12  C   UNL     1       5.170   5.625  16.536  0.00  0.00    +0.000 C 
BRANCH  12  13
ATOM     13  C   UNL     1       6.317   6.148  17.390  0.00  0.00    +0.000 A 
ATOM     14  C   UNL     1       6.897   7.412  17.186  0.00  0.00    +0.000 A 
ATOM     15  C   UNL     1       7.947   7.859  17.988  0.00  0.00    +0.000 A 
ATOM     16  C   UNL     1       8.443   7.050  19.006  0.00  0.00    +0.000 A 
ATOM     17  C   UNL     1       7.885   5.797  19.229  0.00  0.00    +0.000 A 
ATOM     18  C   UNL     1       6.821   5.354  18.437  0.00  0.00    +0.000 A 
ENDBRANCH  12  13
ENDBRANCH  10  12
ENDBRANCH   1  10
BRANCH   6  19
ATOM     19  C   UNL     1       2.199   6.145  20.345  0.00  0.00    +0.000 C 
BRANCH  19  20
ATOM     20  C   UNL     1       1.987   7.469  19.652  0.00  0.00    +0.000 A 
ATOM     21  C   UNL     1       2.380   7.640  18.317  0.00  0.00    +0.000 A 
ATOM     22  C   UNL     1       2.115   8.836  17.648  0.00  0.00    +0.000 A 
ATOM     23  C   UNL     1       1.458   9.874  18.304  0.00  0.00    +0.000 A 
ATOM     24  C   UNL     1       1.067   9.720  19.632  0.00  0.00    +0.000 A 
ATOM     25  C   UNL     1       1.328   8.523  20.302  0.00  0.00    +0.000 A 
ENDBRANCH  19  20
ENDBRANCH   6  19
TORSDOF 5
ENDMDL
