MODEL 1
REMARK VINA RESULT:      -8.7      0.000      0.000
REMARK  Name = 
REMARK  8 active torsions:
REMARK  status: ('A' for Active; 'I' for Inactive)
REMARK    1  A    between atoms: C_1  and  O_2
REMARK    2  A    between atoms: O_2  and  C_3
REMARK    3  A    between atoms: C_7  and  O_8
REMARK    4  A    between atoms: C_9  and  C_10
REMARK    5  A    between atoms: N_12  and  C_13
REMARK    6  A    between atoms: C_13  and  C_14
REMARK    7  A    between atoms: C_14  and  C_15
REMARK    8  A    between atoms: C_14  and  C_21
REMARK                            x       y       z     vdW  Elec       q    Type
REMARK                         _______ _______ _______ _____ _____    ______ ____
ROOT
ATOM      1  C   UNL     1       2.760   3.693  17.616  0.00  0.00    +0.000 C 
ATOM      2  O   UNL     1       2.119   3.055  16.791  0.00  0.00    +0.000 OA
ATOM      3  N   UNL     1       3.849   4.464  17.239  0.00  0.00    +0.000 N 
ATOM      4  H   UNL     1       4.479   4.716  17.995  0.00  0.00    +0.000 HD
ENDROOT
BRANCH   1  10
ATOM      5  C   UNL     1       2.632   4.724  20.007  0.00  0.00    +0.000 A 
ATOM      6  C   UNL     1       2.291   4.538  21.370  0.00  0.00    +0.000 A 
ATOM      7  C   UNL     1       1.786   3.343  21.865  0.00  0.00    +0.000 A 
ATOM      8  C   UNL     1       1.599   2.287  20.998  0.00  0.00    +0.000 A 
ATOM      9  C   UNL     1       1.920   2.442  19.643  0.00  0.00    +0.000 A 
ATOM     10  C   UNL     1       2.449   3.653  19.103  0.00  0.00    +0.000 A 
BRANCH   5  12
ATOM     11  C   UNL     1       2.435   7.077  19.334  0.00  0.00    +0.000 C 
ATOM     12  O   UNL     1       3.133   5.988  19.893  0.00  0.00    +0.000 OA
ENDBRANCH   5  12
BRANCH   9  13
ATOM     13  O   UNL     1       1.698   1.343  18.839  0.00  0.00    +0.000 OA
ATOM     14  H   UNL     1       1.705   0.539  19.387  0.00  0.00    +0.000 HD
ENDBRANCH   9  13
ENDBRANCH   1  10
BRANCH   3  15
ATOM     15  C   UNL     1       4.417   4.508  15.895  0.00  0.00    +0.000 C 
BRANCH  15  16
ATOM     16  C   UNL     1       5.950   4.302  15.826  0.00  0.00    +0.000 C 
BRANCH  16  17
ATOM     17  C   UNL     1       6.508   4.385  14.404  0.00  0.00    +0.000 A 
ATOM     18  C   UNL     1       7.511   5.292  14.025  0.00  0.00    +0.000 A 
ATOM     19  C   UNL     1       7.976   5.335  12.705  0.00  0.00    +0.000 A 
ATOM     20  C   UNL     1       7.438   4.483  11.745  0.00  0.00    +0.000 A 
ATOM     21  C   UNL     1       6.436   3.585  12.100  0.00  0.00    +0.000 A 
ATOM     22  C   UNL     1       5.977   3.535  13.418  0.00  0.00    +0.000 A 
ENDBRANCH  16  17
BRANCH  16  23
ATOM     23  C   UNL     1       6.699   5.181  16.833  0.00  0.00    +0.000 A 
ATOM     24  C   UNL     1       6.670   6.577  16.669  0.00  0.00    +0.000 A 
ATOM     25  C   UNL     1       7.351   7.425  17.546  0.00  0.00    +0.000 A 
ATOM     26  C   UNL     1       8.065   6.894  18.614  0.00  0.00    +0.000 A 
ATOM     27  C   UNL     1       8.107   5.513  18.797  0.00  0.00    +0.000 A 
ATOM     28  C   UNL     1       7.435   4.663  17.910  0.00  0.00    +0.000 A 
ENDBRANCH  16  23
ENDBRANCH  15  16
ENDBRANCH   3  15
TORSDOF 7
ENDMDL
MODEL 2
REMARK VINA RESULT:      -8.4      3.558      6.637
REMARK  Name = 
REMARK  8 active torsions:
REMARK  status: ('A' for Active; 'I' for Inactive)
REMARK    1  A    between atoms: C_1  and  O_2
REMARK    2  A    between atoms: O_2  and  C_3
REMARK    3  A    between atoms: C_7  and  O_8
REMARK    4  A    between atoms: C_9  and  C_10
REMARK    5  A    between atoms: N_12  and  C_13
REMARK    6  A    between atoms: C_13  and  C_14
REMARK    7  A    between atoms: C_14  and  C_15
REMARK    8  A    between atoms: C_14  and  C_21
REMARK                            x       y       z     vdW  Elec       q    Type
REMARK                         _______ _______ _______ _____ _____    ______ ____
ROOT
ATOM      1  C   UNL     1       1.087   8.589  20.674  0.00  0.00    +0.000 C 
ATOM      2  O   UNL     1       1.271   7.946  21.699  0.00  0.00    +0.000 OA
ATOM      3  N   UNL     1       1.770   8.288  19.506  0.00  0.00    +0.000 N 
ATOM      4  H   UNL     1       1.778   9.028  18.810  0.00  0.00    +0.000 HD
ENDROOT
BRANCH   1  10
ATOM      5  C   UNL     1      -0.521  10.239  19.455  0.00  0.00    +0.000 A 
ATOM      6  C   UNL     1      -1.373  11.367  19.555  0.00  0.00    +0.000 A 
ATOM      7  C   UNL     1      -1.582  12.053  20.745  0.00  0.00    +0.000 A 
ATOM      8  C   UNL     1      -0.939  11.619  21.886  0.00  0.00    +0.000 A 
ATOM      9  C   UNL     1      -0.096  10.503  21.822  0.00  0.00    +0.000 A 
ATOM     10  C   UNL     1       0.147   9.781  20.613  0.00  0.00    +0.000 A 
BRANCH   5  12
ATOM     11  C   UNL     1      -1.620   9.990  17.275  0.00  0.00    +0.000 C 
ATOM     12  O   UNL     1      -0.520   9.858  18.146  0.00  0.00    +0.000 OA
ENDBRANCH   5  12
BRANCH   9  13
ATOM     13  O   UNL     1       0.503  10.128  23.006  0.00  0.00    +0.000 OA
ATOM     14  H   UNL     1       1.438   9.913  22.838  0.00  0.00    +0.000 HD
ENDBRANCH   9  13
ENDBRANCH   1  10
BRANCH   3  15
ATOM     15  C   UNL     1       2.836   7.297  19.392  0.00  0.00    +0.000 C 
BRANCH  15  16
ATOM     16  C   UNL     1       2.494   6.066  18.518  0.00  0.00    +0.000 C 
BRANCH  16  17
ATOM     17  C   UNL     1       3.587   5.720  17.504  0.00  0.00    +0.000 A 
ATOM     18  C   UNL     1       3.922   4.402  17.155  0.00  0.00    +0.000 A 
ATOM     19  C   UNL     1       4.941   4.143  16.231  0.00  0.00    +0.000 A 
ATOM     20  C   UNL     1       5.646   5.195  15.652  0.00  0.00    +0.000 A 
ATOM     21  C   UNL     1       5.334   6.508  15.994  0.00  0.00    +0.000 A 
ATOM     22  C   UNL     1       4.313   6.767  16.910  0.00  0.00    +0.000 A 
ENDBRANCH  16  17
BRANCH  16  23
ATOM     23  C   UNL     1       2.035   4.868  19.358  0.00  0.00    +0.000 A 
ATOM     24  C   UNL     1       2.459   4.775  20.695  0.00  0.00    +0.000 A 
ATOM     25  C   UNL     1       2.086   3.696  21.501  0.00  0.00    +0.000 A 
ATOM     26  C   UNL     1       1.271   2.693  20.987  0.00  0.00    +0.000 A 
ATOM     27  C   UNL     1       0.838   2.765  19.665  0.00  0.00    +0.000 A 
ATOM     28  C   UNL     1       1.222   3.841  18.854  0.00  0.00    +0.000 A 
ENDBRANCH  16  23
ENDBRANCH  15  16
ENDBRANCH   3  15
TORSDOF 7
ENDMDL
MODEL 3
REMARK VINA RESULT:      -8.3      3.615      6.515
REMARK  Name = 
REMARK  8 active torsions:
REMARK  status: ('A' for Active; 'I' for Inactive)
REMARK    1  A    between atoms: C_1  and  O_2
REMARK    2  A    between atoms: O_2  and  C_3
REMARK    3  A    between atoms: C_7  and  O_8
REMARK    4  A    between atoms: C_9  and  C_10
REMARK    5  A    between atoms: N_12  and  C_13
REMARK    6  A    between atoms: C_13  and  C_14
REMARK    7  A    between atoms: C_14  and  C_15
REMARK    8  A    between atoms: C_14  and  C_21
REMARK                            x       y       z     vdW  Elec       q    Type
REMARK                         _______ _______ _______ _____ _____    ______ ____
ROOT
ATOM      1  C   UNL     1       1.052   9.348  19.020  0.00  0.00    +0.000 C 
ATOM      2  O   UNL     1       0.643   9.544  17.883  0.00  0.00    +0.000 OA
ATOM      3  N   UNL     1       2.057   8.427  19.273  0.00  0.00    +0.000 N 
ATOM      4  H   UNL     1       2.128   8.124  20.240  0.00  0.00    +0.000 HD
ENDROOT
BRANCH   1  10
ATOM      5  C   UNL     1       0.248  11.443  20.347  0.00  0.00    +0.000 A 
ATOM      6  C   UNL     1      -0.314  11.953  21.544  0.00  0.00    +0.000 A 
ATOM      7  C   UNL     1      -0.659  11.147  22.621  0.00  0.00    +0.000 A 
ATOM      8  C   UNL     1      -0.456   9.786  22.526  0.00  0.00    +0.000 A 
ATOM      9  C   UNL     1       0.090   9.249  21.353  0.00  0.00    +0.000 A 
ATOM     10  C   UNL     1       0.465  10.051  20.233  0.00  0.00    +0.000 A 
BRANCH   5  12
ATOM     11  C   UNL     1      -0.367  12.976  18.532  0.00  0.00    +0.000 C 
ATOM     12  O   UNL     1       0.502  12.513  19.540  0.00  0.00    +0.000 OA
ENDBRANCH   5  12
BRANCH   9  13
ATOM     13  O   UNL     1       0.255   7.880  21.334  0.00  0.00    +0.000 OA
ATOM     14  H   UNL     1      -0.207   7.512  20.561  0.00  0.00    +0.000 HD
ENDBRANCH   9  13
ENDBRANCH   1  10
BRANCH   3  15
ATOM     15  C   UNL     1       2.637   7.528  18.280  0.00  0.00    +0.000 C 
BRANCH  15  16
ATOM     16  C   UNL     1       3.379   6.301  18.862  0.00  0.00    +0.000 C 
BRANCH  16  17
ATOM     17  C   UNL     1       2.451   5.128  19.183  0.00  0.00    +0.000 A 
ATOM     18  C   UNL     1       2.021   4.821  20.484  0.00  0.00    +0.000 A 
ATOM     19  C   UNL     1       1.182   3.726  20.721  0.00  0.00    +0.000 A 
ATOM     20  C   UNL     1       0.771   2.917  19.666  0.00  0.00    +0.000 A 
ATOM     21  C   UNL     1       1.195   3.199  18.371  0.00  0.00    +0.000 A 
ATOM     22  C   UNL     1       2.026   4.295  18.132  0.00  0.00    +0.000 A 
ENDBRANCH  16  17
BRANCH  16  23
ATOM     23  C   UNL     1       4.598   5.907  18.020  0.00  0.00    +0.000 A 
ATOM     24  C   UNL     1       4.656   6.320  16.677  0.00  0.00    +0.000 A 
ATOM     25  C   UNL     1       5.734   5.974  15.858  0.00  0.00    +0.000 A 
ATOM     26  C   UNL     1       6.783   5.217  16.370  0.00  0.00    +0.000 A 
ATOM     27  C   UNL     1       6.746   4.798  17.698  0.00  0.00    +0.000 A 
ATOM     28  C   UNL     1       5.659   5.134  18.516  0.00  0.00    +0.000 A 
ENDBRANCH  16  23
ENDBRANCH  15  16
ENDBRANCH   3  15
TORSDOF 7
ENDMDL
MODEL 4
REMARK VINA RESULT:      -8.3      3.604      6.773
REMARK  Name = 
REMARK  8 active torsions:
REMARK  status: ('A' for Active; 'I' for Inactive)
REMARK    1  A    between atoms: C_1  and  O_2
REMARK    2  A    between atoms: O_2  and  C_3
REMARK    3  A    between atoms: C_7  and  O_8
REMARK    4  A    between atoms: C_9  and  C_10
REMARK    5  A    between atoms: N_12  and  C_13
REMARK    6  A    between atoms: C_13  and  C_14
REMARK    7  A    between atoms: C_14  and  C_15
REMARK    8  A    between atoms: C_14  and  C_21
REMARK                            x       y       z     vdW  Elec       q    Type
REMARK                         _______ _______ _______ _____ _____    ______ ____
ROOT
ATOM      1  C   UNL     1       1.461   9.716  18.423  0.00  0.00    +0.000 C 
ATOM      2  O   UNL     1       1.960  10.249  17.442  0.00  0.00    +0.000 OA
ATOM      3  N   UNL     1       1.767   8.408  18.764  0.00  0.00    +0.000 N 
ATOM      4  H   UNL     1       1.109   7.964  19.398  0.00  0.00    +0.000 HD
ENDROOT
BRANCH   1  10
ATOM      5  C   UNL     1       0.557  10.599  20.704  0.00  0.00    +0.000 A 
ATOM      6  C   UNL     1      -0.476  11.280  21.394  0.00  0.00    +0.000 A 
ATOM      7  C   UNL     1      -1.607  11.780  20.760  0.00  0.00    +0.000 A 
ATOM      8  C   UNL     1      -1.734  11.614  19.397  0.00  0.00    +0.000 A 
ATOM      9  C   UNL     1      -0.727  10.951  18.684  0.00  0.00    +0.000 A 
ATOM     10  C   UNL     1       0.443  10.418  19.307  0.00  0.00    +0.000 A 
BRANCH   5  12
ATOM     11  C   UNL     1       1.352   9.067  22.449  0.00  0.00    +0.000 C 
ATOM     12  O   UNL     1       1.472  10.214  21.639  0.00  0.00    +0.000 OA
ENDBRANCH   5  12
BRANCH   9  13
ATOM     13  O   UNL     1      -0.925  10.833  17.324  0.00  0.00    +0.000 OA
ATOM     14  H   UNL     1      -1.755  10.350  17.163  0.00  0.00    +0.000 HD
ENDBRANCH   9  13
ENDBRANCH   1  10
BRANCH   3  15
ATOM     15  C   UNL     1       2.586   7.504  17.961  0.00  0.00    +0.000 C 
BRANCH  15  16
ATOM     16  C   UNL     1       3.319   6.400  18.759  0.00  0.00    +0.000 C 
BRANCH  16  17
ATOM     17  C   UNL     1       2.432   5.197  19.084  0.00  0.00    +0.000 A 
ATOM     18  C   UNL     1       1.962   4.303  18.108  0.00  0.00    +0.000 A 
ATOM     19  C   UNL     1       1.139   3.226  18.460  0.00  0.00    +0.000 A 
ATOM     20  C   UNL     1       0.768   3.033  19.788  0.00  0.00    +0.000 A 
ATOM     21  C   UNL     1       1.216   3.914  20.767  0.00  0.00    +0.000 A 
ATOM     22  C   UNL     1       2.041   4.984  20.418  0.00  0.00    +0.000 A 
ENDBRANCH  16  17
BRANCH  16  23
ATOM     23  C   UNL     1       4.661   6.020  18.124  0.00  0.00    +0.000 A 
ATOM     24  C   UNL     1       5.667   5.472  18.939  0.00  0.00    +0.000 A 
ATOM     25  C   UNL     1       6.916   5.125  18.416  0.00  0.00    +0.000 A 
ATOM     26  C   UNL     1       7.179   5.310  17.063  0.00  0.00    +0.000 A 
ATOM     27  C   UNL     1       6.197   5.850  16.236  0.00  0.00    +0.000 A 
ATOM     28  C   UNL     1       4.950   6.209  16.763  0.00  0.00    +0.000 A 
ENDBRANCH  16  23
ENDBRANCH  15  16
ENDBRANCH   3  15
TORSDOF 7
ENDMDL
MODEL 5
REMARK VINA RESULT:      -8.3      3.515      6.494
REMARK  Name = 
REMARK  8 active torsions:
REMARK  status: ('A' for Active; 'I' for Inactive)
REMARK    1  A    between atoms: C_1  and  O_2
REMARK    2  A    between atoms: O_2  and  C_3
REMARK    3  A    between atoms: C_7  and  O_8
REMARK    4  A    between atoms: C_9  and  C_10
REMARK    5  A    between atoms: N_12  and  C_13
REMARK    6  A    between atoms: C_13  and  C_14
REMARK    7  A    between atoms: C_14  and  C_15
REMARK    8  A    between atoms: C_14  and  C_21
REMARK                            x       y       z     vdW  Elec       q    Type
REMARK                         _______ _______ _______ _____ _____    ______ ____
ROOT
ATOM      1  C   UNL     1       1.111   9.278  19.068  0.00  0.00    +0.000 C 
ATOM      2  O   UNL     1       0.735   9.514  17.929  0.00  0.00    +0.000 OA
ATOM      3  N   UNL     1       2.088   8.326  19.319  0.00  0.00    +0.000 N 
ATOM      4  H   UNL     1       2.129   7.995  20.278  0.00  0.00    +0.000 HD
ENDROOT
BRANCH   1  10
ATOM      5  C   UNL     1       0.340  11.356  20.441  0.00  0.00    +0.000 A 
ATOM      6  C   UNL     1      -0.239  11.847  21.637  0.00  0.00    +0.000 A 
ATOM      7  C   UNL     1      -0.642  11.019  22.677  0.00  0.00    +0.000 A 
ATOM      8  C   UNL     1      -0.482   9.656  22.544  0.00  0.00    +0.000 A 
ATOM      9  C   UNL     1       0.080   9.138  21.370  0.00  0.00    +0.000 A 
ATOM     10  C   UNL     1       0.514   9.962  20.287  0.00  0.00    +0.000 A 
BRANCH   5  12
ATOM     11  C   UNL     1       1.963  12.906  19.448  0.00  0.00    +0.000 C 
ATOM     12  O   UNL     1       0.653  12.441  19.677  0.00  0.00    +0.000 OA
ENDBRANCH   5  12
BRANCH   9  13
ATOM     13  O   UNL     1       0.199   7.765  21.311  0.00  0.00    +0.000 OA
ATOM     14  H   UNL     1       0.023   7.467  20.401  0.00  0.00    +0.000 HD
ENDBRANCH   9  13
ENDBRANCH   1  10
BRANCH   3  15
ATOM     15  C   UNL     1       2.669   7.440  18.315  0.00  0.00    +0.000 C 
BRANCH  15  16
ATOM     16  C   UNL     1       3.407   6.203  18.881  0.00  0.00    +0.000 C 
BRANCH  16  17
ATOM     17  C   UNL     1       2.475   5.030  19.190  0.00  0.00    +0.000 A 
ATOM     18  C   UNL     1       2.026   4.726  20.486  0.00  0.00    +0.000 A 
ATOM     19  C   UNL     1       1.185   3.631  20.713  0.00  0.00    +0.000 A 
ATOM     20  C   UNL     1       0.788   2.820  19.654  0.00  0.00    +0.000 A 
ATOM     21  C   UNL     1       1.232   3.100  18.365  0.00  0.00    +0.000 A 
ATOM     22  C   UNL     1       2.065   4.196  18.135  0.00  0.00    +0.000 A 
ENDBRANCH  16  17
BRANCH  16  23
ATOM     23  C   UNL     1       4.623   5.814  18.031  0.00  0.00    +0.000 A 
ATOM     24  C   UNL     1       5.674   5.103  18.635  0.00  0.00    +0.000 A 
ATOM     25  C   UNL     1       6.813   4.740  17.913  0.00  0.00    +0.000 A 
ATOM     26  C   UNL     1       6.919   5.072  16.567  0.00  0.00    +0.000 A 
ATOM     27  C   UNL     1       5.889   5.776  15.947  0.00  0.00    +0.000 A 
ATOM     28  C   UNL     1       4.752   6.150  16.675  0.00  0.00    +0.000 A 
ENDBRANCH  16  23
ENDBRANCH  15  16
ENDBRANCH   3  15
TORSDOF 7
ENDMDL
MODEL 6
REMARK VINA RESULT:      -8.2      3.582      6.682
REMARK  Name = 
REMARK  8 active torsions:
REMARK  status: ('A' for Active; 'I' for Inactive)
REMARK    1  A    between atoms: C_1  and  O_2
REMARK    2  A    between atoms: O_2  and  C_3
REMARK    3  A    between atoms: C_7  and  O_8
REMARK    4  A    between atoms: C_9  and  C_10
REMARK    5  A    between atoms: N_12  and  C_13
REMARK    6  A    between atoms: C_13  and  C_14
REMARK    7  A    between atoms: C_14  and  C_15
REMARK    8  A    between atoms: C_14  and  C_21
REMARK                            x       y       z     vdW  Elec       q    Type
REMARK                         _______ _______ _______ _____ _____    ______ ____
ROOT
ATOM      1  C   UNL     1       1.438   9.603  18.517  0.00  0.00    +0.000 C 
ATOM      2  O   UNL     1       1.844  10.097  17.474  0.00  0.00    +0.000 OA
ATOM      3  N   UNL     1       1.819   8.328  18.904  0.00  0.00    +0.000 N 
ATOM      4  H   UNL     1       1.226   7.897  19.608  0.00  0.00    +0.000 HD
ENDROOT
BRANCH   1  10
ATOM      5  C   UNL     1       0.551  10.378  20.843  0.00  0.00    +0.000 A 
ATOM      6  C   UNL     1      -0.440  11.088  21.566  0.00  0.00    +0.000 A 
ATOM      7  C   UNL     1      -1.509  11.729  20.952  0.00  0.00    +0.000 A 
ATOM      8  C   UNL     1      -1.614  11.682  19.578  0.00  0.00    +0.000 A 
ATOM      9  C   UNL     1      -0.647  10.994  18.834  0.00  0.00    +0.000 A 
ATOM     10  C   UNL     1       0.458  10.317  19.434  0.00  0.00    +0.000 A 
BRANCH   5  12
ATOM     11  C   UNL     1       1.020   9.371  23.032  0.00  0.00    +0.000 C 
ATOM     12  O   UNL     1       1.406   9.845  21.762  0.00  0.00    +0.000 OA
ENDBRANCH   5  12
BRANCH   9  13
ATOM     13  O   UNL     1      -0.819  11.000  17.465  0.00  0.00    +0.000 OA
ATOM     14  H   UNL     1      -1.293  10.192  17.199  0.00  0.00    +0.000 HD
ENDBRANCH   9  13
ENDBRANCH   1  10
BRANCH   3  15
ATOM     15  C   UNL     1       2.613   7.410  18.093  0.00  0.00    +0.000 C 
BRANCH  15  16
ATOM     16  C   UNL     1       3.337   6.294  18.884  0.00  0.00    +0.000 C 
BRANCH  16  17
ATOM     17  C   UNL     1       2.434   5.104  19.217  0.00  0.00    +0.000 A 
ATOM     18  C   UNL     1       2.070   4.760  20.528  0.00  0.00    +0.000 A 
ATOM     19  C   UNL     1       1.252   3.650  20.776  0.00  0.00    +0.000 A 
ATOM     20  C   UNL     1       0.797   2.866  19.720  0.00  0.00    +0.000 A 
ATOM     21  C   UNL     1       1.156   3.187  18.414  0.00  0.00    +0.000 A 
ATOM     22  C   UNL     1       1.966   4.297  18.166  0.00  0.00    +0.000 A 
ENDBRANCH  16  17
BRANCH  16  23
ATOM     23  C   UNL     1       4.667   5.894  18.236  0.00  0.00    +0.000 A 
ATOM     24  C   UNL     1       4.899   6.238  16.893  0.00  0.00    +0.000 A 
ATOM     25  C   UNL     1       6.085   5.882  16.247  0.00  0.00    +0.000 A 
ATOM     26  C   UNL     1       7.071   5.183  16.936  0.00  0.00    +0.000 A 
ATOM     27  C   UNL     1       6.863   4.832  18.268  0.00  0.00    +0.000 A 
ATOM     28  C   UNL     1       5.668   5.178  18.912  0.00  0.00    +0.000 A 
ENDBRANCH  16  23
ENDBRANCH  15  16
ENDBRANCH   3  15
TORSDOF 7
ENDMDL
MODEL 7
REMARK VINA RESULT:      -8.2      3.568      6.650
REMARK  Name = 
REMARK  8 active torsions:
REMARK  status: ('A' for Active; 'I' for Inactive)
REMARK    1  A    between atoms: C_1  and  O_2
REMARK    2  A    between atoms: O_2  and  C_3
REMARK    3  A    between atoms: C_7  and  O_8
REMARK    4  A    between atoms: C_9  and  C_10
REMARK    5  A    between atoms: N_12  and  C_13
REMARK    6  A    between atoms: C_13  and  C_14
REMARK    7  A    between atoms: C_14  and  C_15
REMARK    8  A    between atoms: C_14  and  C_21
REMARK                            x       y       z     vdW  Elec       q    Type
REMARK                         _______ _______ _______ _____ _____    ______ ____
ROOT
ATOM      1  C   UNL     1       1.483   9.441  19.246  0.00  0.00    +0.000 C 
ATOM      2  O   UNL     1       1.821  10.100  18.272  0.00  0.00    +0.000 OA
ATOM      3  N   UNL     1       1.861   8.114  19.380  0.00  0.00    +0.000 N 
ATOM      4  H   UNL     1       1.313   7.577  20.046  0.00  0.00    +0.000 HD
ENDROOT
BRANCH   1  10
ATOM      5  C   UNL     1      -0.433  10.952  20.163  0.00  0.00    +0.000 A 
ATOM      6  C   UNL     1      -1.182  11.377  21.289  0.00  0.00    +0.000 A 
ATOM      7  C   UNL     1      -0.950  10.904  22.573  0.00  0.00    +0.000 A 
ATOM      8  C   UNL     1       0.049   9.973  22.770  0.00  0.00    +0.000 A 
ATOM      9  C   UNL     1       0.803   9.527  21.677  0.00  0.00    +0.000 A 
ATOM     10  C   UNL     1       0.596  10.001  20.346  0.00  0.00    +0.000 A 
BRANCH   5  12
ATOM     11  C   UNL     1      -0.542  12.983  18.788  0.00  0.00    +0.000 C 
ATOM     12  O   UNL     1      -0.899  11.653  19.090  0.00  0.00    +0.000 OA
ENDBRANCH   5  12
BRANCH   9  13
ATOM     13  O   UNL     1       1.777   8.591  21.955  0.00  0.00    +0.000 OA
ATOM     14  H   UNL     1       1.371   7.830  22.406  0.00  0.00    +0.000 HD
ENDBRANCH   9  13
ENDBRANCH   1  10
BRANCH   3  15
ATOM     15  C   UNL     1       2.566   7.338  18.365  0.00  0.00    +0.000 C 
BRANCH  15  16
ATOM     16  C   UNL     1       3.341   6.110  18.900  0.00  0.00    +0.000 C 
BRANCH  16  17
ATOM     17  C   UNL     1       2.447   4.898  19.166  0.00  0.00    +0.000 A 
ATOM     18  C   UNL     1       1.996   4.039  18.151  0.00  0.00    +0.000 A 
ATOM     19  C   UNL     1       1.166   2.951  18.450  0.00  0.00    +0.000 A 
ATOM     20  C   UNL     1       0.769   2.713  19.763  0.00  0.00    +0.000 A 
ATOM     21  C   UNL     1       1.198   3.560  20.780  0.00  0.00    +0.000 A 
ATOM     22  C   UNL     1       2.031   4.641  20.484  0.00  0.00    +0.000 A 
ENDBRANCH  16  17
BRANCH  16  23
ATOM     23  C   UNL     1       4.576   5.788  18.049  0.00  0.00    +0.000 A 
ATOM     24  C   UNL     1       5.636   5.076  18.634  0.00  0.00    +0.000 A 
ATOM     25  C   UNL     1       6.793   4.772  17.910  0.00  0.00    +0.000 A 
ATOM     26  C   UNL     1       6.906   5.167  16.581  0.00  0.00    +0.000 A 
ATOM     27  C   UNL     1       5.866   5.873  15.981  0.00  0.00    +0.000 A 
ATOM     28  C   UNL     1       4.712   6.188  16.710  0.00  0.00    +0.000 A 
ENDBRANCH  16  23
ENDBRANCH  15  16
ENDBRANCH   3  15
TORSDOF 7
ENDMDL
MODEL 8
REMARK VINA RESULT:      -8.1      1.448      4.016
REMARK  Name = 
REMARK  8 active torsions:
REMARK  status: ('A' for Active; 'I' for Inactive)
REMARK    1  A    between atoms: C_1  and  O_2
REMARK    2  A    between atoms: O_2  and  C_3
REMARK    3  A    between atoms: C_7  and  O_8
REMARK    4  A    between atoms: C_9  and  C_10
REMARK    5  A    between atoms: N_12  and  C_13
REMARK    6  A    between atoms: C_13  and  C_14
REMARK    7  A    between atoms: C_14  and  C_15
REMARK    8  A    between atoms: C_14  and  C_21
REMARK                            x       y       z     vdW  Elec       q    Type
REMARK                         _______ _______ _______ _____ _____    ______ ____
ROOT
ATOM      1  C   UNL     1       4.576   3.308  18.886  0.00  0.00    +0.000 C 
ATOM      2  O   UNL     1       5.659   3.445  19.438  0.00  0.00    +0.000 OA
ATOM      3  N   UNL     1       4.484   3.152  17.512  0.00  0.00    +0.000 N 
ATOM      4  H   UNL     1       3.565   3.335  17.119  0.00  0.00    +0.000 HD
ENDROOT
BRANCH   1  10
ATOM      5  C   UNL     1       2.106   4.059  19.247  0.00  0.00    +0.000 A 
ATOM      6  C   UNL     1       0.946   3.997  20.059  0.00  0.00    +0.000 A 
ATOM      7  C   UNL     1       0.890   3.270  21.241  0.00  0.00    +0.000 A 
ATOM      8  C   UNL     1       2.007   2.568  21.646  0.00  0.00    +0.000 A 
ATOM      9  C   UNL     1       3.166   2.603  20.860  0.00  0.00    +0.000 A 
ATOM     10  C   UNL     1       3.260   3.348  19.646  0.00  0.00    +0.000 A 
BRANCH   5  12
ATOM     11  C   UNL     1       2.457   6.125  17.968  0.00  0.00    +0.000 C 
ATOM     12  O   UNL     1       1.816   4.893  18.206  0.00  0.00    +0.000 OA
ENDBRANCH   5  12
BRANCH   9  13
ATOM     13  O   UNL     1       4.237   1.870  21.328  0.00  0.00    +0.000 OA
ATOM     14  H   UNL     1       3.906   1.124  21.859  0.00  0.00    +0.000 HD
ENDBRANCH   9  13
ENDBRANCH   1  10
BRANCH   3  15
ATOM     15  C   UNL     1       5.605   3.253  16.582  0.00  0.00    +0.000 C 
BRANCH  15  16
ATOM     16  C   UNL     1       5.801   4.649  15.942  0.00  0.00    +0.000 C 
BRANCH  16  17
ATOM     17  C   UNL     1       6.600   5.612  16.822  0.00  0.00    +0.000 A 
ATOM     18  C   UNL     1       7.510   5.183  17.801  0.00  0.00    +0.000 A 
ATOM     19  C   UNL     1       8.204   6.109  18.589  0.00  0.00    +0.000 A 
ATOM     20  C   UNL     1       7.991   7.474  18.416  0.00  0.00    +0.000 A 
ATOM     21  C   UNL     1       7.086   7.918  17.457  0.00  0.00    +0.000 A 
ATOM     22  C   UNL     1       6.398   6.995  16.667  0.00  0.00    +0.000 A 
ENDBRANCH  16  17
BRANCH  16  23
ATOM     23  C   UNL     1       6.319   4.558  14.502  0.00  0.00    +0.000 A 
ATOM     24  C   UNL     1       5.679   3.687  13.604  0.00  0.00    +0.000 A 
ATOM     25  C   UNL     1       6.121   3.551  12.285  0.00  0.00    +0.000 A 
ATOM     26  C   UNL     1       7.207   4.293  11.835  0.00  0.00    +0.000 A 
ATOM     27  C   UNL     1       7.857   5.163  12.708  0.00  0.00    +0.000 A 
ATOM     28  C   UNL     1       7.421   5.291  14.033  0.00  0.00    +0.000 A 
ENDBRANCH  16  23
ENDBRANCH  15  16
ENDBRANCH   3  15
TORSDOF 7
ENDMDL
MODEL 9
REMARK VINA RESULT:      -8.1      3.707      6.967
REMARK  Name = 
REMARK  8 active torsions:
REMARK  status: ('A' for Active; 'I' for Inactive)
REMARK    1  A    between atoms: C_1  and  O_2
REMARK    2  A    between atoms: O_2  and  C_3
REMARK    3  A    between atoms: C_7  and  O_8
REMARK    4  A    between atoms: C_9  and  C_10
REMARK    5  A    between atoms: N_12  and  C_13
REMARK    6  A    between atoms: C_13  and  C_14
REMARK    7  A    between atoms: C_14  and  C_15
REMARK    8  A    between atoms: C_14  and  C_21
REMARK                            x       y       z     vdW  Elec       q    Type
REMARK                         _______ _______ _______ _____ _____    ______ ____
ROOT
ATOM      1  C   UNL     1       1.128   9.656  18.281  0.00  0.00    +0.000 C 
ATOM      2  O   UNL     1       0.181   9.342  17.574  0.00  0.00    +0.000 OA
ATOM      3  N   UNL     1       2.244   8.841  18.391  0.00  0.00    +0.000 N 
ATOM      4  H   UNL     1       2.834   9.027  19.197  0.00  0.00    +0.000 HD
ENDROOT
BRANCH   1  10
ATOM      5  C   UNL     1       0.454  11.099  20.346  0.00  0.00    +0.000 A 
ATOM      6  C   UNL     1       0.562  12.340  21.020  0.00  0.00    +0.000 A 
ATOM      7  C   UNL     1       1.310  13.404  20.530  0.00  0.00    +0.000 A 
ATOM      8  C   UNL     1       1.986  13.250  19.337  0.00  0.00    +0.000 A 
ATOM      9  C   UNL     1       1.905  12.032  18.650  0.00  0.00    +0.000 A 
ATOM     10  C   UNL     1       1.138  10.923  19.122  0.00  0.00    +0.000 A 
BRANCH   5  12
ATOM     11  C   UNL     1       0.017   9.197  21.835  0.00  0.00    +0.000 C 
ATOM     12  O   UNL     1      -0.387  10.319  21.084  0.00  0.00    +0.000 OA
ENDBRANCH   5  12
BRANCH   9  13
ATOM     13  O   UNL     1       2.614  11.955  17.470  0.00  0.00    +0.000 OA
ATOM     14  H   UNL     1       2.964  12.836  17.248  0.00  0.00    +0.000 HD
ENDBRANCH   9  13
ENDBRANCH   1  10
BRANCH   3  15
ATOM     15  C   UNL     1       2.367   7.509  17.806  0.00  0.00    +0.000 C 
BRANCH  15  16
ATOM     16  C   UNL     1       3.152   6.487  18.664  0.00  0.00    +0.000 C 
BRANCH  16  17
ATOM     17  C   UNL     1       2.317   5.272  19.072  0.00  0.00    +0.000 A 
ATOM     18  C   UNL     1       1.929   5.017  20.397  0.00  0.00    +0.000 A 
ATOM     19  C   UNL     1       1.177   3.880  20.716  0.00  0.00    +0.000 A 
ATOM     20  C   UNL     1       0.811   2.979  19.720  0.00  0.00    +0.000 A 
ATOM     21  C   UNL     1       1.196   3.210  18.403  0.00  0.00    +0.000 A 
ATOM     22  C   UNL     1       1.940   4.347  18.082  0.00  0.00    +0.000 A 
ENDBRANCH  16  17
BRANCH  16  23
ATOM     23  C   UNL     1       4.503   6.122  18.038  0.00  0.00    +0.000 A 
ATOM     24  C   UNL     1       4.738   6.449  16.691  0.00  0.00    +0.000 A 
ATOM     25  C   UNL     1       5.944   6.123  16.065  0.00  0.00    +0.000 A 
ATOM     26  C   UNL     1       6.945   5.473  16.779  0.00  0.00    +0.000 A 
ATOM     27  C   UNL     1       6.735   5.140  18.115  0.00  0.00    +0.000 A 
ATOM     28  C   UNL     1       5.521   5.456  18.739  0.00  0.00    +0.000 A 
ENDBRANCH  16  23
ENDBRANCH  15  16
ENDBRANCH   3  15
TORSDOF 7
ENDMDL
