MODEL 1
REMARK VINA RESULT:      -7.2      0.000      0.000
REMARK  Name = 
REMARK  2 active torsions:
REMARK  status: ('A' for Active; 'I' for Inactive)
REMARK    1  A    between atoms: C_2  and  C_3
REMARK    2  A    between atoms: C_3  and  C_4
REMARK                            x       y       z     vdW  Elec       q    Type
REMARK                         _______ _______ _______ _____ _____    ______ ____
ROOT
ATOM      1  C   UNL     1       3.067   5.331  18.426  0.00  0.00    +0.000 C 
ATOM      2  O   UNL     1       3.132   4.133  17.666  0.00  0.00    +0.000 OA
ATOM      3  C   UNL     1       4.412   4.621  18.012  0.00  0.00    +0.000 C 
ATOM      4  C   UNL     1       5.219   4.183  19.200  0.00  0.00    +0.000 C 
ATOM      5  C   UNL     1       6.217   5.312  19.491  0.00  0.00    +0.000 C 
ATOM      6  S   UNL     1       7.434   5.457  18.200  0.00  0.00    +0.000 S 
ATOM      7  O   UNL     1       7.899   6.830  18.163  0.00  0.00    +0.000 OA
ATOM      8  O   UNL     1       8.363   4.352  18.349  0.00  0.00    +0.000 OA
ATOM      9  C   UNL     1       6.566   5.172  16.683  0.00  0.00    +0.000 A 
ATOM     10  C   UNL     1       7.312   5.215  15.499  0.00  0.00    +0.000 A 
ATOM     11  C   UNL     1       6.761   4.769  14.299  0.00  0.00    +0.000 A 
ATOM     12  C   UNL     1       5.469   4.257  14.306  0.00  0.00    +0.000 A 
ATOM     13  C   UNL     1       4.717   4.261  15.481  0.00  0.00    +0.000 A 
ATOM     14  C   UNL     1       5.228   4.746  16.715  0.00  0.00    +0.000 A 
ENDROOT
BRANCH   1  15
ATOM     15  C   UNL     1       2.075   4.995  19.483  0.00  0.00    +0.000 C 
ATOM     16  N   UNL     1       2.183   5.759  20.627  0.00  0.00    +0.000 N 
ATOM     17  O   UNL     1       1.163   4.196  19.315  0.00  0.00    +0.000 OA
ATOM     18  H   UNL     1       2.818   6.550  20.666  0.00  0.00    +0.000 HD
ATOM     19  H   UNL     1       1.410   5.765  21.275  0.00  0.00    +0.000 HD
ENDBRANCH   1  15
BRANCH   1  21
ATOM     20  N   UNL     1       3.007   7.801  17.677  0.00  0.00    +0.000 NA
ATOM     21  C   UNL     1       3.023   6.673  17.928  0.00  0.00    +0.000 C 
ENDBRANCH   1  21
TORSDOF 2
ENDMDL
MODEL 2
REMARK VINA RESULT:      -6.5      2.782      5.257
REMARK  Name = 
REMARK  2 active torsions:
REMARK  status: ('A' for Active; 'I' for Inactive)
REMARK    1  A    between atoms: C_2  and  C_3
REMARK    2  A    between atoms: C_3  and  C_4
REMARK                            x       y       z     vdW  Elec       q    Type
REMARK                         _______ _______ _______ _____ _____    ______ ____
ROOT
ATOM      1  C   UNL     1       6.191   5.469  17.252  0.00  0.00    +0.000 C 
ATOM      2  O   UNL     1       5.477   4.671  16.319  0.00  0.00    +0.000 OA
ATOM      3  C   UNL     1       4.632   5.547  17.036  0.00  0.00    +0.000 C 
ATOM      4  C   UNL     1       4.184   6.902  16.570  0.00  0.00    +0.000 C 
ATOM      5  C   UNL     1       3.780   7.685  17.827  0.00  0.00    +0.000 C 
ATOM      6  S   UNL     1       2.316   7.006  18.578  0.00  0.00    +0.000 S 
ATOM      7  O   UNL     1       2.349   7.305  19.996  0.00  0.00    +0.000 OA
ATOM      8  O   UNL     1       1.185   7.390  17.754  0.00  0.00    +0.000 OA
ATOM      9  C   UNL     1       2.465   5.248  18.424  0.00  0.00    +0.000 A 
ATOM     10  C   UNL     1       1.417   4.469  18.930  0.00  0.00    +0.000 A 
ATOM     11  C   UNL     1       1.343   3.108  18.638  0.00  0.00    +0.000 A 
ATOM     12  C   UNL     1       2.312   2.547  17.814  0.00  0.00    +0.000 A 
ATOM     13  C   UNL     1       3.377   3.321  17.353  0.00  0.00    +0.000 A 
ATOM     14  C   UNL     1       3.511   4.701  17.664  0.00  0.00    +0.000 A 
ENDROOT
BRANCH   1  15
ATOM     15  C   UNL     1       7.314   6.002  16.435  0.00  0.00    +0.000 C 
ATOM     16  N   UNL     1       7.610   5.249  15.316  0.00  0.00    +0.000 N 
ATOM     17  O   UNL     1       7.855   7.077  16.660  0.00  0.00    +0.000 OA
ATOM     18  H   UNL     1       7.018   4.472  15.042  0.00  0.00    +0.000 HD
ATOM     19  H   UNL     1       8.177   5.666  14.594  0.00  0.00    +0.000 HD
ENDBRANCH   1  15
BRANCH   1  21
ATOM     20  N   UNL     1       6.855   5.001  19.703  0.00  0.00    +0.000 NA
ATOM     21  C   UNL     1       6.503   5.142  18.612  0.00  0.00    +0.000 C 
ENDBRANCH   1  21
TORSDOF 2
ENDMDL
MODEL 3
REMARK VINA RESULT:      -6.2      2.686      5.420
REMARK  Name = 
REMARK  2 active torsions:
REMARK  status: ('A' for Active; 'I' for Inactive)
REMARK    1  A    between atoms: C_2  and  C_3
REMARK    2  A    between atoms: C_3  and  C_4
REMARK                            x       y       z     vdW  Elec       q    Type
REMARK                         _______ _______ _______ _____ _____    ______ ____
ROOT
ATOM      1  C   UNL     1       6.451   5.044  17.872  0.00  0.00    +0.000 C 
ATOM      2  O   UNL     1       5.855   3.788  17.586  0.00  0.00    +0.000 OA
ATOM      3  C   UNL     1       4.905   4.756  17.981  0.00  0.00    +0.000 C 
ATOM      4  C   UNL     1       4.095   5.611  17.051  0.00  0.00    +0.000 C 
ATOM      5  C   UNL     1       3.651   6.837  17.860  0.00  0.00    +0.000 C 
ATOM      6  S   UNL     1       2.485   6.395  19.131  0.00  0.00    +0.000 S 
ATOM      7  O   UNL     1       2.598   7.358  20.209  0.00  0.00    +0.000 OA
ATOM      8  O   UNL     1       1.213   6.135  18.484  0.00  0.00    +0.000 OA
ATOM      9  C   UNL     1       3.039   4.841  19.775  0.00  0.00    +0.000 A 
ATOM     10  C   UNL     1       2.272   4.259  20.792  0.00  0.00    +0.000 A 
ATOM     11  C   UNL     1       2.500   2.940  21.182  0.00  0.00    +0.000 A 
ATOM     12  C   UNL     1       3.481   2.208  20.524  0.00  0.00    +0.000 A 
ATOM     13  C   UNL     1       4.270   2.811  19.544  0.00  0.00    +0.000 A 
ATOM     14  C   UNL     1       4.098   4.165  19.149  0.00  0.00    +0.000 A 
ENDROOT
BRANCH   1  15
ATOM     15  C   UNL     1       7.316   5.275  16.684  0.00  0.00    +0.000 C 
ATOM     16  N   UNL     1       7.548   6.606  16.400  0.00  0.00    +0.000 N 
ATOM     17  O   UNL     1       7.876   4.371  16.077  0.00  0.00    +0.000 OA
ATOM     18  H   UNL     1       7.237   7.335  17.035  0.00  0.00    +0.000 HD
ATOM     19  H   UNL     1       8.307   6.839  15.778  0.00  0.00    +0.000 HD
ENDBRANCH   1  15
BRANCH   1  21
ATOM     20  N   UNL     1       7.482   5.708  20.145  0.00  0.00    +0.000 NA
ATOM     21  C   UNL     1       6.978   5.488  19.128  0.00  0.00    +0.000 C 
ENDBRANCH   1  21
TORSDOF 2
ENDMDL
MODEL 4
REMARK VINA RESULT:      -6.1      2.738      5.206
REMARK  Name = 
REMARK  2 active torsions:
REMARK  status: ('A' for Active; 'I' for Inactive)
REMARK    1  A    between atoms: C_2  and  C_3
REMARK    2  A    between atoms: C_3  and  C_4
REMARK                            x       y       z     vdW  Elec       q    Type
REMARK                         _______ _______ _______ _____ _____    ______ ____
ROOT
ATOM      1  C   UNL     1       6.354   5.413  17.406  0.00  0.00    +0.000 C 
ATOM      2  O   UNL     1       5.770   4.405  16.594  0.00  0.00    +0.000 OA
ATOM      3  C   UNL     1       4.801   5.178  17.270  0.00  0.00    +0.000 C 
ATOM      4  C   UNL     1       4.088   6.371  16.701  0.00  0.00    +0.000 C 
ATOM      5  C   UNL     1       3.589   7.193  17.898  0.00  0.00    +0.000 C 
ATOM      6  S   UNL     1       2.308   6.336  18.789  0.00  0.00    +0.000 S 
ATOM      7  O   UNL     1       2.335   6.782  20.169  0.00  0.00    +0.000 OA
ATOM      8  O   UNL     1       1.095   6.417  17.996  0.00  0.00    +0.000 OA
ATOM      9  C   UNL     1       2.781   4.630  18.796  0.00  0.00    +0.000 A 
ATOM     10  C   UNL     1       1.919   3.727  19.431  0.00  0.00    +0.000 A 
ATOM     11  C   UNL     1       2.094   2.354  19.275  0.00  0.00    +0.000 A 
ATOM     12  C   UNL     1       3.121   1.899  18.457  0.00  0.00    +0.000 A 
ATOM     13  C   UNL     1       4.003   2.804  17.866  0.00  0.00    +0.000 A 
ATOM     14  C   UNL     1       3.885   4.210  18.035  0.00  0.00    +0.000 A 
ENDROOT
BRANCH   1  15
ATOM     15  C   UNL     1       7.325   6.057  16.481  0.00  0.00    +0.000 C 
ATOM     16  N   UNL     1       7.883   7.222  16.966  0.00  0.00    +0.000 N 
ATOM     17  O   UNL     1       7.694   5.543  15.433  0.00  0.00    +0.000 OA
ATOM     18  H   UNL     1       7.713   7.523  17.920  0.00  0.00    +0.000 HD
ATOM     19  H   UNL     1       8.715   7.578  16.520  0.00  0.00    +0.000 HD
ENDBRANCH   1  15
BRANCH   1  21
ATOM     20  N   UNL     1       7.197   5.324  19.844  0.00  0.00    +0.000 NA
ATOM     21  C   UNL     1       6.771   5.293  18.771  0.00  0.00    +0.000 C 
ENDBRANCH   1  21
TORSDOF 2
ENDMDL
MODEL 5
REMARK VINA RESULT:      -6.0      2.885      5.104
REMARK  Name = 
REMARK  2 active torsions:
REMARK  status: ('A' for Active; 'I' for Inactive)
REMARK    1  A    between atoms: C_2  and  C_3
REMARK    2  A    between atoms: C_3  and  C_4
REMARK                            x       y       z     vdW  Elec       q    Type
REMARK                         _______ _______ _______ _____ _____    ______ ____
ROOT
ATOM      1  C   UNL     1       5.468   5.776  17.658  0.00  0.00    +0.000 C 
ATOM      2  O   UNL     1       4.827   4.917  16.726  0.00  0.00    +0.000 OA
ATOM      3  C   UNL     1       4.031   5.164  17.867  0.00  0.00    +0.000 C 
ATOM      4  C   UNL     1       2.968   6.219  17.975  0.00  0.00    +0.000 C 
ATOM      5  C   UNL     1       2.776   6.495  19.472  0.00  0.00    +0.000 C 
ATOM      6  S   UNL     1       2.053   5.098  20.307  0.00  0.00    +0.000 S 
ATOM      7  O   UNL     1       2.476   5.125  21.693  0.00  0.00    +0.000 OA
ATOM      8  O   UNL     1       0.648   5.056  19.949  0.00  0.00    +0.000 OA
ATOM      9  C   UNL     1       2.792   3.664  19.576  0.00  0.00    +0.000 A 
ATOM     10  C   UNL     1       2.375   2.415  20.052  0.00  0.00    +0.000 A 
ATOM     11  C   UNL     1       2.723   1.248  19.375  0.00  0.00    +0.000 A 
ATOM     12  C   UNL     1       3.467   1.350  18.206  0.00  0.00    +0.000 A 
ATOM     13  C   UNL     1       3.918   2.594  17.765  0.00  0.00    +0.000 A 
ATOM     14  C   UNL     1       3.620   3.803  18.451  0.00  0.00    +0.000 A 
ENDROOT
BRANCH   1  15
ATOM     15  C   UNL     1       5.931   6.901  16.801  0.00  0.00    +0.000 C 
ATOM     16  N   UNL     1       6.984   7.621  17.329  0.00  0.00    +0.000 N 
ATOM     17  O   UNL     1       5.504   7.103  15.672  0.00  0.00    +0.000 OA
ATOM     18  H   UNL     1       7.453   7.312  18.174  0.00  0.00    +0.000 HD
ATOM     19  H   UNL     1       7.508   8.226  16.715  0.00  0.00    +0.000 HD
ENDBRANCH   1  15
BRANCH   1  21
ATOM     20  N   UNL     1       7.049   5.245  19.629  0.00  0.00    +0.000 NA
ATOM     21  C   UNL     1       6.345   5.398  18.725  0.00  0.00    +0.000 C 
ENDBRANCH   1  21
TORSDOF 2
ENDMDL
MODEL 6
REMARK VINA RESULT:      -5.8      2.736      3.816
REMARK  Name = 
REMARK  2 active torsions:
REMARK  status: ('A' for Active; 'I' for Inactive)
REMARK    1  A    between atoms: C_2  and  C_3
REMARK    2  A    between atoms: C_3  and  C_4
REMARK                            x       y       z     vdW  Elec       q    Type
REMARK                         _______ _______ _______ _____ _____    ______ ____
ROOT
ATOM      1  C   UNL     1       3.312   3.372  19.740  0.00  0.00    +0.000 C 
ATOM      2  O   UNL     1       3.624   4.694  20.152  0.00  0.00    +0.000 OA
ATOM      3  C   UNL     1       3.976   4.454  18.806  0.00  0.00    +0.000 C 
ATOM      4  C   UNL     1       3.127   4.780  17.611  0.00  0.00    +0.000 C 
ATOM      5  C   UNL     1       3.616   3.880  16.468  0.00  0.00    +0.000 C 
ATOM      6  S   UNL     1       5.256   4.329  15.939  0.00  0.00    +0.000 S 
ATOM      7  O   UNL     1       5.896   3.150  15.389  0.00  0.00    +0.000 OA
ATOM      8  O   UNL     1       5.146   5.555  15.171  0.00  0.00    +0.000 OA
ATOM      9  C   UNL     1       6.141   4.748  17.414  0.00  0.00    +0.000 A 
ATOM     10  C   UNL     1       7.473   5.158  17.269  0.00  0.00    +0.000 A 
ATOM     11  C   UNL     1       8.158   5.728  18.340  0.00  0.00    +0.000 A 
ATOM     12  C   UNL     1       7.487   5.907  19.544  0.00  0.00    +0.000 A 
ATOM     13  C   UNL     1       6.177   5.454  19.693  0.00  0.00    +0.000 A 
ATOM     14  C   UNL     1       5.458   4.828  18.639  0.00  0.00    +0.000 A 
ENDROOT
BRANCH   1  15
ATOM     15  C   UNL     1       1.904   3.211  20.194  0.00  0.00    +0.000 C 
ATOM     16  N   UNL     1       1.154   2.348  19.421  0.00  0.00    +0.000 N 
ATOM     17  O   UNL     1       1.474   3.702  21.229  0.00  0.00    +0.000 OA
ATOM     18  H   UNL     1       1.587   1.798  18.686  0.00  0.00    +0.000 HD
ATOM     19  H   UNL     1       0.285   1.999  19.797  0.00  0.00    +0.000 HD
ENDBRANCH   1  15
BRANCH   1  21
ATOM     20  N   UNL     1       4.895   1.356  20.048  0.00  0.00    +0.000 NA
ATOM     21  C   UNL     1       4.144   2.211  19.849  0.00  0.00    +0.000 C 
ENDBRANCH   1  21
TORSDOF 2
ENDMDL
MODEL 7
REMARK VINA RESULT:      -5.7      2.406      2.822
REMARK  Name = 
REMARK  2 active torsions:
REMARK  status: ('A' for Active; 'I' for Inactive)
REMARK    1  A    between atoms: C_2  and  C_3
REMARK    2  A    between atoms: C_3  and  C_4
REMARK                            x       y       z     vdW  Elec       q    Type
REMARK                         _______ _______ _______ _____ _____    ______ ____
ROOT
ATOM      1  C   UNL     1       3.137   3.247  19.151  0.00  0.00    +0.000 C 
ATOM      2  O   UNL     1       4.439   2.752  18.876  0.00  0.00    +0.000 OA
ATOM      3  C   UNL     1       4.320   4.132  18.601  0.00  0.00    +0.000 C 
ATOM      4  C   UNL     1       4.691   5.242  19.540  0.00  0.00    +0.000 C 
ATOM      5  C   UNL     1       3.908   6.481  19.084  0.00  0.00    +0.000 C 
ATOM      6  S   UNL     1       4.481   7.071  17.505  0.00  0.00    +0.000 S 
ATOM      7  O   UNL     1       3.383   7.752  16.846  0.00  0.00    +0.000 OA
ATOM      8  O   UNL     1       5.754   7.732  17.722  0.00  0.00    +0.000 OA
ATOM      9  C   UNL     1       4.832   5.624  16.547  0.00  0.00    +0.000 A 
ATOM     10  C   UNL     1       5.321   5.818  15.249  0.00  0.00    +0.000 A 
ATOM     11  C   UNL     1       5.844   4.749  14.523  0.00  0.00    +0.000 A 
ATOM     12  C   UNL     1       5.896   3.496  15.122  0.00  0.00    +0.000 A 
ATOM     13  C   UNL     1       5.364   3.303  16.398  0.00  0.00    +0.000 A 
ATOM     14  C   UNL     1       4.784   4.358  17.152  0.00  0.00    +0.000 A 
ENDROOT
BRANCH   1  15
ATOM     15  C   UNL     1       2.869   2.723  20.517  0.00  0.00    +0.000 C 
ATOM     16  N   UNL     1       1.529   2.633  20.837  0.00  0.00    +0.000 N 
ATOM     17  O   UNL     1       3.746   2.293  21.254  0.00  0.00    +0.000 OA
ATOM     18  H   UNL     1       0.814   2.807  20.138  0.00  0.00    +0.000 HD
ATOM     19  H   UNL     1       1.262   2.068  21.629  0.00  0.00    +0.000 HD
ENDBRANCH   1  15
BRANCH   1  21
ATOM     20  N   UNL     1       1.096   3.460  17.584  0.00  0.00    +0.000 NA
ATOM     21  C   UNL     1       2.016   3.281  18.259  0.00  0.00    +0.000 C 
ENDBRANCH   1  21
TORSDOF 2
ENDMDL
MODEL 8
REMARK VINA RESULT:      -5.7      2.676      5.518
REMARK  Name = 
REMARK  2 active torsions:
REMARK  status: ('A' for Active; 'I' for Inactive)
REMARK    1  A    between atoms: C_2  and  C_3
REMARK    2  A    between atoms: C_3  and  C_4
REMARK                            x       y       z     vdW  Elec       q    Type
REMARK                         _______ _______ _______ _____ _____    ______ ____
ROOT
ATOM      1  C   UNL     1       5.729   4.680  17.812  0.00  0.00    +0.000 C 
ATOM      2  O   UNL     1       5.754   5.718  18.781  0.00  0.00    +0.000 OA
ATOM      3  C   UNL     1       4.965   4.621  19.189  0.00  0.00    +0.000 C 
ATOM      4  C   UNL     1       5.431   3.487  20.056  0.00  0.00    +0.000 C 
ATOM      5  C   UNL     1       4.483   2.311  19.784  0.00  0.00    +0.000 C 
ATOM      6  S   UNL     1       2.842   2.640  20.390  0.00  0.00    +0.000 S 
ATOM      7  O   UNL     1       1.900   1.881  19.591  0.00  0.00    +0.000 OA
ATOM      8  O   UNL     1       2.877   2.515  21.835  0.00  0.00    +0.000 OA
ATOM      9  C   UNL     1       2.536   4.351  20.049  0.00  0.00    +0.000 A 
ATOM     10  C   UNL     1       1.300   4.873  20.449  0.00  0.00    +0.000 A 
ATOM     11  C   UNL     1       1.076   6.249  20.436  0.00  0.00    +0.000 A 
ATOM     12  C   UNL     1       2.110   7.091  20.047  0.00  0.00    +0.000 A 
ATOM     13  C   UNL     1       3.323   6.560  19.607  0.00  0.00    +0.000 A 
ATOM     14  C   UNL     1       3.575   5.162  19.564  0.00  0.00    +0.000 A 
ENDROOT
BRANCH   1  15
ATOM     15  C   UNL     1       7.170   4.497  17.491  0.00  0.00    +0.000 C 
ATOM     16  N   UNL     1       7.459   4.532  16.141  0.00  0.00    +0.000 N 
ATOM     17  O   UNL     1       8.045   4.441  18.345  0.00  0.00    +0.000 OA
ATOM     18  H   UNL     1       6.746   4.779  15.462  0.00  0.00    +0.000 HD
ATOM     19  H   UNL     1       8.419   4.663  15.860  0.00  0.00    +0.000 HD
ENDBRANCH   1  15
BRANCH   1  21
ATOM     20  N   UNL     1       4.201   4.350  15.757  0.00  0.00    +0.000 NA
ATOM     21  C   UNL     1       4.818   4.540  16.716  0.00  0.00    +0.000 C 
ENDBRANCH   1  21
TORSDOF 2
ENDMDL
MODEL 9
REMARK VINA RESULT:      -5.6      3.023      5.310
REMARK  Name = 
REMARK  2 active torsions:
REMARK  status: ('A' for Active; 'I' for Inactive)
REMARK    1  A    between atoms: C_2  and  C_3
REMARK    2  A    between atoms: C_3  and  C_4
REMARK                            x       y       z     vdW  Elec       q    Type
REMARK                         _______ _______ _______ _____ _____    ______ ____
ROOT
ATOM      1  C   UNL     1       6.408   4.393  16.181  0.00  0.00    +0.000 C 
ATOM      2  O   UNL     1       5.461   3.418  15.770  0.00  0.00    +0.000 OA
ATOM      3  C   UNL     1       4.875   4.444  16.544  0.00  0.00    +0.000 C 
ATOM      4  C   UNL     1       4.196   5.666  15.999  0.00  0.00    +0.000 C 
ATOM      5  C   UNL     1       4.222   6.717  17.118  0.00  0.00    +0.000 C 
ATOM      6  S   UNL     1       3.181   6.245  18.482  0.00  0.00    +0.000 S 
ATOM      7  O   UNL     1       3.706   6.853  19.689  0.00  0.00    +0.000 OA
ATOM      8  O   UNL     1       1.804   6.451  18.072  0.00  0.00    +0.000 OA
ATOM      9  C   UNL     1       3.386   4.495  18.663  0.00  0.00    +0.000 A 
ATOM     10  C   UNL     1       2.650   3.864  19.674  0.00  0.00    +0.000 A 
ATOM     11  C   UNL     1       2.570   2.473  19.727  0.00  0.00    +0.000 A 
ATOM     12  C   UNL     1       3.210   1.729  18.744  0.00  0.00    +0.000 A 
ATOM     13  C   UNL     1       3.978   2.364  17.769  0.00  0.00    +0.000 A 
ATOM     14  C   UNL     1       4.120   3.776  17.706  0.00  0.00    +0.000 A 
ENDROOT
BRANCH   1  15
ATOM     15  C   UNL     1       7.118   4.714  14.913  0.00  0.00    +0.000 C 
ATOM     16  N   UNL     1       6.781   3.898  13.852  0.00  0.00    +0.000 N 
ATOM     17  O   UNL     1       7.848   5.688  14.782  0.00  0.00    +0.000 OA
ATOM     18  H   UNL     1       6.026   3.224  13.933  0.00  0.00    +0.000 HD
ATOM     19  H   UNL     1       7.023   4.199  12.920  0.00  0.00    +0.000 HD
ENDBRANCH   1  15
BRANCH   1  21
ATOM     20  N   UNL     1       7.973   4.435  18.233  0.00  0.00    +0.000 NA
ATOM     21  C   UNL     1       7.214   4.375  17.365  0.00  0.00    +0.000 C 
ENDBRANCH   1  21
TORSDOF 2
ENDMDL
