MODEL 1
REMARK VINA RESULT:      -8.6      0.000      0.000
REMARK  Name = 
REMARK  7 active torsions:
REMARK  status: ('A' for Active; 'I' for Inactive)
REMARK    1  A    between atoms: C_1  and  C_2
REMARK    2  A    between atoms: N_4  and  C_5
REMARK    3  A    between atoms: C_8  and  N_9
REMARK    4  A    between atoms: C_10  and  C_12
REMARK    5  A    between atoms: C_12  and  S_13
REMARK    6  A    between atoms: C_12  and  C_24
REMARK    7  A    between atoms: S_13  and  C_14
REMARK                            x       y       z     vdW  Elec       q    Type
REMARK                         _______ _______ _______ _____ _____    ______ ____
ROOT
ATOM      1  C   UNL     1       3.128   5.834  18.546  0.00  0.00    +0.000 C 
ENDROOT
BRANCH   1   2
ATOM      2  C   UNL     1       2.480   4.755  19.424  0.00  0.00    +0.000 A 
ATOM      3  C   UNL     1       1.446   3.959  18.902  0.00  0.00    +0.000 A 
ATOM      4  C   UNL     1       0.760   3.051  19.712  0.00  0.00    +0.000 A 
ATOM      5  C   UNL     1       1.096   2.920  21.057  0.00  0.00    +0.000 A 
ATOM      6  C   UNL     1       2.118   3.695  21.594  0.00  0.00    +0.000 A 
ATOM      7  C   UNL     1       2.797   4.611  20.788  0.00  0.00    +0.000 A 
ENDBRANCH   1   2
BRANCH   1   9
ATOM      8  N   UNL     1       1.830   7.225  20.120  0.00  0.00    +0.000 N 
ATOM      9  C   UNL     1       2.523   7.196  18.913  0.00  0.00    +0.000 C 
ATOM     10  O   UNL     1       2.602   8.127  18.109  0.00  0.00    +0.000 OA
ATOM     11  H   UNL     1       1.899   6.393  20.693  0.00  0.00    +0.000 HD
BRANCH   8  15
ATOM     12  C   UNL     1      -0.214  10.506  21.846  0.00  0.00    +0.000 A 
ATOM     13  C   UNL     1      -0.272  10.287  20.473  0.00  0.00    +0.000 A 
ATOM     14  C   UNL     1       0.390   9.205  19.891  0.00  0.00    +0.000 A 
ATOM     15  C   UNL     1       1.132   8.320  20.666  0.00  0.00    +0.000 A 
ATOM     16  C   UNL     1       1.187   8.526  22.050  0.00  0.00    +0.000 A 
ATOM     17  C   UNL     1       0.533   9.624  22.635  0.00  0.00    +0.000 A 
BRANCH  12  21
ATOM     18  C   UNL     1      -1.253  13.814  23.328  0.00  0.00    +0.000 C 
ATOM     19  C   UNL     1      -0.417  12.913  22.463  0.00  0.00    +0.000 C 
ATOM     20  O   UNL     1       0.544  13.362  21.848  0.00  0.00    +0.000 OA
ATOM     21  N   UNL     1      -0.865  11.595  22.463  0.00  0.00    +0.000 N 
ATOM     22  H   UNL     1      -1.764  11.410  22.885  0.00  0.00    +0.000 HD
ENDBRANCH  12  21
ENDBRANCH   8  15
ENDBRANCH   1   9
BRANCH   1  23
ATOM     23  S   UNL     1       4.956   5.809  18.637  0.00  0.00    +0.000 S 
BRANCH  23  24
ATOM     24  C   UNL     1       5.474   5.355  17.031  0.00  0.00    +0.000 A 
ATOM     25  N   UNL     1       4.803   4.555  16.239  0.00  0.00    +0.000 NA
ATOM     26  C   UNL     1       5.491   4.404  15.034  0.00  0.00    +0.000 A 
ATOM     27  C   UNL     1       5.095   3.610  13.938  0.00  0.00    +0.000 A 
ATOM     28  C   UNL     1       5.926   3.527  12.816  0.00  0.00    +0.000 A 
ATOM     29 CL   UNL     1       5.464   2.530  11.487  0.00  0.00    +0.000 Cl
ATOM     30  C   UNL     1       7.129   4.221  12.753  0.00  0.00    +0.000 A 
ATOM     31  C   UNL     1       7.527   5.038  13.813  0.00  0.00    +0.000 A 
ATOM     32  C   UNL     1       6.694   5.110  14.944  0.00  0.00    +0.000 A 
ATOM     33  S   UNL     1       6.924   6.009  16.389  0.00  0.00    +0.000 S 
ENDBRANCH  23  24
ENDBRANCH   1  23
TORSDOF 6
ENDMDL
MODEL 2
REMARK VINA RESULT:      -8.4      0.796      1.439
REMARK  Name = 
REMARK  7 active torsions:
REMARK  status: ('A' for Active; 'I' for Inactive)
REMARK    1  A    between atoms: C_1  and  C_2
REMARK    2  A    between atoms: N_4  and  C_5
REMARK    3  A    between atoms: C_8  and  N_9
REMARK    4  A    between atoms: C_10  and  C_12
REMARK    5  A    between atoms: C_12  and  S_13
REMARK    6  A    between atoms: C_12  and  C_24
REMARK    7  A    between atoms: S_13  and  C_14
REMARK                            x       y       z     vdW  Elec       q    Type
REMARK                         _______ _______ _______ _____ _____    ______ ____
ROOT
ATOM      1  C   UNL     1       3.135   5.751  18.605  0.00  0.00    +0.000 C 
ENDROOT
BRANCH   1   2
ATOM      2  C   UNL     1       2.370   4.758  19.491  0.00  0.00    +0.000 A 
ATOM      3  C   UNL     1       2.768   4.563  20.824  0.00  0.00    +0.000 A 
ATOM      4  C   UNL     1       2.167   3.583  21.618  0.00  0.00    +0.000 A 
ATOM      5  C   UNL     1       1.156   2.781  21.094  0.00  0.00    +0.000 A 
ATOM      6  C   UNL     1       0.745   2.959  19.777  0.00  0.00    +0.000 A 
ATOM      7  C   UNL     1       1.352   3.931  18.980  0.00  0.00    +0.000 A 
ENDBRANCH   1   2
BRANCH   1   9
ATOM      8  N   UNL     1       1.952   7.296  20.124  0.00  0.00    +0.000 N 
ATOM      9  C   UNL     1       2.653   7.172  18.929  0.00  0.00    +0.000 C 
ATOM     10  O   UNL     1       2.826   8.070  18.102  0.00  0.00    +0.000 OA
ATOM     11  H   UNL     1       1.937   6.477  20.720  0.00  0.00    +0.000 HD
BRANCH   8  15
ATOM     12  C   UNL     1       0.121  10.834  21.558  0.00  0.00    +0.000 A 
ATOM     13  C   UNL     1       0.393   9.783  22.428  0.00  0.00    +0.000 A 
ATOM     14  C   UNL     1       1.003   8.614  21.971  0.00  0.00    +0.000 A 
ATOM     15  C   UNL     1       1.350   8.465  20.633  0.00  0.00    +0.000 A 
ATOM     16  C   UNL     1       1.091   9.522  19.752  0.00  0.00    +0.000 A 
ATOM     17  C   UNL     1       0.462  10.693  20.208  0.00  0.00    +0.000 A 
BRANCH  12  21
ATOM     18  C   UNL     1      -1.996  13.920  22.024  0.00  0.00    +0.000 C 
ATOM     19  C   UNL     1      -1.664  12.571  21.449  0.00  0.00    +0.000 C 
ATOM     20  O   UNL     1      -2.388  12.064  20.599  0.00  0.00    +0.000 OA
ATOM     21  N   UNL     1      -0.502  12.025  21.987  0.00  0.00    +0.000 N 
ATOM     22  H   UNL     1      -0.104  12.484  22.794  0.00  0.00    +0.000 HD
ENDBRANCH  12  21
ENDBRANCH   8  15
ENDBRANCH   1   9
BRANCH   1  23
ATOM     23  S   UNL     1       4.950   5.558  18.739  0.00  0.00    +0.000 S 
BRANCH  23  24
ATOM     24  C   UNL     1       5.478   5.186  17.115  0.00  0.00    +0.000 A 
ATOM     25  N   UNL     1       4.832   4.395  16.293  0.00  0.00    +0.000 NA
ATOM     26  C   UNL     1       5.520   4.316  15.082  0.00  0.00    +0.000 A 
ATOM     27  C   UNL     1       5.147   3.553  13.956  0.00  0.00    +0.000 A 
ATOM     28  C   UNL     1       5.977   3.544  12.830  0.00  0.00    +0.000 A 
ATOM     29 CL   UNL     1       5.544   2.586  11.462  0.00  0.00    +0.000 Cl
ATOM     30  C   UNL     1       7.156   4.280  12.792  0.00  0.00    +0.000 A 
ATOM     31  C   UNL     1       7.529   5.067  13.883  0.00  0.00    +0.000 A 
ATOM     32  C   UNL     1       6.698   5.066  15.018  0.00  0.00    +0.000 A 
ATOM     33  S   UNL     1       6.902   5.913  16.496  0.00  0.00    +0.000 S 
ENDBRANCH  23  24
ENDBRANCH   1  23
TORSDOF 6
ENDMDL
MODEL 3
REMARK VINA RESULT:      -8.4      0.824      1.480
REMARK  Name = 
REMARK  7 active torsions:
REMARK  status: ('A' for Active; 'I' for Inactive)
REMARK    1  A    between atoms: C_1  and  C_2
REMARK    2  A    between atoms: N_4  and  C_5
REMARK    3  A    between atoms: C_8  and  N_9
REMARK    4  A    between atoms: C_10  and  C_12
REMARK    5  A    between atoms: C_12  and  S_13
REMARK    6  A    between atoms: C_12  and  C_24
REMARK    7  A    between atoms: S_13  and  C_14
REMARK                            x       y       z     vdW  Elec       q    Type
REMARK                         _______ _______ _______ _____ _____    ______ ____
ROOT
ATOM      1  C   UNL     1       3.347   5.419  18.446  0.00  0.00    +0.000 C 
ENDROOT
BRANCH   1   2
ATOM      2  C   UNL     1       2.522   4.570  19.423  0.00  0.00    +0.000 A 
ATOM      3  C   UNL     1       2.933   4.449  20.762  0.00  0.00    +0.000 A 
ATOM      4  C   UNL     1       2.270   3.591  21.643  0.00  0.00    +0.000 A 
ATOM      5  C   UNL     1       1.182   2.841  21.203  0.00  0.00    +0.000 A 
ATOM      6  C   UNL     1       0.757   2.947  19.884  0.00  0.00    +0.000 A 
ATOM      7  C   UNL     1       1.425   3.796  19.000  0.00  0.00    +0.000 A 
ENDBRANCH   1   2
BRANCH   1   9
ATOM      8  N   UNL     1       2.080   7.143  19.679  0.00  0.00    +0.000 N 
ATOM      9  C   UNL     1       2.977   6.896  18.644  0.00  0.00    +0.000 C 
ATOM     10  O   UNL     1       3.405   7.735  17.849  0.00  0.00    +0.000 OA
ATOM     11  H   UNL     1       1.860   6.356  20.276  0.00  0.00    +0.000 HD
BRANCH   8  15
ATOM     12  C   UNL     1       0.398  10.901  20.667  0.00  0.00    +0.000 A 
ATOM     13  C   UNL     1       0.718   9.990  21.669  0.00  0.00    +0.000 A 
ATOM     14  C   UNL     1       1.280   8.752  21.359  0.00  0.00    +0.000 A 
ATOM     15  C   UNL     1       1.530   8.390  20.039  0.00  0.00    +0.000 A 
ATOM     16  C   UNL     1       1.222   9.304  19.025  0.00  0.00    +0.000 A 
ATOM     17  C   UNL     1       0.641  10.546  19.335  0.00  0.00    +0.000 A 
BRANCH  12  21
ATOM     18  C   UNL     1      -0.414  14.418  21.758  0.00  0.00    +0.000 C 
ATOM     19  C   UNL     1       0.502  13.275  21.422  0.00  0.00    +0.000 C 
ATOM     20  O   UNL     1       1.713  13.387  21.575  0.00  0.00    +0.000 OA
ATOM     21  N   UNL     1      -0.179  12.158  20.946  0.00  0.00    +0.000 N 
ATOM     22  H   UNL     1      -1.157  12.271  20.720  0.00  0.00    +0.000 HD
ENDBRANCH  12  21
ENDBRANCH   8  15
ENDBRANCH   1   9
BRANCH   1  23
ATOM     23  S   UNL     1       5.143   5.102  18.585  0.00  0.00    +0.000 S 
BRANCH  23  24
ATOM     24  C   UNL     1       5.682   4.867  16.939  0.00  0.00    +0.000 A 
ATOM     25  N   UNL     1       5.197   3.959  16.128  0.00  0.00    +0.000 NA
ATOM     26  C   UNL     1       5.841   4.043  14.893  0.00  0.00    +0.000 A 
ATOM     27  C   UNL     1       5.607   3.224  13.769  0.00  0.00    +0.000 A 
ATOM     28  C   UNL     1       6.377   3.407  12.616  0.00  0.00    +0.000 A 
ATOM     29 CL   UNL     1       6.117   2.386  11.250  0.00  0.00    +0.000 Cl
ATOM     30  C   UNL     1       7.361   4.386  12.550  0.00  0.00    +0.000 A 
ATOM     31  C   UNL     1       7.590   5.229  13.639  0.00  0.00    +0.000 A 
ATOM     32  C   UNL     1       6.821   5.035  14.801  0.00  0.00    +0.000 A 
ATOM     33  S   UNL     1       6.887   5.897  16.284  0.00  0.00    +0.000 S 
ENDBRANCH  23  24
ENDBRANCH   1  23
TORSDOF 6
ENDMDL
MODEL 4
REMARK VINA RESULT:      -8.4      1.876      2.258
REMARK  Name = 
REMARK  7 active torsions:
REMARK  status: ('A' for Active; 'I' for Inactive)
REMARK    1  A    between atoms: C_1  and  C_2
REMARK    2  A    between atoms: N_4  and  C_5
REMARK    3  A    between atoms: C_8  and  N_9
REMARK    4  A    between atoms: C_10  and  C_12
REMARK    5  A    between atoms: C_12  and  S_13
REMARK    6  A    between atoms: C_12  and  C_24
REMARK    7  A    between atoms: S_13  and  C_14
REMARK                            x       y       z     vdW  Elec       q    Type
REMARK                         _______ _______ _______ _____ _____    ______ ____
ROOT
ATOM      1  C   UNL     1       2.927   6.001  18.639  0.00  0.00    +0.000 C 
ENDROOT
BRANCH   1   2
ATOM      2  C   UNL     1       2.227   4.856  19.384  0.00  0.00    +0.000 A 
ATOM      3  C   UNL     1       2.517   4.626  20.740  0.00  0.00    +0.000 A 
ATOM      4  C   UNL     1       1.986   3.522  21.411  0.00  0.00    +0.000 A 
ATOM      5  C   UNL     1       1.153   2.629  20.741  0.00  0.00    +0.000 A 
ATOM      6  C   UNL     1       0.851   2.839  19.400  0.00  0.00    +0.000 A 
ATOM      7  C   UNL     1       1.389   3.936  18.726  0.00  0.00    +0.000 A 
ENDBRANCH   1   2
BRANCH   1   9
ATOM      8  N   UNL     1       2.034   8.232  18.074  0.00  0.00    +0.000 N 
ATOM      9  C   UNL     1       2.316   7.332  19.097  0.00  0.00    +0.000 C 
ATOM     10  O   UNL     1       2.199   7.558  20.304  0.00  0.00    +0.000 OA
ATOM     11  H   UNL     1       2.136   7.881  17.130  0.00  0.00    +0.000 HD
BRANCH   8  15
ATOM     12  C   UNL     1       0.428  12.122  18.534  0.00  0.00    +0.000 A 
ATOM     13  C   UNL     1       1.798  11.943  18.374  0.00  0.00    +0.000 A 
ATOM     14  C   UNL     1       2.341  10.668  18.213  0.00  0.00    +0.000 A 
ATOM     15  C   UNL     1       1.528   9.540  18.216  0.00  0.00    +0.000 A 
ATOM     16  C   UNL     1       0.147   9.711  18.365  0.00  0.00    +0.000 A 
ATOM     17  C   UNL     1      -0.400  10.994  18.543  0.00  0.00    +0.000 A 
BRANCH  12  21
ATOM     18  C   UNL     1      -0.771  15.488  19.742  0.00  0.00    +0.000 C 
ATOM     19  C   UNL     1       0.107  14.268  19.763  0.00  0.00    +0.000 C 
ATOM     20  O   UNL     1       0.945  14.123  20.646  0.00  0.00    +0.000 OA
ATOM     21  N   UNL     1      -0.151  13.397  18.707  0.00  0.00    +0.000 N 
ATOM     22  H   UNL     1      -0.754  13.730  17.968  0.00  0.00    +0.000 HD
ENDBRANCH  12  21
ENDBRANCH   8  15
ENDBRANCH   1   9
BRANCH   1  23
ATOM     23  S   UNL     1       4.747   5.944  18.817  0.00  0.00    +0.000 S 
BRANCH  23  24
ATOM     24  C   UNL     1       5.334   5.487  17.235  0.00  0.00    +0.000 A 
ATOM     25  N   UNL     1       4.697   4.685  16.417  0.00  0.00    +0.000 NA
ATOM     26  C   UNL     1       5.435   4.532  15.243  0.00  0.00    +0.000 A 
ATOM     27  C   UNL     1       5.086   3.736  14.132  0.00  0.00    +0.000 A 
ATOM     28  C   UNL     1       5.965   3.652  13.047  0.00  0.00    +0.000 A 
ATOM     29 CL   UNL     1       5.559   2.652  11.701  0.00  0.00    +0.000 Cl
ATOM     30  C   UNL     1       7.170   4.344  13.035  0.00  0.00    +0.000 A 
ATOM     31  C   UNL     1       7.522   5.163  14.109  0.00  0.00    +0.000 A 
ATOM     32  C   UNL     1       6.641   5.237  15.204  0.00  0.00    +0.000 A 
ATOM     33  S   UNL     1       6.810   6.139  16.655  0.00  0.00    +0.000 S 
ENDBRANCH  23  24
ENDBRANCH   1  23
TORSDOF 6
ENDMDL
MODEL 5
REMARK VINA RESULT:      -8.2      5.183      9.455
REMARK  Name = 
REMARK  7 active torsions:
REMARK  status: ('A' for Active; 'I' for Inactive)
REMARK    1  A    between atoms: C_1  and  C_2
REMARK    2  A    between atoms: N_4  and  C_5
REMARK    3  A    between atoms: C_8  and  N_9
REMARK    4  A    between atoms: C_10  and  C_12
REMARK    5  A    between atoms: C_12  and  S_13
REMARK    6  A    between atoms: C_12  and  C_24
REMARK    7  A    between atoms: S_13  and  C_14
REMARK                            x       y       z     vdW  Elec       q    Type
REMARK                         _______ _______ _______ _____ _____    ______ ____
ROOT
ATOM      1  C   UNL     1       0.047  11.892  20.029  0.00  0.00    +0.000 C 
ENDROOT
BRANCH   1   2
ATOM      2  C   UNL     1      -1.123  11.977  21.019  0.00  0.00    +0.000 A 
ATOM      3  C   UNL     1      -2.291  12.671  20.661  0.00  0.00    +0.000 A 
ATOM      4  C   UNL     1      -3.323  12.865  21.583  0.00  0.00    +0.000 A 
ATOM      5  C   UNL     1      -3.207  12.367  22.878  0.00  0.00    +0.000 A 
ATOM      6  C   UNL     1      -2.061  11.675  23.253  0.00  0.00    +0.000 A 
ATOM      7  C   UNL     1      -1.025  11.490  22.336  0.00  0.00    +0.000 A 
ENDBRANCH   1   2
BRANCH   1   9
ATOM      8  N   UNL     1       1.255   9.740  20.104  0.00  0.00    +0.000 N 
ATOM      9  C   UNL     1       0.185  10.439  19.554  0.00  0.00    +0.000 C 
ATOM     10  O   UNL     1      -0.573  10.018  18.678  0.00  0.00    +0.000 OA
ATOM     11  H   UNL     1       1.756  10.207  20.850  0.00  0.00    +0.000 HD
BRANCH   8  15
ATOM     12  C   UNL     1       2.488   5.811  19.120  0.00  0.00    +0.000 A 
ATOM     13  C   UNL     1       1.893   6.073  20.350  0.00  0.00    +0.000 A 
ATOM     14  C   UNL     1       1.474   7.360  20.685  0.00  0.00    +0.000 A 
ATOM     15  C   UNL     1       1.647   8.421  19.801  0.00  0.00    +0.000 A 
ATOM     16  C   UNL     1       2.234   8.166  18.557  0.00  0.00    +0.000 A 
ATOM     17  C   UNL     1       2.671   6.871  18.224  0.00  0.00    +0.000 A 
BRANCH  12  21
ATOM     18  C   UNL     1       2.883   2.257  17.924  0.00  0.00    +0.000 C 
ATOM     19  C   UNL     1       2.195   3.589  18.028  0.00  0.00    +0.000 C 
ATOM     20  O   UNL     1       1.103   3.764  17.500  0.00  0.00    +0.000 OA
ATOM     21  N   UNL     1       2.930   4.522  18.755  0.00  0.00    +0.000 N 
ATOM     22  H   UNL     1       3.883   4.283  18.987  0.00  0.00    +0.000 HD
ENDBRANCH  12  21
ENDBRANCH   8  15
ENDBRANCH   1   9
BRANCH   1  23
ATOM     23  S   UNL     1      -0.110  13.088  18.653  0.00  0.00    +0.000 S 
BRANCH  23  24
ATOM     24  C   UNL     1       1.374  14.011  18.694  0.00  0.00    +0.000 A 
ATOM     25  N   UNL     1       2.511  13.599  18.190  0.00  0.00    +0.000 NA
ATOM     26  C   UNL     1       3.491  14.573  18.387  0.00  0.00    +0.000 A 
ATOM     27  C   UNL     1       4.844  14.490  17.999  0.00  0.00    +0.000 A 
ATOM     28  C   UNL     1       5.713  15.539  18.317  0.00  0.00    +0.000 A 
ATOM     29 CL   UNL     1       7.376  15.429  17.874  0.00  0.00    +0.000 Cl
ATOM     30  C   UNL     1       5.269  16.667  18.998  0.00  0.00    +0.000 A 
ATOM     31  C   UNL     1       3.927  16.785  19.365  0.00  0.00    +0.000 A 
ATOM     32  C   UNL     1       3.058  15.723  19.053  0.00  0.00    +0.000 A 
ATOM     33  S   UNL     1       1.381  15.580  19.387  0.00  0.00    +0.000 S 
ENDBRANCH  23  24
ENDBRANCH   1  23
TORSDOF 6
ENDMDL
MODEL 6
REMARK VINA RESULT:      -8.0      1.451      1.790
REMARK  Name = 
REMARK  7 active torsions:
REMARK  status: ('A' for Active; 'I' for Inactive)
REMARK    1  A    between atoms: C_1  and  C_2
REMARK    2  A    between atoms: N_4  and  C_5
REMARK    3  A    between atoms: C_8  and  N_9
REMARK    4  A    between atoms: C_10  and  C_12
REMARK    5  A    between atoms: C_12  and  S_13
REMARK    6  A    between atoms: C_12  and  C_24
REMARK    7  A    between atoms: S_13  and  C_14
REMARK                            x       y       z     vdW  Elec       q    Type
REMARK                         _______ _______ _______ _____ _____    ______ ____
ROOT
ATOM      1  C   UNL     1       2.950   5.972  18.598  0.00  0.00    +0.000 C 
ENDROOT
BRANCH   1   2
ATOM      2  C   UNL     1       2.241   4.716  19.122  0.00  0.00    +0.000 A 
ATOM      3  C   UNL     1       1.489   3.920  18.241  0.00  0.00    +0.000 A 
ATOM      4  C   UNL     1       0.738   2.840  18.711  0.00  0.00    +0.000 A 
ATOM      5  C   UNL     1       0.727   2.533  20.069  0.00  0.00    +0.000 A 
ATOM      6  C   UNL     1       1.466   3.305  20.959  0.00  0.00    +0.000 A 
ATOM      7  C   UNL     1       2.208   4.391  20.492  0.00  0.00    +0.000 A 
ENDBRANCH   1   2
BRANCH   1   9
ATOM      8  N   UNL     1       2.033   8.257  18.418  0.00  0.00    +0.000 N 
ATOM      9  C   UNL     1       2.335   7.203  19.276  0.00  0.00    +0.000 C 
ATOM     10  O   UNL     1       2.231   7.226  20.504  0.00  0.00    +0.000 OA
ATOM     11  H   UNL     1       2.127   8.067  17.428  0.00  0.00    +0.000 HD
BRANCH   8  15
ATOM     12  C   UNL     1       0.534  12.087  19.422  0.00  0.00    +0.000 A 
ATOM     13  C   UNL     1      -0.013  10.946  20.000  0.00  0.00    +0.000 A 
ATOM     14  C   UNL     1       0.476   9.678  19.685  0.00  0.00    +0.000 A 
ATOM     15  C   UNL     1       1.519   9.519  18.779  0.00  0.00    +0.000 A 
ATOM     16  C   UNL     1       2.083  10.662  18.201  0.00  0.00    +0.000 A 
ATOM     17  C   UNL     1       1.581  11.939  18.505  0.00  0.00    +0.000 A 
BRANCH  12  21
ATOM     18  C   UNL     1      -0.499  15.370  20.964  0.00  0.00    +0.000 C 
ATOM     19  C   UNL     1       0.256  14.071  20.906  0.00  0.00    +0.000 C 
ATOM     20  O   UNL     1       0.957  13.720  21.848  0.00  0.00    +0.000 OA
ATOM     21  N   UNL     1       0.056  13.382  19.712  0.00  0.00    +0.000 N 
ATOM     22  H   UNL     1      -0.416  13.873  18.966  0.00  0.00    +0.000 HD
ENDBRANCH  12  21
ENDBRANCH   8  15
ENDBRANCH   1   9
BRANCH   1  23
ATOM     23  S   UNL     1       4.768   5.880  18.784  0.00  0.00    +0.000 S 
BRANCH  23  24
ATOM     24  C   UNL     1       5.356   5.439  17.199  0.00  0.00    +0.000 A 
ATOM     25  N   UNL     1       4.713   4.657  16.366  0.00  0.00    +0.000 NA
ATOM     26  C   UNL     1       5.454   4.513  15.193  0.00  0.00    +0.000 A 
ATOM     27  C   UNL     1       5.101   3.737  14.069  0.00  0.00    +0.000 A 
ATOM     28  C   UNL     1       5.982   3.659  12.986  0.00  0.00    +0.000 A 
ATOM     29 CL   UNL     1       5.571   2.684  11.624  0.00  0.00    +0.000 Cl
ATOM     30  C   UNL     1       7.195   4.339  12.988  0.00  0.00    +0.000 A 
ATOM     31  C   UNL     1       7.552   5.138  14.076  0.00  0.00    +0.000 A 
ATOM     32  C   UNL     1       6.668   5.206  15.168  0.00  0.00    +0.000 A 
ATOM     33  S   UNL     1       6.841   6.084  16.633  0.00  0.00    +0.000 S 
ENDBRANCH  23  24
ENDBRANCH   1  23
TORSDOF 6
ENDMDL
MODEL 7
REMARK VINA RESULT:      -8.0      1.284      1.586
REMARK  Name = 
REMARK  7 active torsions:
REMARK  status: ('A' for Active; 'I' for Inactive)
REMARK    1  A    between atoms: C_1  and  C_2
REMARK    2  A    between atoms: N_4  and  C_5
REMARK    3  A    between atoms: C_8  and  N_9
REMARK    4  A    between atoms: C_10  and  C_12
REMARK    5  A    between atoms: C_12  and  S_13
REMARK    6  A    between atoms: C_12  and  C_24
REMARK    7  A    between atoms: S_13  and  C_14
REMARK                            x       y       z     vdW  Elec       q    Type
REMARK                         _______ _______ _______ _____ _____    ______ ____
ROOT
ATOM      1  C   UNL     1       3.484   5.473  18.155  0.00  0.00    +0.000 C 
ENDROOT
BRANCH   1   2
ATOM      2  C   UNL     1       2.672   4.611  19.132  0.00  0.00    +0.000 A 
ATOM      3  C   UNL     1       1.554   3.897  18.669  0.00  0.00    +0.000 A 
ATOM      4  C   UNL     1       0.728   3.200  19.555  0.00  0.00    +0.000 A 
ATOM      5  C   UNL     1       1.008   3.201  20.919  0.00  0.00    +0.000 A 
ATOM      6  C   UNL     1       2.111   3.898  21.399  0.00  0.00    +0.000 A 
ATOM      7  C   UNL     1       2.930   4.603  20.516  0.00  0.00    +0.000 A 
ENDBRANCH   1   2
BRANCH   1   9
ATOM      8  N   UNL     1       2.102   7.167  19.301  0.00  0.00    +0.000 N 
ATOM      9  C   UNL     1       3.130   6.947  18.389  0.00  0.00    +0.000 C 
ATOM     10  O   UNL     1       3.689   7.815  17.716  0.00  0.00    +0.000 OA
ATOM     11  H   UNL     1       1.778   6.356  19.812  0.00  0.00    +0.000 HD
BRANCH   8  15
ATOM     12  C   UNL     1       0.394  10.918  20.272  0.00  0.00    +0.000 A 
ATOM     13  C   UNL     1       0.603   9.964  21.263  0.00  0.00    +0.000 A 
ATOM     14  C   UNL     1       1.172   8.727  20.960  0.00  0.00    +0.000 A 
ATOM     15  C   UNL     1       1.540   8.410  19.656  0.00  0.00    +0.000 A 
ATOM     16  C   UNL     1       1.344   9.367  18.654  0.00  0.00    +0.000 A 
ATOM     17  C   UNL     1       0.756  10.608  18.956  0.00  0.00    +0.000 A 
BRANCH  12  21
ATOM     18  C   UNL     1      -1.760  14.004  20.510  0.00  0.00    +0.000 C 
ATOM     19  C   UNL     1      -1.484  12.556  20.215  0.00  0.00    +0.000 C 
ATOM     20  O   UNL     1      -2.361  11.844  19.738  0.00  0.00    +0.000 OA
ATOM     21  N   UNL     1      -0.187  12.174  20.545  0.00  0.00    +0.000 N 
ATOM     22  H   UNL     1       0.367  12.827  21.081  0.00  0.00    +0.000 HD
ENDBRANCH  12  21
ENDBRANCH   8  15
ENDBRANCH   1   9
BRANCH   1  23
ATOM     23  S   UNL     1       5.281   5.139  18.251  0.00  0.00    +0.000 S 
BRANCH  23  24
ATOM     24  C   UNL     1       5.769   4.855  16.597  0.00  0.00    +0.000 A 
ATOM     25  N   UNL     1       5.211   3.972  15.805  0.00  0.00    +0.000 NA
ATOM     26  C   UNL     1       5.834   4.003  14.557  0.00  0.00    +0.000 A 
ATOM     27  C   UNL     1       5.524   3.191  13.447  0.00  0.00    +0.000 A 
ATOM     28  C   UNL     1       6.280   3.314  12.277  0.00  0.00    +0.000 A 
ATOM     29 CL   UNL     1       5.928   2.299  10.927  0.00  0.00    +0.000 Cl
ATOM     30  C   UNL     1       7.323   4.228  12.180  0.00  0.00    +0.000 A 
ATOM     31  C   UNL     1       7.628   5.065  13.256  0.00  0.00    +0.000 A 
ATOM     32  C   UNL     1       6.872   4.931  14.435  0.00  0.00    +0.000 A 
ATOM     33  S   UNL     1       7.023   5.800  15.907  0.00  0.00    +0.000 S 
ENDBRANCH  23  24
ENDBRANCH   1  23
TORSDOF 6
ENDMDL
MODEL 8
REMARK VINA RESULT:      -7.9      5.194      9.367
REMARK  Name = 
REMARK  7 active torsions:
REMARK  status: ('A' for Active; 'I' for Inactive)
REMARK    1  A    between atoms: C_1  and  C_2
REMARK    2  A    between atoms: N_4  and  C_5
REMARK    3  A    between atoms: C_8  and  N_9
REMARK    4  A    between atoms: C_10  and  C_12
REMARK    5  A    between atoms: C_12  and  S_13
REMARK    6  A    between atoms: C_12  and  C_24
REMARK    7  A    between atoms: S_13  and  C_14
REMARK                            x       y       z     vdW  Elec       q    Type
REMARK                         _______ _______ _______ _____ _____    ______ ____
ROOT
ATOM      1  C   UNL     1       0.798  11.389  19.956  0.00  0.00    +0.000 C 
ENDROOT
BRANCH   1   2
ATOM      2  C   UNL     1      -0.180  11.567  21.127  0.00  0.00    +0.000 A 
ATOM      3  C   UNL     1      -0.223  10.606  22.152  0.00  0.00    +0.000 A 
ATOM      4  C   UNL     1      -1.181  10.680  23.166  0.00  0.00    +0.000 A 
ATOM      5  C   UNL     1      -2.111  11.715  23.176  0.00  0.00    +0.000 A 
ATOM      6  C   UNL     1      -2.086  12.678  22.173  0.00  0.00    +0.000 A 
ATOM      7  C   UNL     1      -1.135  12.600  21.153  0.00  0.00    +0.000 A 
ENDBRANCH   1   2
BRANCH   1   9
ATOM      8  N   UNL     1       1.770   9.120  19.953  0.00  0.00    +0.000 N 
ATOM      9  C   UNL     1       0.741   9.930  19.484  0.00  0.00    +0.000 C 
ATOM     10  O   UNL     1      -0.126   9.592  18.675  0.00  0.00    +0.000 OA
ATOM     11  H   UNL     1       2.377   9.529  20.653  0.00  0.00    +0.000 HD
BRANCH   8  15
ATOM     12  C   UNL     1       2.382   5.025  19.066  0.00  0.00    +0.000 A 
ATOM     13  C   UNL     1       2.644   5.998  18.107  0.00  0.00    +0.000 A 
ATOM     14  C   UNL     1       2.455   7.351  18.387  0.00  0.00    +0.000 A 
ATOM     15  C   UNL     1       1.992   7.765  19.632  0.00  0.00    +0.000 A 
ATOM     16  C   UNL     1       1.736   6.795  20.607  0.00  0.00    +0.000 A 
ATOM     17  C   UNL     1       1.912   5.430  20.321  0.00  0.00    +0.000 A 
BRANCH  12  21
ATOM     18  C   UNL     1       3.640   1.516  18.500  0.00  0.00    +0.000 C 
ATOM     19  C   UNL     1       3.733   2.931  18.997  0.00  0.00    +0.000 C 
ATOM     20  O   UNL     1       4.771   3.342  19.506  0.00  0.00    +0.000 OA
ATOM     21  N   UNL     1       2.555   3.648  18.811  0.00  0.00    +0.000 N 
ATOM     22  H   UNL     1       1.735   3.129  18.531  0.00  0.00    +0.000 HD
ENDBRANCH  12  21
ENDBRANCH   8  15
ENDBRANCH   1   9
BRANCH   1  23
ATOM     23  S   UNL     1       0.507  12.594  18.610  0.00  0.00    +0.000 S 
BRANCH  23  24
ATOM     24  C   UNL     1       1.864  13.691  18.695  0.00  0.00    +0.000 A 
ATOM     25  N   UNL     1       3.046  13.442  18.184  0.00  0.00    +0.000 NA
ATOM     26  C   UNL     1       3.896  14.523  18.424  0.00  0.00    +0.000 A 
ATOM     27  C   UNL     1       5.250  14.623  18.042  0.00  0.00    +0.000 A 
ATOM     28  C   UNL     1       5.980  15.759  18.403  0.00  0.00    +0.000 A 
ATOM     29 CL   UNL     1       7.646  15.873  17.969  0.00  0.00    +0.000 Cl
ATOM     30  C   UNL     1       5.398  16.798  19.121  0.00  0.00    +0.000 A 
ATOM     31  C   UNL     1       4.051  16.735  19.482  0.00  0.00    +0.000 A 
ATOM     32  C   UNL     1       3.322  15.586  19.127  0.00  0.00    +0.000 A 
ATOM     33  S   UNL     1       1.674  15.223  19.443  0.00  0.00    +0.000 S 
ENDBRANCH  23  24
ENDBRANCH   1  23
TORSDOF 6
ENDMDL
MODEL 9
REMARK VINA RESULT:      -7.8      5.211      9.524
REMARK  Name = 
REMARK  7 active torsions:
REMARK  status: ('A' for Active; 'I' for Inactive)
REMARK    1  A    between atoms: C_1  and  C_2
REMARK    2  A    between atoms: N_4  and  C_5
REMARK    3  A    between atoms: C_8  and  N_9
REMARK    4  A    between atoms: C_10  and  C_12
REMARK    5  A    between atoms: C_12  and  S_13
REMARK    6  A    between atoms: C_12  and  C_24
REMARK    7  A    between atoms: S_13  and  C_14
REMARK                            x       y       z     vdW  Elec       q    Type
REMARK                         _______ _______ _______ _____ _____    ______ ____
ROOT
ATOM      1  C   UNL     1      -0.440  12.382  20.187  0.00  0.00    +0.000 C 
ENDROOT
BRANCH   1   2
ATOM      2  C   UNL     1      -1.671  12.380  21.104  0.00  0.00    +0.000 A 
ATOM      3  C   UNL     1      -2.879  12.938  20.651  0.00  0.00    +0.000 A 
ATOM      4  C   UNL     1      -3.980  13.057  21.503  0.00  0.00    +0.000 A 
ATOM      5  C   UNL     1      -3.895  12.617  22.822  0.00  0.00    +0.000 A 
ATOM      6  C   UNL     1      -2.710  12.059  23.290  0.00  0.00    +0.000 A 
ATOM      7  C   UNL     1      -1.606  11.950  22.442  0.00  0.00    +0.000 A 
ENDBRANCH   1   2
BRANCH   1   9
ATOM      8  N   UNL     1       0.974  10.363  20.051  0.00  0.00    +0.000 N 
ATOM      9  C   UNL     1      -0.220  10.959  19.656  0.00  0.00    +0.000 C 
ATOM     10  O   UNL     1      -1.035  10.477  18.867  0.00  0.00    +0.000 OA
ATOM     11  H   UNL     1       1.516  10.865  20.743  0.00  0.00    +0.000 HD
BRANCH   8  15
ATOM     12  C   UNL     1       2.453   6.596  18.807  0.00  0.00    +0.000 A 
ATOM     13  C   UNL     1       2.044   6.789  20.123  0.00  0.00    +0.000 A 
ATOM     14  C   UNL     1       1.547   8.023  20.545  0.00  0.00    +0.000 A 
ATOM     15  C   UNL     1       1.453   9.095  19.664  0.00  0.00    +0.000 A 
ATOM     16  C   UNL     1       1.853   8.907  18.336  0.00  0.00    +0.000 A 
ATOM     17  C   UNL     1       2.368   7.669  17.913  0.00  0.00    +0.000 A 
BRANCH  12  21
ATOM     18  C   UNL     1       4.539   3.591  17.889  0.00  0.00    +0.000 C 
ATOM     19  C   UNL     1       4.233   4.859  18.638  0.00  0.00    +0.000 C 
ATOM     20  O   UNL     1       5.059   5.338  19.406  0.00  0.00    +0.000 OA
ATOM     21  N   UNL     1       2.968   5.364  18.352  0.00  0.00    +0.000 N 
ATOM     22  H   UNL     1       2.339   4.773  17.826  0.00  0.00    +0.000 HD
ENDBRANCH  12  21
ENDBRANCH   8  15
ENDBRANCH   1   9
BRANCH   1  23
ATOM     23  S   UNL     1      -0.556  13.636  18.859  0.00  0.00    +0.000 S 
BRANCH  23  24
ATOM     24  C   UNL     1       1.029  14.369  18.801  0.00  0.00    +0.000 A 
ATOM     25  N   UNL     1       2.090  13.791  18.294  0.00  0.00    +0.000 NA
ATOM     26  C   UNL     1       3.187  14.647  18.402  0.00  0.00    +0.000 A 
ATOM     27  C   UNL     1       4.506  14.375  17.983  0.00  0.00    +0.000 A 
ATOM     28  C   UNL     1       5.506  15.326  18.209  0.00  0.00    +0.000 A 
ATOM     29 CL   UNL     1       7.128  14.984  17.730  0.00  0.00    +0.000 Cl
ATOM     30  C   UNL     1       5.226  16.539  18.828  0.00  0.00    +0.000 A 
ATOM     31  C   UNL     1       3.922  16.843  19.223  0.00  0.00    +0.000 A 
ATOM     32  C   UNL     1       2.921  15.880  19.004  0.00  0.00    +0.000 A 
ATOM     33  S   UNL     1       1.250  15.965  19.390  0.00  0.00    +0.000 S 
ENDBRANCH  23  24
ENDBRANCH   1  23
TORSDOF 6
ENDMDL
