MODEL 1
REMARK VINA RESULT:      -7.3      0.000      0.000
REMARK  Name = 
REMARK  8 active torsions:
REMARK  status: ('A' for Active; 'I' for Inactive)
REMARK    1  A    between atoms: C_1  and  C_2
REMARK    2  A    between atoms: C_2  and  C_3
REMARK    3  A    between atoms: C_2  and  C_4
REMARK    4  A    between atoms: C_2  and  C_5
REMARK    5  A    between atoms: C_8  and  S_9
REMARK    6  A    between atoms: S_9  and  N_12
REMARK    7  A    between atoms: C_15  and  O_16
REMARK    8  A    between atoms: C_15  and  C_17
REMARK                            x       y       z     vdW  Elec       q    Type
REMARK                         _______ _______ _______ _____ _____    ______ ____
ROOT
ATOM      1  N   UNL     1       4.807   5.873  18.622  0.00  0.00    +0.000 NA
ATOM      2  C   UNL     1       3.614   5.406  19.367  0.00  0.00    +0.000 C 
ATOM      3  C   UNL     1       2.717   6.568  19.760  0.00  0.00    +0.000 C 
ATOM      4  C   UNL     1       2.334   7.457  18.562  0.00  0.00    +0.000 C 
ATOM      5  C   UNL     1       3.621   7.865  17.822  0.00  0.00    +0.000 C 
ATOM      6  C   UNL     1       4.465   6.657  17.417  0.00  0.00    +0.000 C 
ENDROOT
BRANCH   4   7
ATOM      7  C   UNL     1       1.492   8.641  19.069  0.00  0.00    +0.000 A 
ATOM      8  C   UNL     1       1.154   8.796  20.425  0.00  0.00    +0.000 A 
ATOM      9  C   UNL     1       0.265   9.792  20.844  0.00  0.00    +0.000 A 
ATOM     10  C   UNL     1      -0.285  10.666  19.916  0.00  0.00    +0.000 A 
ATOM     11 CL   UNL     1      -1.430  11.845  20.422  0.00  0.00    +0.000 Cl
ATOM     12  C   UNL     1       0.075  10.577  18.576  0.00  0.00    +0.000 A 
ATOM     13  C   UNL     1       0.960   9.579  18.158  0.00  0.00    +0.000 A 
ENDBRANCH   4   7
BRANCH   1  14
ATOM     14  S   UNL     1       6.042   4.702  18.433  0.00  0.00    +0.000 S 
ATOM     15  O   UNL     1       5.565   3.471  19.041  0.00  0.00    +0.000 OA
ATOM     16  O   UNL     1       7.303   5.286  18.824  0.00  0.00    +0.000 OA
BRANCH  14  20
ATOM     17  C   UNL     1       6.145   3.919  13.891  0.00  0.00    +0.000 A 
ATOM     18  C   UNL     1       7.158   4.665  14.528  0.00  0.00    +0.000 A 
ATOM     19  C   UNL     1       7.138   4.912  15.906  0.00  0.00    +0.000 A 
ATOM     20  C   UNL     1       6.086   4.418  16.672  0.00  0.00    +0.000 A 
ATOM     21  C   UNL     1       5.077   3.660  16.076  0.00  0.00    +0.000 A 
ATOM     22  C   UNL     1       5.100   3.428  14.699  0.00  0.00    +0.000 A 
BRANCH  17  24
ATOM     23  C   UNL     1       6.582   2.162  12.059  0.00  0.00    +0.000 C 
ATOM     24  C   UNL     1       6.162   3.614  12.381  0.00  0.00    +0.000 C 
ATOM     25  C   UNL     1       7.150   4.552  11.654  0.00  0.00    +0.000 C 
ATOM     26  C   UNL     1       4.753   3.823  11.782  0.00  0.00    +0.000 C 
ENDBRANCH  17  24
ENDBRANCH  14  20
ENDBRANCH   1  14
BRANCH   4  27
ATOM     27  O   UNL     1       1.556   6.672  17.647  0.00  0.00    +0.000 OA
ATOM     28  H   UNL     1       0.614   6.829  17.816  0.00  0.00    +0.000 HD
ENDBRANCH   4  27
TORSDOF 5
ENDMDL
MODEL 2
REMARK VINA RESULT:      -7.2      0.268      1.336
REMARK  Name = 
REMARK  8 active torsions:
REMARK  status: ('A' for Active; 'I' for Inactive)
REMARK    1  A    between atoms: C_1  and  C_2
REMARK    2  A    between atoms: C_2  and  C_3
REMARK    3  A    between atoms: C_2  and  C_4
REMARK    4  A    between atoms: C_2  and  C_5
REMARK    5  A    between atoms: C_8  and  S_9
REMARK    6  A    between atoms: S_9  and  N_12
REMARK    7  A    between atoms: C_15  and  O_16
REMARK    8  A    between atoms: C_15  and  C_17
REMARK                            x       y       z     vdW  Elec       q    Type
REMARK                         _______ _______ _______ _____ _____    ______ ____
ROOT
ATOM      1  N   UNL     1       4.960   6.049  18.513  0.00  0.00    +0.000 NA
ATOM      2  C   UNL     1       3.849   5.545  19.354  0.00  0.00    +0.000 C 
ATOM      3  C   UNL     1       2.884   6.658  19.723  0.00  0.00    +0.000 C 
ATOM      4  C   UNL     1       2.368   7.432  18.495  0.00  0.00    +0.000 C 
ATOM      5  C   UNL     1       3.578   7.885  17.657  0.00  0.00    +0.000 C 
ATOM      6  C   UNL     1       4.494   6.720  17.282  0.00  0.00    +0.000 C 
ENDROOT
BRANCH   4   7
ATOM      7  C   UNL     1       1.462   8.580  18.973  0.00  0.00    +0.000 A 
ATOM      8  C   UNL     1       0.967   9.560  18.095  0.00  0.00    +0.000 A 
ATOM      9  C   UNL     1       0.271  10.677  18.571  0.00  0.00    +0.000 A 
ATOM     10  C   UNL     1       0.038  10.821  19.932  0.00  0.00    +0.000 A 
ATOM     11 CL   UNL     1      -0.756  12.228  20.522  0.00  0.00    +0.000 Cl
ATOM     12  C   UNL     1       0.463   9.839  20.820  0.00  0.00    +0.000 A 
ATOM     13  C   UNL     1       1.162   8.726  20.344  0.00  0.00    +0.000 A 
ENDBRANCH   4   7
BRANCH   1  14
ATOM     14  S   UNL     1       6.273   4.965  18.329  0.00  0.00    +0.000 S 
ATOM     15  O   UNL     1       5.941   3.757  19.065  0.00  0.00    +0.000 OA
ATOM     16  O   UNL     1       7.504   5.677  18.581  0.00  0.00    +0.000 OA
BRANCH  14  20
ATOM     17  C   UNL     1       6.155   3.913  13.842  0.00  0.00    +0.000 A 
ATOM     18  C   UNL     1       5.211   3.379  14.744  0.00  0.00    +0.000 A 
ATOM     19  C   UNL     1       5.238   3.689  16.109  0.00  0.00    +0.000 A 
ATOM     20  C   UNL     1       6.225   4.538  16.597  0.00  0.00    +0.000 A 
ATOM     21  C   UNL     1       7.164   5.099  15.729  0.00  0.00    +0.000 A 
ATOM     22  C   UNL     1       7.136   4.775  14.370  0.00  0.00    +0.000 A 
BRANCH  17  24
ATOM     23  C   UNL     1       6.564   2.160  12.000  0.00  0.00    +0.000 C 
ATOM     24  C   UNL     1       6.129   3.605  12.333  0.00  0.00    +0.000 C 
ATOM     25  C   UNL     1       7.077   4.558  11.573  0.00  0.00    +0.000 C 
ATOM     26  C   UNL     1       4.698   3.787  11.779  0.00  0.00    +0.000 C 
ENDBRANCH  17  24
ENDBRANCH  14  20
ENDBRANCH   1  14
BRANCH   4  27
ATOM     27  O   UNL     1       1.609   6.528  17.679  0.00  0.00    +0.000 OA
ATOM     28  H   UNL     1       1.301   6.998  16.887  0.00  0.00    +0.000 HD
ENDBRANCH   4  27
TORSDOF 5
ENDMDL
MODEL 3
REMARK VINA RESULT:      -7.2      3.294      8.668
REMARK  Name = 
REMARK  8 active torsions:
REMARK  status: ('A' for Active; 'I' for Inactive)
REMARK    1  A    between atoms: C_1  and  C_2
REMARK    2  A    between atoms: C_2  and  C_3
REMARK    3  A    between atoms: C_2  and  C_4
REMARK    4  A    between atoms: C_2  and  C_5
REMARK    5  A    between atoms: C_8  and  S_9
REMARK    6  A    between atoms: S_9  and  N_12
REMARK    7  A    between atoms: C_15  and  O_16
REMARK    8  A    between atoms: C_15  and  C_17
REMARK                            x       y       z     vdW  Elec       q    Type
REMARK                         _______ _______ _______ _____ _____    ______ ____
ROOT
ATOM      1  N   UNL     1       3.002   5.088  19.180  0.00  0.00    +0.000 NA
ATOM      2  C   UNL     1       3.126   3.710  18.652  0.00  0.00    +0.000 C 
ATOM      3  C   UNL     1       3.882   3.687  17.335  0.00  0.00    +0.000 C 
ATOM      4  C   UNL     1       5.248   4.395  17.420  0.00  0.00    +0.000 C 
ATOM      5  C   UNL     1       5.037   5.800  18.012  0.00  0.00    +0.000 C 
ATOM      6  C   UNL     1       4.306   5.761  19.353  0.00  0.00    +0.000 C 
ENDROOT
BRANCH   4   7
ATOM      7  C   UNL     1       5.902   4.385  16.027  0.00  0.00    +0.000 A 
ATOM      8  C   UNL     1       7.055   5.133  15.734  0.00  0.00    +0.000 A 
ATOM      9  C   UNL     1       7.547   5.231  14.428  0.00  0.00    +0.000 A 
ATOM     10  C   UNL     1       6.905   4.562  13.393  0.00  0.00    +0.000 A 
ATOM     11 CL   UNL     1       7.469   4.738  11.778  0.00  0.00    +0.000 Cl
ATOM     12  C   UNL     1       5.797   3.766  13.659  0.00  0.00    +0.000 A 
ATOM     13  C   UNL     1       5.305   3.673  14.964  0.00  0.00    +0.000 A 
ENDBRANCH   4   7
BRANCH   1  14
ATOM     14  S   UNL     1       1.884   5.270  20.465  0.00  0.00    +0.000 S 
ATOM     15  O   UNL     1       2.616   5.066  21.704  0.00  0.00    +0.000 OA
ATOM     16  O   UNL     1       0.699   4.502  20.165  0.00  0.00    +0.000 OA
BRANCH  14  20
ATOM     17  C   UNL     1       0.721   9.728  20.325  0.00  0.00    +0.000 A 
ATOM     18  C   UNL     1       1.434   9.125  19.269  0.00  0.00    +0.000 A 
ATOM     19  C   UNL     1       1.795   7.773  19.300  0.00  0.00    +0.000 A 
ATOM     20  C   UNL     1       1.453   7.000  20.405  0.00  0.00    +0.000 A 
ATOM     21  C   UNL     1       0.731   7.562  21.460  0.00  0.00    +0.000 A 
ATOM     22  C   UNL     1       0.385   8.915  21.425  0.00  0.00    +0.000 A 
BRANCH  17  24
ATOM     23  C   UNL     1       1.426  12.162  19.864  0.00  0.00    +0.000 C 
ATOM     24  C   UNL     1       0.292  11.208  20.300  0.00  0.00    +0.000 C 
ATOM     25  C   UNL     1      -0.174  11.657  21.702  0.00  0.00    +0.000 C 
ATOM     26  C   UNL     1      -0.874  11.405  19.306  0.00  0.00    +0.000 C 
ENDBRANCH  17  24
ENDBRANCH  14  20
ENDBRANCH   1  14
BRANCH   4  27
ATOM     27  O   UNL     1       6.075   3.672  18.343  0.00  0.00    +0.000 OA
ATOM     28  H   UNL     1       5.891   3.982  19.244  0.00  0.00    +0.000 HD
ENDBRANCH   4  27
TORSDOF 5
ENDMDL
MODEL 4
REMARK VINA RESULT:      -7.1      5.591      7.974
REMARK  Name = 
REMARK  8 active torsions:
REMARK  status: ('A' for Active; 'I' for Inactive)
REMARK    1  A    between atoms: C_1  and  C_2
REMARK    2  A    between atoms: C_2  and  C_3
REMARK    3  A    between atoms: C_2  and  C_4
REMARK    4  A    between atoms: C_2  and  C_5
REMARK    5  A    between atoms: C_8  and  S_9
REMARK    6  A    between atoms: S_9  and  N_12
REMARK    7  A    between atoms: C_15  and  O_16
REMARK    8  A    between atoms: C_15  and  C_17
REMARK                            x       y       z     vdW  Elec       q    Type
REMARK                         _______ _______ _______ _____ _____    ______ ____
ROOT
ATOM      1  N   UNL     1       1.425  12.087  19.708  0.00  0.00    +0.000 NA
ATOM      2  C   UNL     1       1.733  13.002  20.832  0.00  0.00    +0.000 C 
ATOM      3  C   UNL     1       2.954  13.855  20.532  0.00  0.00    +0.000 C 
ATOM      4  C   UNL     1       2.842  14.607  19.192  0.00  0.00    +0.000 C 
ATOM      5  C   UNL     1       2.483  13.595  18.090  0.00  0.00    +0.000 C 
ATOM      6  C   UNL     1       1.226  12.792  18.425  0.00  0.00    +0.000 C 
ENDROOT
BRANCH   4   7
ATOM      7  C   UNL     1       4.150  15.380  18.943  0.00  0.00    +0.000 A 
ATOM      8  C   UNL     1       5.210  14.839  18.195  0.00  0.00    +0.000 A 
ATOM      9  C   UNL     1       6.444  15.492  18.106  0.00  0.00    +0.000 A 
ATOM     10  C   UNL     1       6.633  16.709  18.746  0.00  0.00    +0.000 A 
ATOM     11 CL   UNL     1       8.171  17.476  18.694  0.00  0.00    +0.000 Cl
ATOM     12  C   UNL     1       5.586  17.300  19.444  0.00  0.00    +0.000 A 
ATOM     13  C   UNL     1       4.354  16.644  19.536  0.00  0.00    +0.000 A 
ENDBRANCH   4   7
BRANCH   1  14
ATOM     14  S   UNL     1       0.293  10.854  20.073  0.00  0.00    +0.000 S 
ATOM     15  O   UNL     1      -0.842  11.035  19.183  0.00  0.00    +0.000 OA
ATOM     16  O   UNL     1       0.115  10.792  21.504  0.00  0.00    +0.000 OA
BRANCH  14  20
ATOM     17  C   UNL     1       2.454   6.996  18.770  0.00  0.00    +0.000 A 
ATOM     18  C   UNL     1       2.221   8.047  17.860  0.00  0.00    +0.000 A 
ATOM     19  C   UNL     1       1.564   9.223  18.242  0.00  0.00    +0.000 A 
ATOM     20  C   UNL     1       1.118   9.360  19.552  0.00  0.00    +0.000 A 
ATOM     21  C   UNL     1       1.349   8.347  20.484  0.00  0.00    +0.000 A 
ATOM     22  C   UNL     1       1.996   7.173  20.091  0.00  0.00    +0.000 A 
BRANCH  17  24
ATOM     23  C   UNL     1       2.258   4.606  17.833  0.00  0.00    +0.000 C 
ATOM     24  C   UNL     1       3.197   5.705  18.377  0.00  0.00    +0.000 C 
ATOM     25  C   UNL     1       3.936   5.116  19.599  0.00  0.00    +0.000 C 
ATOM     26  C   UNL     1       4.234   6.005  17.271  0.00  0.00    +0.000 C 
ENDBRANCH  17  24
ENDBRANCH  14  20
ENDBRANCH   1  14
BRANCH   4  27
ATOM     27  O   UNL     1       1.748  15.532  19.284  0.00  0.00    +0.000 OA
ATOM     28  H   UNL     1       1.028  15.228  18.709  0.00  0.00    +0.000 HD
ENDBRANCH   4  27
TORSDOF 5
ENDMDL
MODEL 5
REMARK VINA RESULT:      -7.1      5.774      8.086
REMARK  Name = 
REMARK  8 active torsions:
REMARK  status: ('A' for Active; 'I' for Inactive)
REMARK    1  A    between atoms: C_1  and  C_2
REMARK    2  A    between atoms: C_2  and  C_3
REMARK    3  A    between atoms: C_2  and  C_4
REMARK    4  A    between atoms: C_2  and  C_5
REMARK    5  A    between atoms: C_8  and  S_9
REMARK    6  A    between atoms: S_9  and  N_12
REMARK    7  A    between atoms: C_15  and  O_16
REMARK    8  A    between atoms: C_15  and  C_17
REMARK                            x       y       z     vdW  Elec       q    Type
REMARK                         _______ _______ _______ _____ _____    ______ ____
ROOT
ATOM      1  N   UNL     1       1.589  12.277  19.684  0.00  0.00    +0.000 NA
ATOM      2  C   UNL     1       1.784  13.222  20.808  0.00  0.00    +0.000 C 
ATOM      3  C   UNL     1       3.070  14.014  20.649  0.00  0.00    +0.000 C 
ATOM      4  C   UNL     1       3.172  14.718  19.282  0.00  0.00    +0.000 C 
ATOM      5  C   UNL     1       2.921  13.678  18.175  0.00  0.00    +0.000 C 
ATOM      6  C   UNL     1       1.596  12.939  18.363  0.00  0.00    +0.000 C 
ENDROOT
BRANCH   4   7
ATOM      7  C   UNL     1       4.534  15.428  19.188  0.00  0.00    +0.000 A 
ATOM      8  C   UNL     1       4.783  16.661  19.816  0.00  0.00    +0.000 A 
ATOM      9  C   UNL     1       5.974  17.362  19.596  0.00  0.00    +0.000 A 
ATOM     10  C   UNL     1       6.947  16.831  18.760  0.00  0.00    +0.000 A 
ATOM     11 CL   UNL     1       8.380  17.725  18.435  0.00  0.00    +0.000 Cl
ATOM     12  C   UNL     1       6.757  15.586  18.171  0.00  0.00    +0.000 A 
ATOM     13  C   UNL     1       5.565  14.889  18.388  0.00  0.00    +0.000 A 
ENDBRANCH   4   7
BRANCH   1  14
ATOM     14  S   UNL     1       0.365  11.104  19.931  0.00  0.00    +0.000 S 
ATOM     15  O   UNL     1      -0.680  11.360  18.955  0.00  0.00    +0.000 OA
ATOM     16  O   UNL     1       0.066  11.033  21.342  0.00  0.00    +0.000 OA
BRANCH  14  20
ATOM     17  C   UNL     1       2.419   7.153  18.739  0.00  0.00    +0.000 A 
ATOM     18  C   UNL     1       2.168   8.164  17.787  0.00  0.00    +0.000 A 
ATOM     19  C   UNL     1       1.544   9.367  18.136  0.00  0.00    +0.000 A 
ATOM     20  C   UNL     1       1.148   9.574  19.454  0.00  0.00    +0.000 A 
ATOM     21  C   UNL     1       1.397   8.602  20.424  0.00  0.00    +0.000 A 
ATOM     22  C   UNL     1       2.011   7.400  20.065  0.00  0.00    +0.000 A 
BRANCH  17  24
ATOM     23  C   UNL     1       3.865   5.196  19.580  0.00  0.00    +0.000 C 
ATOM     24  C   UNL     1       3.127   5.833  18.382  0.00  0.00    +0.000 C 
ATOM     25  C   UNL     1       4.171   6.066  17.268  0.00  0.00    +0.000 C 
ATOM     26  C   UNL     1       2.096   4.796  17.881  0.00  0.00    +0.000 C 
ENDBRANCH  17  24
ENDBRANCH  14  20
ENDBRANCH   1  14
BRANCH   4  27
ATOM     27  O   UNL     1       2.118  15.687  19.194  0.00  0.00    +0.000 OA
ATOM     28  H   UNL     1       2.039  16.148  20.044  0.00  0.00    +0.000 HD
ENDBRANCH   4  27
TORSDOF 5
ENDMDL
MODEL 6
REMARK VINA RESULT:      -7.1      5.815      8.173
REMARK  Name = 
REMARK  8 active torsions:
REMARK  status: ('A' for Active; 'I' for Inactive)
REMARK    1  A    between atoms: C_1  and  C_2
REMARK    2  A    between atoms: C_2  and  C_3
REMARK    3  A    between atoms: C_2  and  C_4
REMARK    4  A    between atoms: C_2  and  C_5
REMARK    5  A    between atoms: C_8  and  S_9
REMARK    6  A    between atoms: S_9  and  N_12
REMARK    7  A    between atoms: C_15  and  O_16
REMARK    8  A    between atoms: C_15  and  C_17
REMARK                            x       y       z     vdW  Elec       q    Type
REMARK                         _______ _______ _______ _____ _____    ______ ____
ROOT
ATOM      1  N   UNL     1       1.575  12.356  19.542  0.00  0.00    +0.000 NA
ATOM      2  C   UNL     1       1.815  13.214  20.726  0.00  0.00    +0.000 C 
ATOM      3  C   UNL     1       3.110  13.997  20.590  0.00  0.00    +0.000 C 
ATOM      4  C   UNL     1       3.187  14.797  19.276  0.00  0.00    +0.000 C 
ATOM      5  C   UNL     1       2.888  13.845  18.103  0.00  0.00    +0.000 C 
ATOM      6  C   UNL     1       1.557  13.114  18.274  0.00  0.00    +0.000 C 
ENDROOT
BRANCH   4   7
ATOM      7  C   UNL     1       4.557  15.493  19.196  0.00  0.00    +0.000 A 
ATOM      8  C   UNL     1       4.810  16.727  19.820  0.00  0.00    +0.000 A 
ATOM      9  C   UNL     1       6.011  17.414  19.611  0.00  0.00    +0.000 A 
ATOM     10  C   UNL     1       6.990  16.868  18.792  0.00  0.00    +0.000 A 
ATOM     11 CL   UNL     1       8.436  17.746  18.481  0.00  0.00    +0.000 Cl
ATOM     12  C   UNL     1       6.795  15.622  18.207  0.00  0.00    +0.000 A 
ATOM     13  C   UNL     1       5.593  14.938  18.413  0.00  0.00    +0.000 A 
ENDBRANCH   4   7
BRANCH   1  14
ATOM     14  S   UNL     1       0.339  11.187  19.738  0.00  0.00    +0.000 S 
ATOM     15  O   UNL     1      -0.629  11.401  18.675  0.00  0.00    +0.000 OA
ATOM     16  O   UNL     1      -0.068  11.165  21.123  0.00  0.00    +0.000 OA
BRANCH  14  20
ATOM     17  C   UNL     1       2.431   7.195  18.767  0.00  0.00    +0.000 A 
ATOM     18  C   UNL     1       1.997   7.495  20.075  0.00  0.00    +0.000 A 
ATOM     19  C   UNL     1       1.363   8.704  20.383  0.00  0.00    +0.000 A 
ATOM     20  C   UNL     1       1.161   9.644  19.378  0.00  0.00    +0.000 A 
ATOM     21  C   UNL     1       1.560   9.372  18.069  0.00  0.00    +0.000 A 
ATOM     22  C   UNL     1       2.202   8.167  17.773  0.00  0.00    +0.000 A 
BRANCH  17  24
ATOM     23  C   UNL     1       2.127   4.823  17.809  0.00  0.00    +0.000 C 
ATOM     24  C   UNL     1       3.108   5.861  18.400  0.00  0.00    +0.000 C 
ATOM     25  C   UNL     1       3.754   5.224  19.650  0.00  0.00    +0.000 C 
ATOM     26  C   UNL     1       4.209   6.097  17.342  0.00  0.00    +0.000 C 
ENDBRANCH  17  24
ENDBRANCH  14  20
ENDBRANCH   1  14
BRANCH   4  27
ATOM     27  O   UNL     1       2.147  15.786  19.288  0.00  0.00    +0.000 OA
ATOM     28  H   UNL     1       1.802  15.873  20.191  0.00  0.00    +0.000 HD
ENDBRANCH   4  27
TORSDOF 5
ENDMDL
MODEL 7
REMARK VINA RESULT:      -7.0      5.539      7.928
REMARK  Name = 
REMARK  8 active torsions:
REMARK  status: ('A' for Active; 'I' for Inactive)
REMARK    1  A    between atoms: C_1  and  C_2
REMARK    2  A    between atoms: C_2  and  C_3
REMARK    3  A    between atoms: C_2  and  C_4
REMARK    4  A    between atoms: C_2  and  C_5
REMARK    5  A    between atoms: C_8  and  S_9
REMARK    6  A    between atoms: S_9  and  N_12
REMARK    7  A    between atoms: C_15  and  O_16
REMARK    8  A    between atoms: C_15  and  C_17
REMARK                            x       y       z     vdW  Elec       q    Type
REMARK                         _______ _______ _______ _____ _____    ______ ____
ROOT
ATOM      1  N   UNL     1       1.401  12.030  19.763  0.00  0.00    +0.000 NA
ATOM      2  C   UNL     1       1.524  13.083  20.798  0.00  0.00    +0.000 C 
ATOM      3  C   UNL     1       2.732  13.969  20.547  0.00  0.00    +0.000 C 
ATOM      4  C   UNL     1       2.753  14.558  19.123  0.00  0.00    +0.000 C 
ATOM      5  C   UNL     1       2.582  13.408  18.114  0.00  0.00    +0.000 C 
ATOM      6  C   UNL     1       1.331  12.574  18.391  0.00  0.00    +0.000 C 
ENDROOT
BRANCH   4   7
ATOM      7  C   UNL     1       4.044  15.375  18.941  0.00  0.00    +0.000 A 
ATOM      8  C   UNL     1       5.106  14.930  18.134  0.00  0.00    +0.000 A 
ATOM      9  C   UNL     1       6.328  15.611  18.100  0.00  0.00    +0.000 A 
ATOM     10  C   UNL     1       6.501  16.763  18.855  0.00  0.00    +0.000 A 
ATOM     11 CL   UNL     1       8.025  17.560  18.866  0.00  0.00    +0.000 Cl
ATOM     12  C   UNL     1       5.451  17.263  19.617  0.00  0.00    +0.000 A 
ATOM     13  C   UNL     1       4.232  16.579  19.653  0.00  0.00    +0.000 A 
ENDBRANCH   4   7
BRANCH   1  14
ATOM     14  S   UNL     1       0.291  10.780  20.135  0.00  0.00    +0.000 S 
ATOM     15  O   UNL     1      -0.836  10.921  19.227  0.00  0.00    +0.000 OA
ATOM     16  O   UNL     1       0.095  10.740  21.565  0.00  0.00    +0.000 OA
BRANCH  14  20
ATOM     17  C   UNL     1       2.491   6.941  18.844  0.00  0.00    +0.000 A 
ATOM     18  C   UNL     1       2.018   7.105  20.162  0.00  0.00    +0.000 A 
ATOM     19  C   UNL     1       1.351   8.267  20.567  0.00  0.00    +0.000 A 
ATOM     20  C   UNL     1       1.154   9.296  19.652  0.00  0.00    +0.000 A 
ATOM     21  C   UNL     1       1.593   9.158  18.334  0.00  0.00    +0.000 A 
ATOM     22  C   UNL     1       2.268   8.000  17.941  0.00  0.00    +0.000 A 
BRANCH  17  24
ATOM     23  C   UNL     1       3.988   4.949  19.496  0.00  0.00    +0.000 C 
ATOM     24  C   UNL     1       3.206   5.661  18.370  0.00  0.00    +0.000 C 
ATOM     25  C   UNL     1       4.214   5.991  17.247  0.00  0.00    +0.000 C 
ATOM     26  C   UNL     1       2.174   4.648  17.824  0.00  0.00    +0.000 C 
ENDBRANCH  17  24
ENDBRANCH  14  20
ENDBRANCH   1  14
BRANCH   4  27
ATOM     27  O   UNL     1       1.615  15.419  18.974  0.00  0.00    +0.000 OA
ATOM     28  H   UNL     1       1.039  15.321  19.749  0.00  0.00    +0.000 HD
ENDBRANCH   4  27
TORSDOF 5
ENDMDL
MODEL 8
REMARK VINA RESULT:      -6.9      3.291      8.651
REMARK  Name = 
REMARK  8 active torsions:
REMARK  status: ('A' for Active; 'I' for Inactive)
REMARK    1  A    between atoms: C_1  and  C_2
REMARK    2  A    between atoms: C_2  and  C_3
REMARK    3  A    between atoms: C_2  and  C_4
REMARK    4  A    between atoms: C_2  and  C_5
REMARK    5  A    between atoms: C_8  and  S_9
REMARK    6  A    between atoms: S_9  and  N_12
REMARK    7  A    between atoms: C_15  and  O_16
REMARK    8  A    between atoms: C_15  and  C_17
REMARK                            x       y       z     vdW  Elec       q    Type
REMARK                         _______ _______ _______ _____ _____    ______ ____
ROOT
ATOM      1  N   UNL     1       2.972   5.050  19.176  0.00  0.00    +0.000 NA
ATOM      2  C   UNL     1       3.117   3.664  18.674  0.00  0.00    +0.000 C 
ATOM      3  C   UNL     1       3.868   3.628  17.354  0.00  0.00    +0.000 C 
ATOM      4  C   UNL     1       5.222   4.360  17.419  0.00  0.00    +0.000 C 
ATOM      5  C   UNL     1       4.990   5.773  17.985  0.00  0.00    +0.000 C 
ATOM      6  C   UNL     1       4.266   5.747  19.330  0.00  0.00    +0.000 C 
ENDROOT
BRANCH   4   7
ATOM      7  C   UNL     1       5.870   4.334  16.023  0.00  0.00    +0.000 A 
ATOM      8  C   UNL     1       7.090   4.977  15.750  0.00  0.00    +0.000 A 
ATOM      9  C   UNL     1       7.586   5.070  14.445  0.00  0.00    +0.000 A 
ATOM     10  C   UNL     1       6.882   4.502  13.392  0.00  0.00    +0.000 A 
ATOM     11 CL   UNL     1       7.457   4.678  11.781  0.00  0.00    +0.000 Cl
ATOM     12  C   UNL     1       5.701   3.809  13.637  0.00  0.00    +0.000 A 
ATOM     13  C   UNL     1       5.205   3.719  14.940  0.00  0.00    +0.000 A 
ENDBRANCH   4   7
BRANCH   1  14
ATOM     14  S   UNL     1       1.857   5.238  20.463  0.00  0.00    +0.000 S 
ATOM     15  O   UNL     1       2.597   5.066  21.702  0.00  0.00    +0.000 OA
ATOM     16  O   UNL     1       0.682   4.449  20.181  0.00  0.00    +0.000 OA
BRANCH  14  20
ATOM     17  C   UNL     1       0.728   9.701  20.219  0.00  0.00    +0.000 A 
ATOM     18  C   UNL     1       0.426   8.931  21.361  0.00  0.00    +0.000 A 
ATOM     19  C   UNL     1       0.761   7.575  21.447  0.00  0.00    +0.000 A 
ATOM     20  C   UNL     1       1.402   6.961  20.375  0.00  0.00    +0.000 A 
ATOM     21  C   UNL     1       1.732   7.698  19.237  0.00  0.00    +0.000 A 
ATOM     22  C   UNL     1       1.384   9.048  19.156  0.00  0.00    +0.000 A 
BRANCH  17  24
ATOM     23  C   UNL     1      -1.022  11.543  20.638  0.00  0.00    +0.000 C 
ATOM     24  C   UNL     1       0.391  11.200  20.113  0.00  0.00    +0.000 C 
ATOM     25  C   UNL     1       0.461  11.666  18.643  0.00  0.00    +0.000 C 
ATOM     26  C   UNL     1       1.397  12.030  20.942  0.00  0.00    +0.000 C 
ENDBRANCH  17  24
ENDBRANCH  14  20
ENDBRANCH   1  14
BRANCH   4  27
ATOM     27  O   UNL     1       6.064   3.668  18.352  0.00  0.00    +0.000 OA
ATOM     28  H   UNL     1       6.682   3.102  17.862  0.00  0.00    +0.000 HD
ENDBRANCH   4  27
TORSDOF 5
ENDMDL
MODEL 9
REMARK VINA RESULT:      -6.9      3.369      8.765
REMARK  Name = 
REMARK  8 active torsions:
REMARK  status: ('A' for Active; 'I' for Inactive)
REMARK    1  A    between atoms: C_1  and  C_2
REMARK    2  A    between atoms: C_2  and  C_3
REMARK    3  A    between atoms: C_2  and  C_4
REMARK    4  A    between atoms: C_2  and  C_5
REMARK    5  A    between atoms: C_8  and  S_9
REMARK    6  A    between atoms: S_9  and  N_12
REMARK    7  A    between atoms: C_15  and  O_16
REMARK    8  A    between atoms: C_15  and  C_17
REMARK                            x       y       z     vdW  Elec       q    Type
REMARK                         _______ _______ _______ _____ _____    ______ ____
ROOT
ATOM      1  N   UNL     1       2.905   5.094  19.155  0.00  0.00    +0.000 NA
ATOM      2  C   UNL     1       2.952   3.750  18.533  0.00  0.00    +0.000 C 
ATOM      3  C   UNL     1       3.628   3.793  17.173  0.00  0.00    +0.000 C 
ATOM      4  C   UNL     1       5.018   4.454  17.219  0.00  0.00    +0.000 C 
ATOM      5  C   UNL     1       4.888   5.823  17.911  0.00  0.00    +0.000 C 
ATOM      6  C   UNL     1       4.238   5.716  19.290  0.00  0.00    +0.000 C 
ENDROOT
BRANCH   4   7
ATOM      7  C   UNL     1       5.587   4.517  15.790  0.00  0.00    +0.000 A 
ATOM      8  C   UNL     1       4.920   3.949  14.691  0.00  0.00    +0.000 A 
ATOM      9  C   UNL     1       5.522   3.885  13.429  0.00  0.00    +0.000 A 
ATOM     10  C   UNL     1       6.794   4.408  13.240  0.00  0.00    +0.000 A 
ATOM     11 CL   UNL     1       7.560   4.266  11.707  0.00  0.00    +0.000 Cl
ATOM     12  C   UNL     1       7.456   5.030  14.292  0.00  0.00    +0.000 A 
ATOM     13  C   UNL     1       6.855   5.090  15.553  0.00  0.00    +0.000 A 
ENDBRANCH   4   7
BRANCH   1  14
ATOM     14  S   UNL     1       1.873   5.223  20.516  0.00  0.00    +0.000 S 
ATOM     15  O   UNL     1       2.691   5.013  21.699  0.00  0.00    +0.000 OA
ATOM     16  O   UNL     1       0.688   4.431  20.280  0.00  0.00    +0.000 OA
BRANCH  14  20
ATOM     17  C   UNL     1       0.594   9.651  20.539  0.00  0.00    +0.000 A 
ATOM     18  C   UNL     1       1.417   9.133  19.518  0.00  0.00    +0.000 A 
ATOM     19  C   UNL     1       1.814   7.791  19.500  0.00  0.00    +0.000 A 
ATOM     20  C   UNL     1       1.397   6.942  20.521  0.00  0.00    +0.000 A 
ATOM     21  C   UNL     1       0.567   7.419  21.537  0.00  0.00    +0.000 A 
ATOM     22  C   UNL     1       0.184   8.762  21.552  0.00  0.00    +0.000 A 
BRANCH  17  24
ATOM     23  C   UNL     1      -0.407  11.563  21.944  0.00  0.00    +0.000 C 
ATOM     24  C   UNL     1       0.125  11.119  20.563  0.00  0.00    +0.000 C 
ATOM     25  C   UNL     1      -1.010  11.338  19.540  0.00  0.00    +0.000 C 
ATOM     26  C   UNL     1       1.300  12.058  20.206  0.00  0.00    +0.000 C 
ENDBRANCH  17  24
ENDBRANCH  14  20
ENDBRANCH   1  14
BRANCH   4  27
ATOM     27  O   UNL     1       5.875   3.648  18.041  0.00  0.00    +0.000 OA
ATOM     28  H   UNL     1       5.392   3.388  18.842  0.00  0.00    +0.000 HD
ENDBRANCH   4  27
TORSDOF 5
ENDMDL
