MODEL 1
REMARK VINA RESULT:      -7.4      0.000      0.000
REMARK  Name = 
REMARK  6 active torsions:
REMARK  status: ('A' for Active; 'I' for Inactive)
REMARK    1  A    between atoms: C_1  and  C_2
REMARK    2  A    between atoms: C_2  and  N_3
REMARK    3  A    between atoms: C_8  and  C_9
REMARK    4  A    between atoms: N_11  and  C_12
REMARK    5  A    between atoms: C_12  and  C_13
REMARK    6  A    between atoms: C_17  and  C_18
REMARK                            x       y       z     vdW  Elec       q    Type
REMARK                         _______ _______ _______ _____ _____    ______ ____
ROOT
ATOM      1  C   UNL     1       5.312   6.916  16.337  0.00  0.00    +0.000 C 
ATOM      2  O   UNL     1       4.753   7.080  15.254  0.00  0.00    +0.000 OA
ATOM      3  N   UNL     1       4.644   6.984  17.541  0.00  0.00    +0.000 N 
ATOM      4  H   UNL     1       5.162   6.844  18.401  0.00  0.00    +0.000 HD
ENDROOT
BRANCH   1  10
ATOM      5  N   UNL     1       7.338   5.421  16.414  0.00  0.00    +0.000 N 
ATOM      6  C   UNL     1       7.756   4.990  17.663  0.00  0.00    +0.000 C 
ATOM      7  O   UNL     1       8.165   3.877  17.949  0.00  0.00    +0.000 OA
ATOM      8  C   UNL     1       7.521   6.108  18.644  0.00  0.00    +0.000 C 
ATOM      9  C   UNL     1       7.362   7.335  17.753  0.00  0.00    +0.000 C 
ATOM     10  C   UNL     1       6.843   6.788  16.428  0.00  0.00    +0.000 C 
BRANCH   5  12
ATOM     11  C   UNL     1       6.008   3.721  15.189  0.00  0.00    +0.000 C 
ATOM     12  C   UNL     1       7.267   4.569  15.236  0.00  0.00    +0.000 C 
ENDBRANCH   5  12
ENDBRANCH   1  10
BRANCH   3  13
ATOM     13  C   UNL     1       3.212   7.168  17.615  0.00  0.00    +0.000 C 
BRANCH  13  14
ATOM     14  C   UNL     1       2.592   6.290  18.677  0.00  0.00    +0.000 A 
ATOM     15  C   UNL     1       2.189   6.901  19.879  0.00  0.00    +0.000 A 
ATOM     16  C   UNL     1       1.628   6.156  20.910  0.00  0.00    +0.000 A 
ATOM     17  C   UNL     1       1.453   4.785  20.754  0.00  0.00    +0.000 A 
ATOM     18  C   UNL     1       1.846   4.137  19.569  0.00  0.00    +0.000 A 
ATOM     19  C   UNL     1       2.427   4.898  18.536  0.00  0.00    +0.000 A 
ATOM     20 CL   UNL     1       2.952   4.117  17.079  0.00  0.00    +0.000 Cl
BRANCH  18  21
ATOM     21  C   UNL     1       1.623   2.653  19.434  0.00  0.00    +0.000 C 
ATOM     22  F   UNL     1       2.756   1.972  19.087  0.00  0.00    +0.000 F 
ATOM     23  F   UNL     1       1.199   2.071  20.591  0.00  0.00    +0.000 F 
ATOM     24  F   UNL     1       0.708   2.330  18.479  0.00  0.00    +0.000 F 
ENDBRANCH  18  21
ENDBRANCH  13  14
ENDBRANCH   3  13
TORSDOF 5
ENDMDL
MODEL 2
REMARK VINA RESULT:      -7.1      0.610      1.044
REMARK  Name = 
REMARK  6 active torsions:
REMARK  status: ('A' for Active; 'I' for Inactive)
REMARK    1  A    between atoms: C_1  and  C_2
REMARK    2  A    between atoms: C_2  and  N_3
REMARK    3  A    between atoms: C_8  and  C_9
REMARK    4  A    between atoms: N_11  and  C_12
REMARK    5  A    between atoms: C_12  and  C_13
REMARK    6  A    between atoms: C_17  and  C_18
REMARK                            x       y       z     vdW  Elec       q    Type
REMARK                         _______ _______ _______ _____ _____    ______ ____
ROOT
ATOM      1  C   UNL     1       5.479   6.865  16.347  0.00  0.00    +0.000 C 
ATOM      2  O   UNL     1       4.977   7.225  15.283  0.00  0.00    +0.000 OA
ATOM      3  N   UNL     1       4.773   6.823  17.530  0.00  0.00    +0.000 N 
ATOM      4  H   UNL     1       5.245   6.520  18.374  0.00  0.00    +0.000 HD
ENDROOT
BRANCH   1  10
ATOM      5  N   UNL     1       7.334   5.409  17.233  0.00  0.00    +0.000 N 
ATOM      6  C   UNL     1       7.833   5.720  18.488  0.00  0.00    +0.000 C 
ATOM      7  O   UNL     1       8.151   4.929  19.360  0.00  0.00    +0.000 OA
ATOM      8  C   UNL     1       7.821   7.218  18.636  0.00  0.00    +0.000 C 
ATOM      9  C   UNL     1       7.698   7.716  17.200  0.00  0.00    +0.000 C 
ATOM     10  C   UNL     1       6.989   6.590  16.458  0.00  0.00    +0.000 C 
BRANCH   5  12
ATOM     11  C   UNL     1       6.535   4.005  15.350  0.00  0.00    +0.000 C 
ATOM     12  C   UNL     1       7.051   4.056  16.777  0.00  0.00    +0.000 C 
ENDBRANCH   5  12
ENDBRANCH   1  10
BRANCH   3  13
ATOM     13  C   UNL     1       3.360   7.121  17.591  0.00  0.00    +0.000 C 
BRANCH  13  14
ATOM     14  C   UNL     1       2.662   6.296  18.649  0.00  0.00    +0.000 A 
ATOM     15  C   UNL     1       2.230   6.955  19.814  0.00  0.00    +0.000 A 
ATOM     16  C   UNL     1       1.597   6.260  20.839  0.00  0.00    +0.000 A 
ATOM     17  C   UNL     1       1.381   4.892  20.714  0.00  0.00    +0.000 A 
ATOM     18  C   UNL     1       1.802   4.197  19.566  0.00  0.00    +0.000 A 
ATOM     19  C   UNL     1       2.454   4.907  18.539  0.00  0.00    +0.000 A 
ATOM     20 CL   UNL     1       3.015   4.066  17.129  0.00  0.00    +0.000 Cl
BRANCH  18  21
ATOM     21  C   UNL     1       1.532   2.718  19.462  0.00  0.00    +0.000 C 
ATOM     22  F   UNL     1       0.992   2.193  20.602  0.00  0.00    +0.000 F 
ATOM     23  F   UNL     1       0.649   2.407  18.473  0.00  0.00    +0.000 F 
ATOM     24  F   UNL     1       2.652   1.981  19.228  0.00  0.00    +0.000 F 
ENDBRANCH  18  21
ENDBRANCH  13  14
ENDBRANCH   3  13
TORSDOF 5
ENDMDL
MODEL 3
REMARK VINA RESULT:      -7.1      5.077      6.506
REMARK  Name = 
REMARK  6 active torsions:
REMARK  status: ('A' for Active; 'I' for Inactive)
REMARK    1  A    between atoms: C_1  and  C_2
REMARK    2  A    between atoms: C_2  and  N_3
REMARK    3  A    between atoms: C_8  and  C_9
REMARK    4  A    between atoms: N_11  and  C_12
REMARK    5  A    between atoms: C_12  and  C_13
REMARK    6  A    between atoms: C_17  and  C_18
REMARK                            x       y       z     vdW  Elec       q    Type
REMARK                         _______ _______ _______ _____ _____    ______ ____
ROOT
ATOM      1  C   UNL     1       2.176   5.534  19.454  0.00  0.00    +0.000 C 
ATOM      2  O   UNL     1       2.035   5.531  18.232  0.00  0.00    +0.000 OA
ATOM      3  N   UNL     1       2.204   6.692  20.200  0.00  0.00    +0.000 N 
ATOM      4  H   UNL     1       2.327   6.629  21.204  0.00  0.00    +0.000 HD
ENDROOT
BRANCH   1  10
ATOM      5  N   UNL     1       3.432   3.352  19.543  0.00  0.00    +0.000 N 
ATOM      6  C   UNL     1       2.811   2.245  18.986  0.00  0.00    +0.000 C 
ATOM      7  O   UNL     1       3.343   1.371  18.322  0.00  0.00    +0.000 OA
ATOM      8  C   UNL     1       1.333   2.355  19.254  0.00  0.00    +0.000 C 
ATOM      9  C   UNL     1       1.253   3.374  20.385  0.00  0.00    +0.000 C 
ATOM     10  C   UNL     1       2.498   4.238  20.219  0.00  0.00    +0.000 C 
BRANCH   5  12
ATOM     11  C   UNL     1       5.161   4.175  17.966  0.00  0.00    +0.000 C 
ATOM     12  C   UNL     1       4.839   3.678  19.364  0.00  0.00    +0.000 C 
ENDBRANCH   5  12
ENDBRANCH   1  10
BRANCH   3  13
ATOM     13  C   UNL     1       1.984   7.992  19.607  0.00  0.00    +0.000 C 
BRANCH  13  14
ATOM     14  C   UNL     1       1.122   8.868  20.489  0.00  0.00    +0.000 A 
ATOM     15  C   UNL     1       1.148   8.629  21.875  0.00  0.00    +0.000 A 
ATOM     16  C   UNL     1       0.370   9.381  22.748  0.00  0.00    +0.000 A 
ATOM     17  C   UNL     1      -0.447  10.390  22.249  0.00  0.00    +0.000 A 
ATOM     18  C   UNL     1      -0.503  10.657  20.869  0.00  0.00    +0.000 A 
ATOM     19  C   UNL     1       0.279   9.881  19.991  0.00  0.00    +0.000 A 
ATOM     20 CL   UNL     1       0.200  10.167  18.283  0.00  0.00    +0.000 Cl
BRANCH  18  21
ATOM     21  C   UNL     1      -1.387  11.772  20.372  0.00  0.00    +0.000 C 
ATOM     22  F   UNL     1      -2.280  11.361  19.423  0.00  0.00    +0.000 F 
ATOM     23  F   UNL     1      -2.145  12.329  21.356  0.00  0.00    +0.000 F 
ATOM     24  F   UNL     1      -0.695  12.790  19.791  0.00  0.00    +0.000 F 
ENDBRANCH  18  21
ENDBRANCH  13  14
ENDBRANCH   3  13
TORSDOF 5
ENDMDL
MODEL 4
REMARK VINA RESULT:      -7.0      4.228      5.782
REMARK  Name = 
REMARK  6 active torsions:
REMARK  status: ('A' for Active; 'I' for Inactive)
REMARK    1  A    between atoms: C_1  and  C_2
REMARK    2  A    between atoms: C_2  and  N_3
REMARK    3  A    between atoms: C_8  and  C_9
REMARK    4  A    between atoms: N_11  and  C_12
REMARK    5  A    between atoms: C_12  and  C_13
REMARK    6  A    between atoms: C_17  and  C_18
REMARK                            x       y       z     vdW  Elec       q    Type
REMARK                         _______ _______ _______ _____ _____    ______ ____
ROOT
ATOM      1  C   UNL     1       3.012   5.872  18.329  0.00  0.00    +0.000 C 
ATOM      2  O   UNL     1       4.199   6.090  18.569  0.00  0.00    +0.000 OA
ATOM      3  N   UNL     1       2.084   6.879  18.172  0.00  0.00    +0.000 N 
ATOM      4  H   UNL     1       1.120   6.635  17.979  0.00  0.00    +0.000 HD
ENDROOT
BRANCH   1  10
ATOM      5  N   UNL     1       2.883   3.638  19.485  0.00  0.00    +0.000 N 
ATOM      6  C   UNL     1       3.834   2.692  19.135  0.00  0.00    +0.000 C 
ATOM      7  O   UNL     1       4.407   1.924  19.889  0.00  0.00    +0.000 OA
ATOM      8  C   UNL     1       4.122   2.843  17.664  0.00  0.00    +0.000 C 
ATOM      9  C   UNL     1       2.929   3.641  17.149  0.00  0.00    +0.000 C 
ATOM     10  C   UNL     1       2.448   4.441  18.354  0.00  0.00    +0.000 C 
BRANCH   5  12
ATOM     11  C   UNL     1       1.335   2.989  21.312  0.00  0.00    +0.000 C 
ATOM     12  C   UNL     1       2.457   3.903  20.851  0.00  0.00    +0.000 C 
ENDBRANCH   5  12
ENDBRANCH   1  10
BRANCH   3  13
ATOM     13  C   UNL     1       2.457   8.276  18.191  0.00  0.00    +0.000 C 
BRANCH  13  14
ATOM     14  C   UNL     1       1.421   9.119  18.901  0.00  0.00    +0.000 A 
ATOM     15  C   UNL     1       0.818  10.163  18.176  0.00  0.00    +0.000 A 
ATOM     16  C   UNL     1      -0.129  10.993  18.766  0.00  0.00    +0.000 A 
ATOM     17  C   UNL     1      -0.496  10.788  20.092  0.00  0.00    +0.000 A 
ATOM     18  C   UNL     1       0.087   9.756  20.851  0.00  0.00    +0.000 A 
ATOM     19  C   UNL     1       1.056   8.930  20.249  0.00  0.00    +0.000 A 
ATOM     20 CL   UNL     1       1.815   7.674  21.173  0.00  0.00    +0.000 Cl
BRANCH  18  21
ATOM     21  C   UNL     1      -0.351   9.557  22.279  0.00  0.00    +0.000 C 
ATOM     22  F   UNL     1       0.688   9.594  23.166  0.00  0.00    +0.000 F 
ATOM     23  F   UNL     1      -1.219  10.515  22.707  0.00  0.00    +0.000 F 
ATOM     24  F   UNL     1      -0.959   8.358  22.493  0.00  0.00    +0.000 F 
ENDBRANCH  18  21
ENDBRANCH  13  14
ENDBRANCH   3  13
TORSDOF 5
ENDMDL
MODEL 5
REMARK VINA RESULT:      -7.0      4.859      6.336
REMARK  Name = 
REMARK  6 active torsions:
REMARK  status: ('A' for Active; 'I' for Inactive)
REMARK    1  A    between atoms: C_1  and  C_2
REMARK    2  A    between atoms: C_2  and  N_3
REMARK    3  A    between atoms: C_8  and  C_9
REMARK    4  A    between atoms: N_11  and  C_12
REMARK    5  A    between atoms: C_12  and  C_13
REMARK    6  A    between atoms: C_17  and  C_18
REMARK                            x       y       z     vdW  Elec       q    Type
REMARK                         _______ _______ _______ _____ _____    ______ ____
ROOT
ATOM      1  C   UNL     1       3.562   5.038  19.692  0.00  0.00    +0.000 C 
ATOM      2  O   UNL     1       4.737   5.385  19.587  0.00  0.00    +0.000 OA
ATOM      3  N   UNL     1       2.508   5.913  19.541  0.00  0.00    +0.000 N 
ATOM      4  H   UNL     1       1.561   5.568  19.644  0.00  0.00    +0.000 HD
ENDROOT
BRANCH   1  10
ATOM      5  N   UNL     1       2.532   2.800  19.166  0.00  0.00    +0.000 N 
ATOM      6  C   UNL     1       1.172   2.662  19.399  0.00  0.00    +0.000 C 
ATOM      7  O   UNL     1       0.371   2.073  18.694  0.00  0.00    +0.000 OA
ATOM      8  C   UNL     1       0.827   3.458  20.630  0.00  0.00    +0.000 C 
ATOM      9  C   UNL     1       2.178   3.672  21.305  0.00  0.00    +0.000 C 
ATOM     10  C   UNL     1       3.192   3.622  20.167  0.00  0.00    +0.000 C 
BRANCH   5  12
ATOM     11  C   UNL     1       3.190   3.279  16.822  0.00  0.00    +0.000 C 
ATOM     12  C   UNL     1       3.214   2.299  17.982  0.00  0.00    +0.000 C 
ENDBRANCH   5  12
ENDBRANCH   1  10
BRANCH   3  13
ATOM     13  C   UNL     1       2.706   7.294  19.161  0.00  0.00    +0.000 C 
BRANCH  13  14
ATOM     14  C   UNL     1       1.701   8.205  19.829  0.00  0.00    +0.000 A 
ATOM     15  C   UNL     1       1.237   7.844  21.107  0.00  0.00    +0.000 A 
ATOM     16  C   UNL     1       0.298   8.622  21.776  0.00  0.00    +0.000 A 
ATOM     17  C   UNL     1      -0.190   9.780  21.180  0.00  0.00    +0.000 A 
ATOM     18  C   UNL     1       0.247  10.173  19.901  0.00  0.00    +0.000 A 
ATOM     19  C   UNL     1       1.188   9.371  19.226  0.00  0.00    +0.000 A 
ATOM     20 CL   UNL     1       1.715   9.814  17.634  0.00  0.00    +0.000 Cl
BRANCH  18  21
ATOM     21  C   UNL     1      -0.293  11.444  19.299  0.00  0.00    +0.000 C 
ATOM     22  F   UNL     1      -1.195  12.076  20.107  0.00  0.00    +0.000 F 
ATOM     23  F   UNL     1       0.676  12.370  19.054  0.00  0.00    +0.000 F 
ATOM     24  F   UNL     1      -0.948  11.247  18.122  0.00  0.00    +0.000 F 
ENDBRANCH  18  21
ENDBRANCH  13  14
ENDBRANCH   3  13
TORSDOF 5
ENDMDL
MODEL 6
REMARK VINA RESULT:      -7.0      4.312      6.793
REMARK  Name = 
REMARK  6 active torsions:
REMARK  status: ('A' for Active; 'I' for Inactive)
REMARK    1  A    between atoms: C_1  and  C_2
REMARK    2  A    between atoms: C_2  and  N_3
REMARK    3  A    between atoms: C_8  and  C_9
REMARK    4  A    between atoms: N_11  and  C_12
REMARK    5  A    between atoms: C_12  and  C_13
REMARK    6  A    between atoms: C_17  and  C_18
REMARK                            x       y       z     vdW  Elec       q    Type
REMARK                         _______ _______ _______ _____ _____    ______ ____
ROOT
ATOM      1  C   UNL     1       0.814   9.407  19.478  0.00  0.00    +0.000 C 
ATOM      2  O   UNL     1       0.447   9.430  20.652  0.00  0.00    +0.000 OA
ATOM      3  N   UNL     1       1.723   8.490  18.997  0.00  0.00    +0.000 N 
ATOM      4  H   UNL     1       1.989   8.525  18.020  0.00  0.00    +0.000 HD
ENDROOT
BRANCH   1  10
ATOM      5  N   UNL     1       0.415  11.858  19.058  0.00  0.00    +0.000 N 
ATOM      6  C   UNL     1      -0.857  12.343  19.318  0.00  0.00    +0.000 C 
ATOM      7  O   UNL     1      -1.136  13.412  19.834  0.00  0.00    +0.000 OA
ATOM      8  C   UNL     1      -1.849  11.272  18.945  0.00  0.00    +0.000 C 
ATOM      9  C   UNL     1      -1.045  10.341  18.045  0.00  0.00    +0.000 C 
ATOM     10  C   UNL     1       0.400  10.517  18.496  0.00  0.00    +0.000 C 
BRANCH   5  12
ATOM     11  C   UNL     1       2.541  12.839  18.236  0.00  0.00    +0.000 C 
ATOM     12  C   UNL     1       1.644  12.546  19.426  0.00  0.00    +0.000 C 
ENDBRANCH   5  12
ENDBRANCH   1  10
BRANCH   3  13
ATOM     13  C   UNL     1       2.252   7.428  19.823  0.00  0.00    +0.000 C 
BRANCH  13  14
ATOM     14  C   UNL     1       2.707   6.250  18.992  0.00  0.00    +0.000 A 
ATOM     15  C   UNL     1       3.646   6.492  17.972  0.00  0.00    +0.000 A 
ATOM     16  C   UNL     1       4.098   5.462  17.154  0.00  0.00    +0.000 A 
ATOM     17  C   UNL     1       3.623   4.169  17.346  0.00  0.00    +0.000 A 
ATOM     18  C   UNL     1       2.681   3.888  18.352  0.00  0.00    +0.000 A 
ATOM     19  C   UNL     1       2.219   4.940  19.167  0.00  0.00    +0.000 A 
ATOM     20 CL   UNL     1       1.031   4.625  20.391  0.00  0.00    +0.000 Cl
BRANCH  18  21
ATOM     21  C   UNL     1       2.206   2.470  18.538  0.00  0.00    +0.000 C 
ATOM     22  F   UNL     1       2.463   1.981  19.788  0.00  0.00    +0.000 F 
ATOM     23  F   UNL     1       0.862   2.334  18.372  0.00  0.00    +0.000 F 
ATOM     24  F   UNL     1       2.795   1.588  17.685  0.00  0.00    +0.000 F 
ENDBRANCH  18  21
ENDBRANCH  13  14
ENDBRANCH   3  13
TORSDOF 5
ENDMDL
MODEL 7
REMARK VINA RESULT:      -6.9      5.404      6.827
REMARK  Name = 
REMARK  6 active torsions:
REMARK  status: ('A' for Active; 'I' for Inactive)
REMARK    1  A    between atoms: C_1  and  C_2
REMARK    2  A    between atoms: C_2  and  N_3
REMARK    3  A    between atoms: C_8  and  C_9
REMARK    4  A    between atoms: N_11  and  C_12
REMARK    5  A    between atoms: C_12  and  C_13
REMARK    6  A    between atoms: C_17  and  C_18
REMARK                            x       y       z     vdW  Elec       q    Type
REMARK                         _______ _______ _______ _____ _____    ______ ____
ROOT
ATOM      1  C   UNL     1       2.241   6.012  19.720  0.00  0.00    +0.000 C 
ATOM      2  O   UNL     1       2.388   6.109  18.502  0.00  0.00    +0.000 OA
ATOM      3  N   UNL     1       1.930   7.089  20.522  0.00  0.00    +0.000 N 
ATOM      4  H   UNL     1       1.826   6.946  21.520  0.00  0.00    +0.000 HD
ENDROOT
BRANCH   1  10
ATOM      5  N   UNL     1       3.316   3.735  19.672  0.00  0.00    +0.000 N 
ATOM      6  C   UNL     1       2.534   2.679  19.228  0.00  0.00    +0.000 C 
ATOM      7  O   UNL     1       2.894   1.760  18.513  0.00  0.00    +0.000 OA
ATOM      8  C   UNL     1       1.123   2.914  19.699  0.00  0.00    +0.000 C 
ATOM      9  C   UNL     1       1.286   3.944  20.811  0.00  0.00    +0.000 C 
ATOM     10  C   UNL     1       2.562   4.700  20.456  0.00  0.00    +0.000 C 
BRANCH   5  12
ATOM     11  C   UNL     1       4.893   4.108  17.794  0.00  0.00    +0.000 C 
ATOM     12  C   UNL     1       4.705   3.941  19.292  0.00  0.00    +0.000 C 
ENDBRANCH   5  12
ENDBRANCH   1  10
BRANCH   3  13
ATOM     13  C   UNL     1       1.667   8.402  19.977  0.00  0.00    +0.000 C 
BRANCH  13  14
ATOM     14  C   UNL     1       0.798   9.225  20.901  0.00  0.00    +0.000 A 
ATOM     15  C   UNL     1       0.776   8.876  22.264  0.00  0.00    +0.000 A 
ATOM     16  C   UNL     1      -0.013   9.574  23.171  0.00  0.00    +0.000 A 
ATOM     17  C   UNL     1      -0.791  10.640  22.731  0.00  0.00    +0.000 A 
ATOM     18  C   UNL     1      -0.799  11.017  21.376  0.00  0.00    +0.000 A 
ATOM     19  C   UNL     1      -0.007  10.295  20.462  0.00  0.00    +0.000 A 
ATOM     20 CL   UNL     1      -0.027  10.717  18.780  0.00  0.00    +0.000 Cl
BRANCH  18  21
ATOM     21  C   UNL     1      -1.643  12.188  20.944  0.00  0.00    +0.000 C 
ATOM     22  F   UNL     1      -2.376  12.723  21.966  0.00  0.00    +0.000 F 
ATOM     23  F   UNL     1      -0.905  13.223  20.456  0.00  0.00    +0.000 F 
ATOM     24  F   UNL     1      -2.553  11.872  19.983  0.00  0.00    +0.000 F 
ENDBRANCH  18  21
ENDBRANCH  13  14
ENDBRANCH   3  13
TORSDOF 5
ENDMDL
MODEL 8
REMARK VINA RESULT:      -6.9      4.370      7.100
REMARK  Name = 
REMARK  6 active torsions:
REMARK  status: ('A' for Active; 'I' for Inactive)
REMARK    1  A    between atoms: C_1  and  C_2
REMARK    2  A    between atoms: C_2  and  N_3
REMARK    3  A    between atoms: C_8  and  C_9
REMARK    4  A    between atoms: N_11  and  C_12
REMARK    5  A    between atoms: C_12  and  C_13
REMARK    6  A    between atoms: C_17  and  C_18
REMARK                            x       y       z     vdW  Elec       q    Type
REMARK                         _______ _______ _______ _____ _____    ______ ____
ROOT
ATOM      1  C   UNL     1       0.875   9.204  20.897  0.00  0.00    +0.000 C 
ATOM      2  O   UNL     1       0.485   8.998  22.046  0.00  0.00    +0.000 OA
ATOM      3  N   UNL     1       1.591   8.275  20.174  0.00  0.00    +0.000 N 
ATOM      4  H   UNL     1       1.887   8.506  19.233  0.00  0.00    +0.000 HD
ENDROOT
BRANCH   1  10
ATOM      5  N   UNL     1      -0.571  11.215  20.440  0.00  0.00    +0.000 N 
ATOM      6  C   UNL     1      -1.358  11.179  19.299  0.00  0.00    +0.000 C 
ATOM      7  O   UNL     1      -2.504  11.581  19.194  0.00  0.00    +0.000 OA
ATOM      8  C   UNL     1      -0.587  10.458  18.225  0.00  0.00    +0.000 C 
ATOM      9  C   UNL     1       0.851  10.501  18.730  0.00  0.00    +0.000 C 
ATOM     10  C   UNL     1       0.727  10.590  20.246  0.00  0.00    +0.000 C 
BRANCH   5  12
ATOM     11  C   UNL     1      -0.444  13.050  22.106  0.00  0.00    +0.000 C 
ATOM     12  C   UNL     1      -1.029  11.698  21.735  0.00  0.00    +0.000 C 
ENDBRANCH   5  12
ENDBRANCH   1  10
BRANCH   3  13
ATOM     13  C   UNL     1       1.866   6.951  20.684  0.00  0.00    +0.000 C 
BRANCH  13  14
ATOM     14  C   UNL     1       2.326   6.016  19.588  0.00  0.00    +0.000 A 
ATOM     15  C   UNL     1       3.156   6.544  18.582  0.00  0.00    +0.000 A 
ATOM     16  C   UNL     1       3.604   5.751  17.531  0.00  0.00    +0.000 A 
ATOM     17  C   UNL     1       3.233   4.412  17.471  0.00  0.00    +0.000 A 
ATOM     18  C   UNL     1       2.401   3.848  18.456  0.00  0.00    +0.000 A 
ATOM     19  C   UNL     1       1.941   4.663  19.509  0.00  0.00    +0.000 A 
ATOM     20 CL   UNL     1       0.886   4.001  20.715  0.00  0.00    +0.000 Cl
BRANCH  18  21
ATOM     21  C   UNL     1       2.038   2.388  18.363  0.00  0.00    +0.000 C 
ATOM     22  F   UNL     1       2.477   1.802  17.210  0.00  0.00    +0.000 F 
ATOM     23  F   UNL     1       2.574   1.642  19.368  0.00  0.00    +0.000 F 
ATOM     24  F   UNL     1       0.696   2.164  18.387  0.00  0.00    +0.000 F 
ENDBRANCH  18  21
ENDBRANCH  13  14
ENDBRANCH   3  13
TORSDOF 5
ENDMDL
MODEL 9
REMARK VINA RESULT:      -6.8      5.411      6.775
REMARK  Name = 
REMARK  6 active torsions:
REMARK  status: ('A' for Active; 'I' for Inactive)
REMARK    1  A    between atoms: C_1  and  C_2
REMARK    2  A    between atoms: C_2  and  N_3
REMARK    3  A    between atoms: C_8  and  C_9
REMARK    4  A    between atoms: N_11  and  C_12
REMARK    5  A    between atoms: C_12  and  C_13
REMARK    6  A    between atoms: C_17  and  C_18
REMARK                            x       y       z     vdW  Elec       q    Type
REMARK                         _______ _______ _______ _____ _____    ______ ____
ROOT
ATOM      1  C   UNL     1       2.745   6.481  19.014  0.00  0.00    +0.000 C 
ATOM      2  O   UNL     1       3.323   6.913  18.017  0.00  0.00    +0.000 OA
ATOM      3  N   UNL     1       1.951   7.270  19.818  0.00  0.00    +0.000 N 
ATOM      4  H   UNL     1       1.505   6.856  20.628  0.00  0.00    +0.000 HD
ENDROOT
BRANCH   1  10
ATOM      5  N   UNL     1       2.479   3.999  18.675  0.00  0.00    +0.000 N 
ATOM      6  C   UNL     1       1.338   3.411  19.196  0.00  0.00    +0.000 C 
ATOM      7  O   UNL     1       0.663   2.541  18.671  0.00  0.00    +0.000 OA
ATOM      8  C   UNL     1       1.006   4.104  20.491  0.00  0.00    +0.000 C 
ATOM      9  C   UNL     1       2.307   4.812  20.858  0.00  0.00    +0.000 C 
ATOM     10  C   UNL     1       3.006   5.054  19.526  0.00  0.00    +0.000 C 
BRANCH   5  12
ATOM     11  C   UNL     1       4.544   3.678  17.336  0.00  0.00    +0.000 C 
ATOM     12  C   UNL     1       3.025   3.701  17.358  0.00  0.00    +0.000 C 
ENDBRANCH   5  12
ENDBRANCH   1  10
BRANCH   3  13
ATOM     13  C   UNL     1       1.669   8.652  19.499  0.00  0.00    +0.000 C 
BRANCH  13  14
ATOM     14  C   UNL     1       0.877   9.326  20.596  0.00  0.00    +0.000 A 
ATOM     15  C   UNL     1       0.982   8.802  21.898  0.00  0.00    +0.000 A 
ATOM     16  C   UNL     1       0.270   9.357  22.955  0.00  0.00    +0.000 A 
ATOM     17  C   UNL     1      -0.558  10.451  22.730  0.00  0.00    +0.000 A 
ATOM     18  C   UNL     1      -0.693  11.002  21.442  0.00  0.00    +0.000 A 
ATOM     19  C   UNL     1       0.022  10.424  20.375  0.00  0.00    +0.000 A 
ATOM     20 CL   UNL     1      -0.155  11.062  18.771  0.00  0.00    +0.000 Cl
BRANCH  18  21
ATOM     21  C   UNL     1      -1.587  12.199  21.244  0.00  0.00    +0.000 C 
ATOM     22  F   UNL     1      -2.590  11.973  20.344  0.00  0.00    +0.000 F 
ATOM     23  F   UNL     1      -2.216  12.588  22.388  0.00  0.00    +0.000 F 
ATOM     24  F   UNL     1      -0.927  13.292  20.773  0.00  0.00    +0.000 F 
ENDBRANCH  18  21
ENDBRANCH  13  14
ENDBRANCH   3  13
TORSDOF 5
ENDMDL
