MODEL 1
REMARK VINA RESULT:      -7.6      0.000      0.000
REMARK  Name = 
REMARK  7 active torsions:
REMARK  status: ('A' for Active; 'I' for Inactive)
REMARK    1  A    between atoms: C_1  and  N_2
REMARK    2  A    between atoms: N_2  and  C_3
REMARK    3  A    between atoms: N_2  and  C_4
REMARK    4  A    between atoms: C_7  and  C_8
REMARK    5  A    between atoms: C_17  and  O_18
REMARK    6  A    between atoms: C_21  and  C_22
REMARK    7  A    between atoms: C_26  and  C_27
REMARK                            x       y       z     vdW  Elec       q    Type
REMARK                         _______ _______ _______ _____ _____    ______ ____
ROOT
ATOM      1  C   UNL     1       2.997   6.310  18.956  0.00  0.00    +0.000 C 
ATOM      2  C   UNL     1       4.159   5.859  18.436  0.00  0.00    +0.000 C 
ATOM      3  C   UNL     1       5.032   7.253  17.594  0.00  0.00    +0.000 C 
ATOM      4  C   UNL     1       6.286   6.685  16.804  0.00  0.00    +0.000 C 
ATOM      5  C   UNL     1       5.926   5.782  17.747  0.00  0.00    +0.000 C 
ATOM      6  C   UNL     1       5.902   5.461  19.639  0.00  0.00    +0.000 C 
ATOM      7  C   UNL     1       4.693   4.361  20.226  0.00  0.00    +0.000 C 
ATOM      8  C   UNL     1       3.571   3.759  19.570  0.00  0.00    +0.000 C 
ATOM      9  C   UNL     1       2.524   3.267  20.573  0.00  0.00    +0.000 C 
ATOM     10  C   UNL     1       1.066   3.635  20.276  0.00  0.00    +0.000 C 
ATOM     11  C   UNL     1       0.713   3.283  18.833  0.00  0.00    +0.000 C 
ATOM     12  C   UNL     1       1.481   4.087  17.736  0.00  0.00    +0.000 C 
ATOM     13  C   UNL     1       3.074   3.861  17.770  0.00  0.00    +0.000 C 
ATOM     14  C   UNL     1       3.098   2.452  17.042  0.00  0.00    +0.000 C 
ATOM     15  C   UNL     1       4.171   5.091  16.664  0.00  0.00    +0.000 C 
ATOM     16  C   UNL     1       4.396   4.472  15.261  0.00  0.00    +0.000 C 
ATOM     17  C   UNL     1       5.643   5.152  14.925  0.00  0.00    +0.000 C 
ATOM     18  C   UNL     1       6.290   4.980  16.303  0.00  0.00    +0.000 C 
ATOM     19  C   UNL     1       7.710   4.386  16.101  0.00  0.00    +0.000 C 
ATOM     20  C   UNL     1       5.271   4.160  17.819  0.00  0.00    +0.000 C 
ATOM     21  O   UNL     1       5.556   3.037  18.229  0.00  0.00    +0.000 OA
ENDROOT
BRANCH   1  25
ATOM     22  C   UNL     1       0.491   9.730  19.132  0.00  0.00    +0.000 A 
ATOM     23  C   UNL     1       1.026   9.306  17.913  0.00  0.00    +0.000 A 
ATOM     24  C   UNL     1       1.964   8.280  17.869  0.00  0.00    +0.000 A 
ATOM     25  C   UNL     1       2.348   7.613  19.042  0.00  0.00    +0.000 A 
ATOM     26  C   UNL     1       1.852   8.028  20.259  0.00  0.00    +0.000 A 
ATOM     27  C   UNL     1       0.939   9.071  20.294  0.00  0.00    +0.000 A 
BRANCH  22  29
ATOM     28  C   UNL     1      -0.745  11.362  20.506  0.00  0.00    +0.000 C 
ATOM     29  N   UNL     1      -0.480  10.731  19.219  0.00  0.00    +0.000 N 
ATOM     30  C   UNL     1      -1.602  10.585  18.299  0.00  0.00    +0.000 C 
ENDBRANCH  22  29
ENDBRANCH   1  25
BRANCH  10  31
ATOM     31  O   UNL     1       0.711   4.988  20.568  0.00  0.00    +0.000 OA
ATOM     32  H   UNL     1       0.040   5.008  21.277  0.00  0.00    +0.000 HD
ENDBRANCH  10  31
TORSDOF 3
ENDMDL
MODEL 2
REMARK VINA RESULT:      -7.5      0.717      1.208
REMARK  Name = 
REMARK  7 active torsions:
REMARK  status: ('A' for Active; 'I' for Inactive)
REMARK    1  A    between atoms: C_1  and  N_2
REMARK    2  A    between atoms: N_2  and  C_3
REMARK    3  A    between atoms: N_2  and  C_4
REMARK    4  A    between atoms: C_7  and  C_8
REMARK    5  A    between atoms: C_17  and  O_18
REMARK    6  A    between atoms: C_21  and  C_22
REMARK    7  A    between atoms: C_26  and  C_27
REMARK                            x       y       z     vdW  Elec       q    Type
REMARK                         _______ _______ _______ _____ _____    ______ ____
ROOT
ATOM      1  C   UNL     1       2.761   6.090  18.928  0.00  0.00    +0.000 C 
ATOM      2  C   UNL     1       3.964   5.732  18.428  0.00  0.00    +0.000 C 
ATOM      3  C   UNL     1       4.704   7.168  17.531  0.00  0.00    +0.000 C 
ATOM      4  C   UNL     1       6.010   6.693  16.767  0.00  0.00    +0.000 C 
ATOM      5  C   UNL     1       5.733   5.798  17.745  0.00  0.00    +0.000 C 
ATOM      6  C   UNL     1       5.731   5.553  19.648  0.00  0.00    +0.000 C 
ATOM      7  C   UNL     1       4.630   4.366  20.278  0.00  0.00    +0.000 C 
ATOM      8  C   UNL     1       3.575   3.632  19.645  0.00  0.00    +0.000 C 
ATOM      9  C   UNL     1       2.575   3.082  20.666  0.00  0.00    +0.000 C 
ATOM     10  C   UNL     1       1.090   3.296  20.353  0.00  0.00    +0.000 C 
ATOM     11  C   UNL     1       0.780   2.854  18.924  0.00  0.00    +0.000 C 
ATOM     12  C   UNL     1       1.472   3.683  17.797  0.00  0.00    +0.000 C 
ATOM     13  C   UNL     1       3.080   3.613  17.842  0.00  0.00    +0.000 C 
ATOM     14  C   UNL     1       3.243   2.185  17.172  0.00  0.00    +0.000 C 
ATOM     15  C   UNL     1       4.058   4.898  16.689  0.00  0.00    +0.000 C 
ATOM     16  C   UNL     1       4.349   4.248  15.312  0.00  0.00    +0.000 C 
ATOM     17  C   UNL     1       5.527   5.031  14.951  0.00  0.00    +0.000 C 
ATOM     18  C   UNL     1       6.181   4.977  16.336  0.00  0.00    +0.000 C 
ATOM     19  C   UNL     1       7.652   4.516  16.159  0.00  0.00    +0.000 C 
ATOM     20  C   UNL     1       5.238   4.124  17.882  0.00  0.00    +0.000 C 
ATOM     21  O   UNL     1       5.627   3.051  18.337  0.00  0.00    +0.000 OA
ENDROOT
BRANCH   1  25
ATOM     22  C   UNL     1       1.158  10.014  19.115  0.00  0.00    +0.000 A 
ATOM     23  C   UNL     1       1.262   9.236  20.270  0.00  0.00    +0.000 A 
ATOM     24  C   UNL     1       1.646   7.901  20.194  0.00  0.00    +0.000 A 
ATOM     25  C   UNL     1       1.989   7.327  18.961  0.00  0.00    +0.000 A 
ATOM     26  C   UNL     1       1.873   8.066  17.804  0.00  0.00    +0.000 A 
ATOM     27  C   UNL     1       1.461   9.388  17.889  0.00  0.00    +0.000 A 
BRANCH  22  29
ATOM     28  C   UNL     1      -0.578  11.757  18.952  0.00  0.00    +0.000 C 
ATOM     29  N   UNL     1       0.813  11.367  19.148  0.00  0.00    +0.000 N 
ATOM     30  C   UNL     1       1.840  12.280  18.661  0.00  0.00    +0.000 C 
ENDBRANCH  22  29
ENDBRANCH   1  25
BRANCH  10  31
ATOM     31  O   UNL     1       0.605   4.619  20.590  0.00  0.00    +0.000 OA
ATOM     32  H   UNL     1       0.302   5.015  19.750  0.00  0.00    +0.000 HD
ENDBRANCH  10  31
TORSDOF 3
ENDMDL
MODEL 3
REMARK VINA RESULT:      -7.2      9.288     11.430
REMARK  Name = 
REMARK  7 active torsions:
REMARK  status: ('A' for Active; 'I' for Inactive)
REMARK    1  A    between atoms: C_1  and  N_2
REMARK    2  A    between atoms: N_2  and  C_3
REMARK    3  A    between atoms: N_2  and  C_4
REMARK    4  A    between atoms: C_7  and  C_8
REMARK    5  A    between atoms: C_17  and  O_18
REMARK    6  A    between atoms: C_21  and  C_22
REMARK    7  A    between atoms: C_26  and  C_27
REMARK                            x       y       z     vdW  Elec       q    Type
REMARK                         _______ _______ _______ _____ _____    ______ ____
ROOT
ATOM      1  C   UNL     1       8.340  13.878  21.448  0.00  0.00    +0.000 C 
ATOM      2  C   UNL     1       8.898  13.768  20.222  0.00  0.00    +0.000 C 
ATOM      3  C   UNL     1       9.063  11.980  19.786  0.00  0.00    +0.000 C 
ATOM      4  C   UNL     1       9.906  11.842  18.449  0.00  0.00    +0.000 C 
ATOM      5  C   UNL     1       9.418  13.103  18.522  0.00  0.00    +0.000 C 
ATOM      6  C   UNL     1       7.805  14.136  18.402  0.00  0.00    +0.000 C 
ATOM      7  C   UNL     1       7.787  15.653  19.249  0.00  0.00    +0.000 C 
ATOM      8  C   UNL     1       8.714  16.219  20.184  0.00  0.00    +0.000 C 
ATOM      9  C   UNL     1       8.067  17.320  21.027  0.00  0.00    +0.000 C 
ATOM     10  C   UNL     1       8.316  17.260  22.538  0.00  0.00    +0.000 C 
ATOM     11  C   UNL     1       9.807  17.095  22.825  0.00  0.00    +0.000 C 
ATOM     12  C   UNL     1      10.442  15.755  22.337  0.00  0.00    +0.000 C 
ATOM     13  C   UNL     1      10.369  15.551  20.743  0.00  0.00    +0.000 C 
ATOM     14  C   UNL     1      11.580  16.500  20.358  0.00  0.00    +0.000 C 
ATOM     15  C   UNL     1      10.822  13.745  20.055  0.00  0.00    +0.000 C 
ATOM     16  C   UNL     1      12.331  13.680  19.711  0.00  0.00    +0.000 C 
ATOM     17  C   UNL     1      12.277  12.623  18.706  0.00  0.00    +0.000 C 
ATOM     18  C   UNL     1      11.024  13.148  17.996  0.00  0.00    +0.000 C 
ATOM     19  C   UNL     1      11.324  13.220  16.475  0.00  0.00    +0.000 C 
ATOM     20  C   UNL     1      10.031  14.733  18.709  0.00  0.00    +0.000 C 
ATOM     21  O   UNL     1      10.064  15.809  18.118  0.00  0.00    +0.000 OA
ENDROOT
BRANCH   1  25
ATOM     22  C   UNL     1       6.862  11.675  24.759  0.00  0.00    +0.000 A 
ATOM     23  C   UNL     1       8.221  11.645  24.439  0.00  0.00    +0.000 A 
ATOM     24  C   UNL     1       8.688  12.242  23.272  0.00  0.00    +0.000 A 
ATOM     25  C   UNL     1       7.810  12.933  22.424  0.00  0.00    +0.000 A 
ATOM     26  C   UNL     1       6.461  12.957  22.705  0.00  0.00    +0.000 A 
ATOM     27  C   UNL     1       6.003  12.334  23.856  0.00  0.00    +0.000 A 
BRANCH  22  29
ATOM     28  C   UNL     1       4.969  10.672  25.979  0.00  0.00    +0.000 C 
ATOM     29  N   UNL     1       6.355  11.121  25.937  0.00  0.00    +0.000 N 
ATOM     30  C   UNL     1       6.923  11.660  27.167  0.00  0.00    +0.000 C 
ENDBRANCH  22  29
ENDBRANCH   1  25
BRANCH  10  31
ATOM     31  O   UNL     1       7.553  16.275  23.239  0.00  0.00    +0.000 OA
ATOM     32  H   UNL     1       6.615  16.337  22.980  0.00  0.00    +0.000 HD
ENDBRANCH  10  31
TORSDOF 3
ENDMDL
MODEL 4
REMARK VINA RESULT:      -6.6      9.541     11.684
REMARK  Name = 
REMARK  7 active torsions:
REMARK  status: ('A' for Active; 'I' for Inactive)
REMARK    1  A    between atoms: C_1  and  N_2
REMARK    2  A    between atoms: N_2  and  C_3
REMARK    3  A    between atoms: N_2  and  C_4
REMARK    4  A    between atoms: C_7  and  C_8
REMARK    5  A    between atoms: C_17  and  O_18
REMARK    6  A    between atoms: C_21  and  C_22
REMARK    7  A    between atoms: C_26  and  C_27
REMARK                            x       y       z     vdW  Elec       q    Type
REMARK                         _______ _______ _______ _____ _____    ______ ____
ROOT
ATOM      1  C   UNL     1       8.237  14.480  21.120  0.00  0.00    +0.000 C 
ATOM      2  C   UNL     1       8.829  14.218  19.935  0.00  0.00    +0.000 C 
ATOM      3  C   UNL     1       9.173  12.407  19.811  0.00  0.00    +0.000 C 
ATOM      4  C   UNL     1      10.054  12.127  18.522  0.00  0.00    +0.000 C 
ATOM      5  C   UNL     1       9.446  13.329  18.376  0.00  0.00    +0.000 C 
ATOM      6  C   UNL     1       7.746  14.164  18.073  0.00  0.00    +0.000 C 
ATOM      7  C   UNL     1       7.566  15.794  18.648  0.00  0.00    +0.000 C 
ATOM      8  C   UNL     1       8.415  16.597  19.477  0.00  0.00    +0.000 C 
ATOM      9  C   UNL     1       7.648  17.758  20.116  0.00  0.00    +0.000 C 
ATOM     10  C   UNL     1       7.868  17.980  21.617  0.00  0.00    +0.000 C 
ATOM     11  C   UNL     1       9.361  18.011  21.935  0.00  0.00    +0.000 C 
ATOM     12  C   UNL     1      10.131  16.675  21.687  0.00  0.00    +0.000 C 
ATOM     13  C   UNL     1      10.113  16.198  20.150  0.00  0.00    +0.000 C 
ATOM     14  C   UNL     1      11.236  17.182  19.615  0.00  0.00    +0.000 C 
ATOM     15  C   UNL     1      10.749  14.354  19.784  0.00  0.00    +0.000 C 
ATOM     16  C   UNL     1      12.266  14.379  19.464  0.00  0.00    +0.000 C 
ATOM     17  C   UNL     1      12.333  13.167  18.654  0.00  0.00    +0.000 C 
ATOM     18  C   UNL     1      11.053  13.439  17.859  0.00  0.00    +0.000 C 
ATOM     19  C   UNL     1      11.377  13.281  16.349  0.00  0.00    +0.000 C 
ATOM     20  C   UNL     1       9.898  15.018  18.284  0.00  0.00    +0.000 C 
ATOM     21  O   UNL     1       9.842  15.977  17.518  0.00  0.00    +0.000 OA
ENDROOT
BRANCH   1  25
ATOM     22  C   UNL     1       6.796  12.749  24.717  0.00  0.00    +0.000 A 
ATOM     23  C   UNL     1       8.166  12.948  24.526  0.00  0.00    +0.000 A 
ATOM     24  C   UNL     1       8.655  13.375  23.296  0.00  0.00    +0.000 A 
ATOM     25  C   UNL     1       7.778  13.667  22.241  0.00  0.00    +0.000 A 
ATOM     26  C   UNL     1       6.425  13.456  22.396  0.00  0.00    +0.000 A 
ATOM     27  C   UNL     1       5.951  13.003  23.618  0.00  0.00    +0.000 A 
BRANCH  22  29
ATOM     28  C   UNL     1       6.943  12.724  27.177  0.00  0.00    +0.000 C 
ATOM     29  N   UNL     1       6.258  12.357  25.945  0.00  0.00    +0.000 N 
ATOM     30  C   UNL     1       5.542  11.087  25.928  0.00  0.00    +0.000 C 
ENDBRANCH  22  29
ENDBRANCH   1  25
BRANCH  10  31
ATOM     31  O   UNL     1       7.188  17.058  22.472  0.00  0.00    +0.000 OA
ATOM     32  H   UNL     1       6.251  16.991  22.206  0.00  0.00    +0.000 HD
ENDBRANCH  10  31
TORSDOF 3
ENDMDL
MODEL 5
REMARK VINA RESULT:      -6.5      8.982     11.113
REMARK  Name = 
REMARK  7 active torsions:
REMARK  status: ('A' for Active; 'I' for Inactive)
REMARK    1  A    between atoms: C_1  and  N_2
REMARK    2  A    between atoms: N_2  and  C_3
REMARK    3  A    between atoms: N_2  and  C_4
REMARK    4  A    between atoms: C_7  and  C_8
REMARK    5  A    between atoms: C_17  and  O_18
REMARK    6  A    between atoms: C_21  and  C_22
REMARK    7  A    between atoms: C_26  and  C_27
REMARK                            x       y       z     vdW  Elec       q    Type
REMARK                         _______ _______ _______ _____ _____    ______ ____
ROOT
ATOM      1  C   UNL     1       7.241  15.475  19.369  0.00  0.00    +0.000 C 
ATOM      2  C   UNL     1       8.434  14.924  19.052  0.00  0.00    +0.000 C 
ATOM      3  C   UNL     1       8.152  13.330  18.161  0.00  0.00    +0.000 C 
ATOM      4  C   UNL     1       9.539  12.581  17.976  0.00  0.00    +0.000 C 
ATOM      5  C   UNL     1       9.785  13.892  18.210  0.00  0.00    +0.000 C 
ATOM      6  C   UNL     1       9.660  15.642  17.432  0.00  0.00    +0.000 C 
ATOM      7  C   UNL     1       9.551  16.978  18.537  0.00  0.00    +0.000 C 
ATOM      8  C   UNL     1       9.365  17.011  19.957  0.00  0.00    +0.000 C 
ATOM      9  C   UNL     1       8.847  18.373  20.429  0.00  0.00    +0.000 C 
ATOM     10  C   UNL     1       7.667  18.354  21.407  0.00  0.00    +0.000 C 
ATOM     11  C   UNL     1       7.950  17.397  22.562  0.00  0.00    +0.000 C 
ATOM     12  C   UNL     1       8.073  15.890  22.174  0.00  0.00    +0.000 C 
ATOM     13  C   UNL     1       9.287  15.584  21.162  0.00  0.00    +0.000 C 
ATOM     14  C   UNL     1      10.459  15.613  22.231  0.00  0.00    +0.000 C 
ATOM     15  C   UNL     1       9.320  13.781  20.332  0.00  0.00    +0.000 C 
ATOM     16  C   UNL     1      10.173  12.822  21.200  0.00  0.00    +0.000 C 
ATOM     17  C   UNL     1      10.567  11.881  20.155  0.00  0.00    +0.000 C 
ATOM     18  C   UNL     1      10.871  12.944  19.095  0.00  0.00    +0.000 C 
ATOM     19  C   UNL     1      12.280  12.657  18.511  0.00  0.00    +0.000 C 
ATOM     20  C   UNL     1      10.517  14.882  19.455  0.00  0.00    +0.000 C 
ATOM     21  O   UNL     1      11.447  15.667  19.621  0.00  0.00    +0.000 OA
ENDROOT
BRANCH   1  25
ATOM     22  C   UNL     1       3.055  15.160  18.751  0.00  0.00    +0.000 A 
ATOM     23  C   UNL     1       3.604  14.925  20.014  0.00  0.00    +0.000 A 
ATOM     24  C   UNL     1       4.983  14.881  20.190  0.00  0.00    +0.000 A 
ATOM     25  C   UNL     1       5.849  15.125  19.114  0.00  0.00    +0.000 A 
ATOM     26  C   UNL     1       5.333  15.336  17.853  0.00  0.00    +0.000 A 
ATOM     27  C   UNL     1       3.956  15.349  17.684  0.00  0.00    +0.000 A 
BRANCH  22  29
ATOM     28  C   UNL     1       1.030  16.554  18.576  0.00  0.00    +0.000 C 
ATOM     29  N   UNL     1       1.678  15.249  18.534  0.00  0.00    +0.000 N 
ATOM     30  C   UNL     1       0.904  14.101  18.992  0.00  0.00    +0.000 C 
ENDBRANCH  22  29
ENDBRANCH   1  25
BRANCH  10  31
ATOM     31  O   UNL     1       6.395  18.074  20.818  0.00  0.00    +0.000 OA
ATOM     32  H   UNL     1       6.501  17.422  20.099  0.00  0.00    +0.000 HD
ENDBRANCH  10  31
TORSDOF 3
ENDMDL
MODEL 6
REMARK VINA RESULT:      -6.4      9.461     11.586
REMARK  Name = 
REMARK  7 active torsions:
REMARK  status: ('A' for Active; 'I' for Inactive)
REMARK    1  A    between atoms: C_1  and  N_2
REMARK    2  A    between atoms: N_2  and  C_3
REMARK    3  A    between atoms: N_2  and  C_4
REMARK    4  A    between atoms: C_7  and  C_8
REMARK    5  A    between atoms: C_17  and  O_18
REMARK    6  A    between atoms: C_21  and  C_22
REMARK    7  A    between atoms: C_26  and  C_27
REMARK                            x       y       z     vdW  Elec       q    Type
REMARK                         _______ _______ _______ _____ _____    ______ ____
ROOT
ATOM      1  C   UNL     1       8.180  14.161  21.057  0.00  0.00    +0.000 C 
ATOM      2  C   UNL     1       9.079  14.339  20.065  0.00  0.00    +0.000 C 
ATOM      3  C   UNL     1      10.705  13.629  20.582  0.00  0.00    +0.000 C 
ATOM      4  C   UNL     1      11.811  14.020  19.514  0.00  0.00    +0.000 C 
ATOM      5  C   UNL     1      10.593  14.144  18.937  0.00  0.00    +0.000 C 
ATOM      6  C   UNL     1       9.098  13.140  18.275  0.00  0.00    +0.000 C 
ATOM      7  C   UNL     1       7.562  13.953  18.253  0.00  0.00    +0.000 C 
ATOM      8  C   UNL     1       7.157  15.211  18.806  0.00  0.00    +0.000 C 
ATOM      9  C   UNL     1       5.637  15.294  18.971  0.00  0.00    +0.000 C 
ATOM     10  C   UNL     1       5.123  15.815  20.317  0.00  0.00    +0.000 C 
ATOM     11  C   UNL     1       5.830  17.117  20.688  0.00  0.00    +0.000 C 
ATOM     12  C   UNL     1       7.364  17.000  20.950  0.00  0.00    +0.000 C 
ATOM     13  C   UNL     1       8.199  16.502  19.668  0.00  0.00    +0.000 C 
ATOM     14  C   UNL     1       8.232  17.887  18.894  0.00  0.00    +0.000 C 
ATOM     15  C   UNL     1      10.089  15.983  19.983  0.00  0.00    +0.000 C 
ATOM     16  C   UNL     1      11.012  17.207  19.758  0.00  0.00    +0.000 C 
ATOM     17  C   UNL     1      12.236  16.491  19.412  0.00  0.00    +0.000 C 
ATOM     18  C   UNL     1      11.561  15.460  18.502  0.00  0.00    +0.000 C 
ATOM     19  C   UNL     1      12.333  15.424  17.156  0.00  0.00    +0.000 C 
ATOM     20  C   UNL     1       9.570  15.416  18.303  0.00  0.00    +0.000 C 
ATOM     21  O   UNL     1       9.038  15.775  17.256  0.00  0.00    +0.000 OA
ENDROOT
BRANCH   1  25
ATOM     22  C   UNL     1       7.545  12.432  24.880  0.00  0.00    +0.000 A 
ATOM     23  C   UNL     1       7.990  13.751  24.764  0.00  0.00    +0.000 A 
ATOM     24  C   UNL     1       8.341  14.275  23.525  0.00  0.00    +0.000 A 
ATOM     25  C   UNL     1       8.203  13.506  22.360  0.00  0.00    +0.000 A 
ATOM     26  C   UNL     1       7.789  12.194  22.449  0.00  0.00    +0.000 A 
ATOM     27  C   UNL     1       7.468  11.674  23.694  0.00  0.00    +0.000 A 
BRANCH  22  29
ATOM     28  C   UNL     1       5.989  10.993  26.139  0.00  0.00    +0.000 C 
ATOM     29  N   UNL     1       7.147  11.877  26.098  0.00  0.00    +0.000 N 
ATOM     30  C   UNL     1       7.395  12.711  27.268  0.00  0.00    +0.000 C 
ENDBRANCH  22  29
ENDBRANCH   1  25
BRANCH  10  31
ATOM     31  O   UNL     1       5.189  14.879  21.395  0.00  0.00    +0.000 OA
ATOM     32  H   UNL     1       4.304  14.501  21.559  0.00  0.00    +0.000 HD
ENDBRANCH  10  31
TORSDOF 3
ENDMDL
MODEL 7
REMARK VINA RESULT:      -6.4      8.799     10.894
REMARK  Name = 
REMARK  7 active torsions:
REMARK  status: ('A' for Active; 'I' for Inactive)
REMARK    1  A    between atoms: C_1  and  N_2
REMARK    2  A    between atoms: N_2  and  C_3
REMARK    3  A    between atoms: N_2  and  C_4
REMARK    4  A    between atoms: C_7  and  C_8
REMARK    5  A    between atoms: C_17  and  O_18
REMARK    6  A    between atoms: C_21  and  C_22
REMARK    7  A    between atoms: C_26  and  C_27
REMARK                            x       y       z     vdW  Elec       q    Type
REMARK                         _______ _______ _______ _____ _____    ______ ____
ROOT
ATOM      1  C   UNL     1       7.114  15.611  19.498  0.00  0.00    +0.000 C 
ATOM      2  C   UNL     1       8.228  14.966  19.089  0.00  0.00    +0.000 C 
ATOM      3  C   UNL     1       7.746  13.466  18.124  0.00  0.00    +0.000 C 
ATOM      4  C   UNL     1       9.040  12.597  17.825  0.00  0.00    +0.000 C 
ATOM      5  C   UNL     1       9.428  13.860  18.119  0.00  0.00    +0.000 C 
ATOM      6  C   UNL     1       9.445  15.658  17.450  0.00  0.00    +0.000 C 
ATOM      7  C   UNL     1       9.523  16.928  18.633  0.00  0.00    +0.000 C 
ATOM      8  C   UNL     1       9.407  16.892  20.060  0.00  0.00    +0.000 C 
ATOM      9  C   UNL     1       9.052  18.266  20.635  0.00  0.00    +0.000 C 
ATOM     10  C   UNL     1       7.923  18.304  21.671  0.00  0.00    +0.000 C 
ATOM     11  C   UNL     1       8.161  17.253  22.754  0.00  0.00    +0.000 C 
ATOM     12  C   UNL     1       8.113  15.768  22.274  0.00  0.00    +0.000 C 
ATOM     13  C   UNL     1       9.241  15.408  21.185  0.00  0.00    +0.000 C 
ATOM     14  C   UNL     1      10.458  15.256  22.191  0.00  0.00    +0.000 C 
ATOM     15  C   UNL     1       9.053  13.665  20.253  0.00  0.00    +0.000 C 
ATOM     16  C   UNL     1       9.844  12.575  21.019  0.00  0.00    +0.000 C 
ATOM     17  C   UNL     1      10.092  11.667  19.904  0.00  0.00    +0.000 C 
ATOM     18  C   UNL     1      10.452  12.758  18.891  0.00  0.00    +0.000 C 
ATOM     19  C   UNL     1      11.796  12.370  18.218  0.00  0.00    +0.000 C 
ATOM     20  C   UNL     1      10.314  14.695  19.378  0.00  0.00    +0.000 C 
ATOM     21  O   UNL     1      11.325  15.373  19.540  0.00  0.00    +0.000 OA
ENDROOT
BRANCH   1  25
ATOM     22  C   UNL     1       3.128  14.357  18.758  0.00  0.00    +0.000 A 
ATOM     23  C   UNL     1       3.900  14.907  17.731  0.00  0.00    +0.000 A 
ATOM     24  C   UNL     1       5.150  15.454  18.000  0.00  0.00    +0.000 A 
ATOM     25  C   UNL     1       5.683  15.416  19.297  0.00  0.00    +0.000 A 
ATOM     26  C   UNL     1       4.932  14.901  20.331  0.00  0.00    +0.000 A 
ATOM     27  C   UNL     1       3.675  14.383  20.057  0.00  0.00    +0.000 A 
BRANCH  22  29
ATOM     28  C   UNL     1       0.672  14.454  18.950  0.00  0.00    +0.000 C 
ATOM     29  N   UNL     1       1.885  13.764  18.528  0.00  0.00    +0.000 N 
ATOM     30  C   UNL     1       1.877  12.307  18.575  0.00  0.00    +0.000 C 
ENDBRANCH  22  29
ENDBRANCH   1  25
BRANCH  10  31
ATOM     31  O   UNL     1       6.603  18.186  21.134  0.00  0.00    +0.000 OA
ATOM     32  H   UNL     1       6.638  17.735  20.269  0.00  0.00    +0.000 HD
ENDBRANCH  10  31
TORSDOF 3
ENDMDL
MODEL 8
REMARK VINA RESULT:      -6.2      9.515     11.286
REMARK  Name = 
REMARK  7 active torsions:
REMARK  status: ('A' for Active; 'I' for Inactive)
REMARK    1  A    between atoms: C_1  and  N_2
REMARK    2  A    between atoms: N_2  and  C_3
REMARK    3  A    between atoms: N_2  and  C_4
REMARK    4  A    between atoms: C_7  and  C_8
REMARK    5  A    between atoms: C_17  and  O_18
REMARK    6  A    between atoms: C_21  and  C_22
REMARK    7  A    between atoms: C_26  and  C_27
REMARK                            x       y       z     vdW  Elec       q    Type
REMARK                         _______ _______ _______ _____ _____    ______ ____
ROOT
ATOM      1  C   UNL     1       7.655  15.351  20.241  0.00  0.00    +0.000 C 
ATOM      2  C   UNL     1       8.740  16.050  19.840  0.00  0.00    +0.000 C 
ATOM      3  C   UNL     1       8.241  17.248  18.525  0.00  0.00    +0.000 C 
ATOM      4  C   UNL     1       9.540  17.917  17.906  0.00  0.00    +0.000 C 
ATOM      5  C   UNL     1       9.856  17.404  19.119  0.00  0.00    +0.000 C 
ATOM      6  C   UNL     1       9.598  17.647  21.005  0.00  0.00    +0.000 C 
ATOM      7  C   UNL     1       9.757  16.232  22.000  0.00  0.00    +0.000 C 
ATOM      8  C   UNL     1       9.884  14.847  21.653  0.00  0.00    +0.000 C 
ATOM      9  C   UNL     1       9.507  13.933  22.822  0.00  0.00    +0.000 C 
ATOM     10  C   UNL     1       8.567  12.765  22.502  0.00  0.00    +0.000 C 
ATOM     11  C   UNL     1       9.076  11.992  21.287  0.00  0.00    +0.000 C 
ATOM     12  C   UNL     1       9.084  12.782  19.940  0.00  0.00    +0.000 C 
ATOM     13  C   UNL     1      10.043  14.075  19.958  0.00  0.00    +0.000 C 
ATOM     14  C   UNL     1      11.419  13.313  19.753  0.00  0.00    +0.000 C 
ATOM     15  C   UNL     1       9.861  15.338  18.438  0.00  0.00    +0.000 C 
ATOM     16  C   UNL     1      10.864  14.958  17.320  0.00  0.00    +0.000 C 
ATOM     17  C   UNL     1      11.004  16.273  16.702  0.00  0.00    +0.000 C 
ATOM     18  C   UNL     1      11.090  17.055  18.017  0.00  0.00    +0.000 C 
ATOM     19  C   UNL     1      12.333  17.982  17.948  0.00  0.00    +0.000 C 
ATOM     20  C   UNL     1      10.860  16.129  19.776  0.00  0.00    +0.000 C 
ATOM     21  O   UNL     1      11.818  15.965  20.527  0.00  0.00    +0.000 OA
ENDROOT
BRANCH   1  25
ATOM     22  C   UNL     1       3.673  16.080  18.969  0.00  0.00    +0.000 A 
ATOM     23  C   UNL     1       4.101  16.498  20.232  0.00  0.00    +0.000 A 
ATOM     24  C   UNL     1       5.354  16.133  20.712  0.00  0.00    +0.000 A 
ATOM     25  C   UNL     1       6.234  15.385  19.916  0.00  0.00    +0.000 A 
ATOM     26  C   UNL     1       5.827  14.940  18.676  0.00  0.00    +0.000 A 
ATOM     27  C   UNL     1       4.564  15.286  18.219  0.00  0.00    +0.000 A 
BRANCH  22  29
ATOM     28  C   UNL     1       1.260  15.645  18.716  0.00  0.00    +0.000 C 
ATOM     29  N   UNL     1       2.439  16.453  18.432  0.00  0.00    +0.000 N 
ATOM     30  C   UNL     1       2.504  17.111  17.133  0.00  0.00    +0.000 C 
ENDBRANCH  22  29
ENDBRANCH   1  25
BRANCH  10  31
ATOM     31  O   UNL     1       7.193  13.121  22.336  0.00  0.00    +0.000 OA
ATOM     32  H   UNL     1       7.128  13.998  21.912  0.00  0.00    +0.000 HD
ENDBRANCH  10  31
TORSDOF 3
ENDMDL
MODEL 9
REMARK VINA RESULT:      -6.2      5.497     12.370
REMARK  Name = 
REMARK  7 active torsions:
REMARK  status: ('A' for Active; 'I' for Inactive)
REMARK    1  A    between atoms: C_1  and  N_2
REMARK    2  A    between atoms: N_2  and  C_3
REMARK    3  A    between atoms: N_2  and  C_4
REMARK    4  A    between atoms: C_7  and  C_8
REMARK    5  A    between atoms: C_17  and  O_18
REMARK    6  A    between atoms: C_21  and  C_22
REMARK    7  A    between atoms: C_26  and  C_27
REMARK                            x       y       z     vdW  Elec       q    Type
REMARK                         _______ _______ _______ _____ _____    ______ ____
ROOT
ATOM      1  C   UNL     1      -1.965  13.385  22.277  0.00  0.00    +0.000 C 
ATOM      2  C   UNL     1      -3.154  13.869  22.696  0.00  0.00    +0.000 C 
ATOM      3  C   UNL     1      -4.478  12.631  22.335  0.00  0.00    +0.000 C 
ATOM      4  C   UNL     1      -5.896  13.279  22.631  0.00  0.00    +0.000 C 
ATOM      5  C   UNL     1      -4.952  13.988  23.294  0.00  0.00    +0.000 C 
ATOM      6  C   UNL     1      -3.731  13.916  24.772  0.00  0.00    +0.000 C 
ATOM      7  C   UNL     1      -2.329  14.937  24.674  0.00  0.00    +0.000 C 
ATOM      8  C   UNL     1      -1.811  15.721  23.593  0.00  0.00    +0.000 C 
ATOM      9  C   UNL     1      -0.330  16.054  23.793  0.00  0.00    +0.000 C 
ATOM     10  C   UNL     1       0.590  15.835  22.587  0.00  0.00    +0.000 C 
ATOM     11  C   UNL     1      -0.001  16.494  21.342  0.00  0.00    +0.000 C 
ATOM     12  C   UNL     1      -1.349  15.891  20.837  0.00  0.00    +0.000 C 
ATOM     13  C   UNL     1      -2.550  16.017  21.901  0.00  0.00    +0.000 C 
ATOM     14  C   UNL     1      -2.899  17.542  21.637  0.00  0.00    +0.000 C 
ATOM     15  C   UNL     1      -4.197  14.981  21.511  0.00  0.00    +0.000 C 
ATOM     16  C   UNL     1      -5.190  15.861  20.710  0.00  0.00    +0.000 C 
ATOM     17  C   UNL     1      -6.429  15.197  21.104  0.00  0.00    +0.000 C 
ATOM     18  C   UNL     1      -6.063  15.048  22.584  0.00  0.00    +0.000 C 
ATOM     19  C   UNL     1      -7.243  15.591  23.432  0.00  0.00    +0.000 C 
ATOM     20  C   UNL     1      -4.257  15.595  23.253  0.00  0.00    +0.000 C 
ATOM     21  O   UNL     1      -4.127  16.593  23.958  0.00  0.00    +0.000 OA
ENDROOT
BRANCH   1  25
ATOM     22  C   UNL     1      -0.024  10.063  20.488  0.00  0.00    +0.000 A 
ATOM     23  C   UNL     1      -0.711  10.989  19.700  0.00  0.00    +0.000 A 
ATOM     24  C   UNL     1      -1.472  11.994  20.289  0.00  0.00    +0.000 A 
ATOM     25  C   UNL     1      -1.518  12.129  21.685  0.00  0.00    +0.000 A 
ATOM     26  C   UNL     1      -0.868  11.214  22.484  0.00  0.00    +0.000 A 
ATOM     27  C   UNL     1      -0.136  10.199  21.886  0.00  0.00    +0.000 A 
BRANCH  22  29
ATOM     28  C   UNL     1       1.458   8.121  20.825  0.00  0.00    +0.000 C 
ATOM     29  N   UNL     1       0.781   9.061  19.940  0.00  0.00    +0.000 N 
ATOM     30  C   UNL     1       1.458   9.422  18.700  0.00  0.00    +0.000 C 
ENDBRANCH  22  29
ENDBRANCH   1  25
BRANCH  10  31
ATOM     31  O   UNL     1       0.931  14.472  22.325  0.00  0.00    +0.000 OA
ATOM     32  H   UNL     1       0.252  13.883  22.705  0.00  0.00    +0.000 HD
ENDBRANCH  10  31
TORSDOF 3
ENDMDL
