MODEL 1
REMARK VINA RESULT:      -7.9      0.000      0.000
REMARK  Name = 
REMARK  7 active torsions:
REMARK  status: ('A' for Active; 'I' for Inactive)
REMARK    1  A    between atoms: C_1  and  C_2
REMARK    2  A    between atoms: C_2  and  C_3
REMARK    3  A    between atoms: N_5  and  C_6
REMARK    4  A    between atoms: C_8  and  C_9
REMARK    5  A    between atoms: N_11  and  C_12
REMARK    6  A    between atoms: C_21  and  O_22
REMARK    7  A    between atoms: O_22  and  C_23
REMARK                            x       y       z     vdW  Elec       q    Type
REMARK                         _______ _______ _______ _____ _____    ______ ____
ROOT
ATOM      1  C   UNL     1       4.090   4.886  18.706  0.00  0.00    +0.000 A 
ATOM      2  C   UNL     1       3.512   6.157  18.849  0.00  0.00    +0.000 A 
ATOM      3  C   UNL     1       2.516   6.392  19.798  0.00  0.00    +0.000 A 
ATOM      4  C   UNL     1       2.088   5.330  20.602  0.00  0.00    +0.000 A 
ATOM      5  C   UNL     1       2.640   4.054  20.446  0.00  0.00    +0.000 A 
ATOM      6  C   UNL     1       3.639   3.819  19.497  0.00  0.00    +0.000 A 
ENDROOT
BRANCH   1   9
ATOM      7  C   UNL     1       6.423   4.713  18.001  0.00  0.00    +0.000 C 
ATOM      8  O   UNL     1       6.892   4.856  19.127  0.00  0.00    +0.000 OA
ATOM      9  N   UNL     1       5.068   4.711  17.705  0.00  0.00    +0.000 N 
ATOM     10  H   UNL     1       4.772   4.273  16.841  0.00  0.00    +0.000 HD
BRANCH   7  12
ATOM     11  C   UNL     1       6.458   4.248  15.536  0.00  0.00    +0.000 C 
ATOM     12  C   UNL     1       7.292   4.512  16.778  0.00  0.00    +0.000 C 
ENDBRANCH   7  12
ENDBRANCH   1   9
BRANCH   3  13
ATOM     13  C   UNL     1       1.838   7.722  19.954  0.00  0.00    +0.000 C 
ATOM     14  O   UNL     1       1.772   8.440  18.959  0.00  0.00    +0.000 OA
ATOM     15  N   UNL     1       1.363   8.039  21.213  0.00  0.00    +0.000 N 
ATOM     16  H   UNL     1       1.497   7.375  21.962  0.00  0.00    +0.000 HD
BRANCH  15  17
ATOM     17  C   UNL     1       0.698   9.229  21.591  0.00  0.00    +0.000 A 
ATOM     18  C   UNL     1       0.861  10.448  20.933  0.00  0.00    +0.000 A 
ATOM     19  C   UNL     1       0.162  11.585  21.353  0.00  0.00    +0.000 A 
ATOM     20  C   UNL     1      -0.697  11.506  22.444  0.00  0.00    +0.000 A 
ATOM     21 BR   UNL     1      -1.631  13.046  23.017  0.00  0.00    +0.000 Br
ATOM     22  C   UNL     1      -0.872  10.297  23.113  0.00  0.00    +0.000 A 
ATOM     23  C   UNL     1      -0.184   9.159  22.680  0.00  0.00    +0.000 A 
ENDBRANCH  15  17
ENDBRANCH   3  13
BRANCH   6  24
ATOM     24  O   UNL     1       4.060   2.519  19.420  0.00  0.00    +0.000 OA
ATOM     25  C   UNL     1       3.329   1.663  18.548  0.00  0.00    +0.000 C 
ENDBRANCH   6  24
TORSDOF 5
ENDMDL
MODEL 2
REMARK VINA RESULT:      -7.8      0.204      1.024
REMARK  Name = 
REMARK  7 active torsions:
REMARK  status: ('A' for Active; 'I' for Inactive)
REMARK    1  A    between atoms: C_1  and  C_2
REMARK    2  A    between atoms: C_2  and  C_3
REMARK    3  A    between atoms: N_5  and  C_6
REMARK    4  A    between atoms: C_8  and  C_9
REMARK    5  A    between atoms: N_11  and  C_12
REMARK    6  A    between atoms: C_21  and  O_22
REMARK    7  A    between atoms: O_22  and  C_23
REMARK                            x       y       z     vdW  Elec       q    Type
REMARK                         _______ _______ _______ _____ _____    ______ ____
ROOT
ATOM      1  C   UNL     1       4.093   4.872  18.850  0.00  0.00    +0.000 A 
ATOM      2  C   UNL     1       3.522   6.144  19.013  0.00  0.00    +0.000 A 
ATOM      3  C   UNL     1       2.462   6.349  19.898  0.00  0.00    +0.000 A 
ATOM      4  C   UNL     1       1.964   5.256  20.616  0.00  0.00    +0.000 A 
ATOM      5  C   UNL     1       2.509   3.981  20.437  0.00  0.00    +0.000 A 
ATOM      6  C   UNL     1       3.573   3.776  19.553  0.00  0.00    +0.000 A 
ENDROOT
BRANCH   1   9
ATOM      7  C   UNL     1       6.471   4.789  18.296  0.00  0.00    +0.000 C 
ATOM      8  O   UNL     1       6.861   4.957  19.448  0.00  0.00    +0.000 OA
ATOM      9  N   UNL     1       5.138   4.731  17.914  0.00  0.00    +0.000 N 
ATOM     10  H   UNL     1       4.916   4.276  17.037  0.00  0.00    +0.000 HD
BRANCH   7  12
ATOM     11  C   UNL     1       6.679   4.347  15.835  0.00  0.00    +0.000 C 
ATOM     12  C   UNL     1       7.424   4.615  17.132  0.00  0.00    +0.000 C 
ENDBRANCH   7  12
ENDBRANCH   1   9
BRANCH   3  13
ATOM     13  C   UNL     1       1.791   7.680  20.071  0.00  0.00    +0.000 C 
ATOM     14  O   UNL     1       1.761   8.426  19.094  0.00  0.00    +0.000 OA
ATOM     15  N   UNL     1       1.281   7.968  21.324  0.00  0.00    +0.000 N 
ATOM     16  H   UNL     1       1.387   7.283  22.058  0.00  0.00    +0.000 HD
BRANCH  15  17
ATOM     17  C   UNL     1       0.615   9.153  21.714  0.00  0.00    +0.000 A 
ATOM     18  C   UNL     1      -0.253   9.229  22.804  0.00  0.00    +0.000 A 
ATOM     19  C   UNL     1      -0.870  10.438  23.141  0.00  0.00    +0.000 A 
ATOM     20  C   UNL     1      -0.629  11.575  22.378  0.00  0.00    +0.000 A 
ATOM     21 BR   UNL     1      -1.474  13.205  22.828  0.00  0.00    +0.000 Br
ATOM     22  C   UNL     1       0.234  11.518  21.286  0.00  0.00    +0.000 A 
ATOM     23  C   UNL     1       0.863  10.311  20.962  0.00  0.00    +0.000 A 
ENDBRANCH  15  17
ENDBRANCH   3  13
BRANCH   6  24
ATOM     24  O   UNL     1       3.982   2.475  19.442  0.00  0.00    +0.000 OA
ATOM     25  C   UNL     1       3.304   1.673  18.480  0.00  0.00    +0.000 C 
ENDBRANCH   6  24
TORSDOF 5
ENDMDL
MODEL 3
REMARK VINA RESULT:      -7.4      2.016      3.727
REMARK  Name = 
REMARK  7 active torsions:
REMARK  status: ('A' for Active; 'I' for Inactive)
REMARK    1  A    between atoms: C_1  and  C_2
REMARK    2  A    between atoms: C_2  and  C_3
REMARK    3  A    between atoms: N_5  and  C_6
REMARK    4  A    between atoms: C_8  and  C_9
REMARK    5  A    between atoms: N_11  and  C_12
REMARK    6  A    between atoms: C_21  and  O_22
REMARK    7  A    between atoms: O_22  and  C_23
REMARK                            x       y       z     vdW  Elec       q    Type
REMARK                         _______ _______ _______ _____ _____    ______ ____
ROOT
ATOM      1  C   UNL     1       3.161   5.328  18.610  0.00  0.00    +0.000 A 
ATOM      2  C   UNL     1       2.412   6.505  18.770  0.00  0.00    +0.000 A 
ATOM      3  C   UNL     1       2.748   7.670  18.079  0.00  0.00    +0.000 A 
ATOM      4  C   UNL     1       3.859   7.653  17.229  0.00  0.00    +0.000 A 
ATOM      5  C   UNL     1       4.627   6.492  17.086  0.00  0.00    +0.000 A 
ATOM      6  C   UNL     1       4.289   5.324  17.776  0.00  0.00    +0.000 A 
ENDROOT
BRANCH   1   9
ATOM      7  C   UNL     1       1.819   3.309  18.914  0.00  0.00    +0.000 C 
ATOM      8  O   UNL     1       1.218   3.412  17.849  0.00  0.00    +0.000 OA
ATOM      9  N   UNL     1       2.786   4.197  19.364  0.00  0.00    +0.000 N 
ATOM     10  H   UNL     1       3.440   3.871  20.065  0.00  0.00    +0.000 HD
BRANCH   7  12
ATOM     11  C   UNL     1       1.454   2.668  21.312  0.00  0.00    +0.000 C 
ATOM     12  C   UNL     1       1.572   2.170  19.881  0.00  0.00    +0.000 C 
ENDBRANCH   7  12
ENDBRANCH   1   9
BRANCH   3  13
ATOM     13  C   UNL     1       2.005   8.963  18.253  0.00  0.00    +0.000 C 
ATOM     14  O   UNL     1       2.167   9.825  17.392  0.00  0.00    +0.000 OA
ATOM     15  N   UNL     1       1.218   9.086  19.383  0.00  0.00    +0.000 N 
ATOM     16  H   UNL     1       1.183   8.315  20.034  0.00  0.00    +0.000 HD
BRANCH  15  17
ATOM     17  C   UNL     1       0.438  10.206  19.752  0.00  0.00    +0.000 A 
ATOM     18  C   UNL     1       0.828  11.137  20.716  0.00  0.00    +0.000 A 
ATOM     19  C   UNL     1       0.011  12.230  21.023  0.00  0.00    +0.000 A 
ATOM     20  C   UNL     1      -1.208  12.388  20.373  0.00  0.00    +0.000 A 
ATOM     21 BR   UNL     1      -2.316  13.860  20.800  0.00  0.00    +0.000 Br
ATOM     22  C   UNL     1      -1.614  11.470  19.409  0.00  0.00    +0.000 A 
ATOM     23  C   UNL     1      -0.787  10.387  19.091  0.00  0.00    +0.000 A 
ENDBRANCH  15  17
ENDBRANCH   3  13
BRANCH   6  24
ATOM     24  O   UNL     1       5.147   4.276  17.580  0.00  0.00    +0.000 OA
ATOM     25  C   UNL     1       6.457   4.600  17.125  0.00  0.00    +0.000 C 
ENDBRANCH   6  24
TORSDOF 5
ENDMDL
MODEL 4
REMARK VINA RESULT:      -7.4      1.017      1.405
REMARK  Name = 
REMARK  7 active torsions:
REMARK  status: ('A' for Active; 'I' for Inactive)
REMARK    1  A    between atoms: C_1  and  C_2
REMARK    2  A    between atoms: C_2  and  C_3
REMARK    3  A    between atoms: N_5  and  C_6
REMARK    4  A    between atoms: C_8  and  C_9
REMARK    5  A    between atoms: N_11  and  C_12
REMARK    6  A    between atoms: C_21  and  O_22
REMARK    7  A    between atoms: O_22  and  C_23
REMARK                            x       y       z     vdW  Elec       q    Type
REMARK                         _______ _______ _______ _____ _____    ______ ____
ROOT
ATOM      1  C   UNL     1       4.260   4.761  18.985  0.00  0.00    +0.000 A 
ATOM      2  C   UNL     1       3.683   6.033  19.120  0.00  0.00    +0.000 A 
ATOM      3  C   UNL     1       2.543   6.227  19.902  0.00  0.00    +0.000 A 
ATOM      4  C   UNL     1       1.970   5.122  20.542  0.00  0.00    +0.000 A 
ATOM      5  C   UNL     1       2.523   3.846  20.389  0.00  0.00    +0.000 A 
ATOM      6  C   UNL     1       3.667   3.653  19.609  0.00  0.00    +0.000 A 
ENDROOT
BRANCH   1   9
ATOM      7  C   UNL     1       5.273   4.343  16.801  0.00  0.00    +0.000 C 
ATOM      8  O   UNL     1       4.209   4.182  16.211  0.00  0.00    +0.000 OA
ATOM      9  N   UNL     1       5.391   4.632  18.153  0.00  0.00    +0.000 N 
ATOM     10  H   UNL     1       6.251   5.060  18.473  0.00  0.00    +0.000 HD
BRANCH   7  12
ATOM     11  C   UNL     1       6.455   4.208  14.592  0.00  0.00    +0.000 C 
ATOM     12  C   UNL     1       6.614   4.249  16.102  0.00  0.00    +0.000 C 
ENDBRANCH   7  12
ENDBRANCH   1   9
BRANCH   3  13
ATOM     13  C   UNL     1       1.865   7.559  20.038  0.00  0.00    +0.000 C 
ATOM     14  O   UNL     1       2.058   8.382  19.145  0.00  0.00    +0.000 OA
ATOM     15  N   UNL     1       1.097   7.758  21.170  0.00  0.00    +0.000 N 
ATOM     16  H   UNL     1       1.031   7.013  21.848  0.00  0.00    +0.000 HD
BRANCH  15  17
ATOM     17  C   UNL     1       0.374   8.927  21.506  0.00  0.00    +0.000 A 
ATOM     18  C   UNL     1       0.011   9.264  22.811  0.00  0.00    +0.000 A 
ATOM     19  C   UNL     1      -0.693  10.443  23.074  0.00  0.00    +0.000 A 
ATOM     20  C   UNL     1      -1.049  11.286  22.026  0.00  0.00    +0.000 A 
ATOM     21 BR   UNL     1      -2.012  12.872  22.382  0.00  0.00    +0.000 Br
ATOM     22  C   UNL     1      -0.695  10.966  20.717  0.00  0.00    +0.000 A 
ATOM     23  C   UNL     1       0.025   9.795  20.460  0.00  0.00    +0.000 A 
ENDBRANCH  15  17
ENDBRANCH   3  13
BRANCH   6  24
ATOM     24  O   UNL     1       4.078   2.352  19.509  0.00  0.00    +0.000 OA
ATOM     25  C   UNL     1       3.376   1.530  18.580  0.00  0.00    +0.000 C 
ENDBRANCH   6  24
TORSDOF 5
ENDMDL
MODEL 5
REMARK VINA RESULT:      -7.3      2.032      3.702
REMARK  Name = 
REMARK  7 active torsions:
REMARK  status: ('A' for Active; 'I' for Inactive)
REMARK    1  A    between atoms: C_1  and  C_2
REMARK    2  A    between atoms: C_2  and  C_3
REMARK    3  A    between atoms: N_5  and  C_6
REMARK    4  A    between atoms: C_8  and  C_9
REMARK    5  A    between atoms: N_11  and  C_12
REMARK    6  A    between atoms: C_21  and  O_22
REMARK    7  A    between atoms: O_22  and  C_23
REMARK                            x       y       z     vdW  Elec       q    Type
REMARK                         _______ _______ _______ _____ _____    ______ ____
ROOT
ATOM      1  C   UNL     1       3.121   5.355  18.602  0.00  0.00    +0.000 A 
ATOM      2  C   UNL     1       2.378   6.536  18.759  0.00  0.00    +0.000 A 
ATOM      3  C   UNL     1       2.718   7.697  18.063  0.00  0.00    +0.000 A 
ATOM      4  C   UNL     1       3.827   7.672  17.211  0.00  0.00    +0.000 A 
ATOM      5  C   UNL     1       4.588   6.506  17.071  0.00  0.00    +0.000 A 
ATOM      6  C   UNL     1       4.246   5.342  17.765  0.00  0.00    +0.000 A 
ENDROOT
BRANCH   1   9
ATOM      7  C   UNL     1       1.794   3.326  18.901  0.00  0.00    +0.000 C 
ATOM      8  O   UNL     1       1.214   3.410  17.822  0.00  0.00    +0.000 OA
ATOM      9  N   UNL     1       2.742   4.228  19.360  0.00  0.00    +0.000 N 
ATOM     10  H   UNL     1       3.384   3.917  20.078  0.00  0.00    +0.000 HD
BRANCH   7  12
ATOM     11  C   UNL     1       1.450   2.699  21.306  0.00  0.00    +0.000 C 
ATOM     12  C   UNL     1       1.539   2.195  19.875  0.00  0.00    +0.000 C 
ENDBRANCH   7  12
ENDBRANCH   1   9
BRANCH   3  13
ATOM     13  C   UNL     1       1.982   8.994  18.236  0.00  0.00    +0.000 C 
ATOM     14  O   UNL     1       2.234   9.894  17.437  0.00  0.00    +0.000 OA
ATOM     15  N   UNL     1       1.098   9.077  19.295  0.00  0.00    +0.000 N 
ATOM     16  H   UNL     1       0.992   8.276  19.901  0.00  0.00    +0.000 HD
BRANCH  15  17
ATOM     17  C   UNL     1       0.304  10.194  19.648  0.00  0.00    +0.000 A 
ATOM     18  C   UNL     1      -0.917  10.497  19.043  0.00  0.00    +0.000 A 
ATOM     19  C   UNL     1      -1.657  11.612  19.450  0.00  0.00    +0.000 A 
ATOM     20  C   UNL     1      -1.170  12.436  20.459  0.00  0.00    +0.000 A 
ATOM     21 BR   UNL     1      -2.166  13.949  20.998  0.00  0.00    +0.000 Br
ATOM     22  C   UNL     1       0.046  12.149  21.073  0.00  0.00    +0.000 A 
ATOM     23  C   UNL     1       0.776  11.024  20.676  0.00  0.00    +0.000 A 
ENDBRANCH  15  17
ENDBRANCH   3  13
BRANCH   6  24
ATOM     24  O   UNL     1       5.099   4.289  17.570  0.00  0.00    +0.000 OA
ATOM     25  C   UNL     1       5.579   4.094  16.244  0.00  0.00    +0.000 C 
ENDBRANCH   6  24
TORSDOF 5
ENDMDL
MODEL 6
REMARK VINA RESULT:      -7.3      1.674      1.928
REMARK  Name = 
REMARK  7 active torsions:
REMARK  status: ('A' for Active; 'I' for Inactive)
REMARK    1  A    between atoms: C_1  and  C_2
REMARK    2  A    between atoms: C_2  and  C_3
REMARK    3  A    between atoms: N_5  and  C_6
REMARK    4  A    between atoms: C_8  and  C_9
REMARK    5  A    between atoms: N_11  and  C_12
REMARK    6  A    between atoms: C_21  and  O_22
REMARK    7  A    between atoms: O_22  and  C_23
REMARK                            x       y       z     vdW  Elec       q    Type
REMARK                         _______ _______ _______ _____ _____    ______ ____
ROOT
ATOM      1  C   UNL     1       4.234   5.528  17.601  0.00  0.00    +0.000 A 
ATOM      2  C   UNL     1       3.579   6.767  17.522  0.00  0.00    +0.000 A 
ATOM      3  C   UNL     1       2.787   7.231  18.575  0.00  0.00    +0.000 A 
ATOM      4  C   UNL     1       2.645   6.430  19.713  0.00  0.00    +0.000 A 
ATOM      5  C   UNL     1       3.273   5.182  19.787  0.00  0.00    +0.000 A 
ATOM      6  C   UNL     1       4.067   4.719  18.734  0.00  0.00    +0.000 A 
ENDROOT
BRANCH   1   9
ATOM      7  C   UNL     1       6.348   5.376  16.385  0.00  0.00    +0.000 C 
ATOM      8  O   UNL     1       7.006   5.981  17.226  0.00  0.00    +0.000 OA
ATOM      9  N   UNL     1       4.991   5.107  16.488  0.00  0.00    +0.000 N 
ATOM     10  H   UNL     1       4.615   4.348  15.934  0.00  0.00    +0.000 HD
BRANCH   7  12
ATOM     11  C   UNL     1       5.912   4.186  14.220  0.00  0.00    +0.000 C 
ATOM     12  C   UNL     1       6.958   4.835  15.109  0.00  0.00    +0.000 C 
ENDBRANCH   7  12
ENDBRANCH   1   9
BRANCH   3  13
ATOM     13  C   UNL     1       2.031   8.525  18.516  0.00  0.00    +0.000 C 
ATOM     14  O   UNL     1       2.158   9.206  17.500  0.00  0.00    +0.000 OA
ATOM     15  N   UNL     1       1.271   8.858  19.622  0.00  0.00    +0.000 N 
ATOM     16  H   UNL     1       1.263   8.228  20.411  0.00  0.00    +0.000 HD
BRANCH  15  17
ATOM     17  C   UNL     1       0.483  10.021  19.787  0.00  0.00    +0.000 A 
ATOM     18  C   UNL     1      -0.732  10.232  19.134  0.00  0.00    +0.000 A 
ATOM     19  C   UNL     1      -1.466  11.403  19.353  0.00  0.00    +0.000 A 
ATOM     20  C   UNL     1      -0.978  12.374  20.221  0.00  0.00    +0.000 A 
ATOM     21 BR   UNL     1      -1.966  13.960  20.506  0.00  0.00    +0.000 Br
ATOM     22  C   UNL     1       0.233  12.181  20.881  0.00  0.00    +0.000 A 
ATOM     23  C   UNL     1       0.956  11.001  20.673  0.00  0.00    +0.000 A 
ENDBRANCH  15  17
ENDBRANCH   3  13
BRANCH   6  24
ATOM     24  O   UNL     1       4.587   3.466  18.919  0.00  0.00    +0.000 OA
ATOM     25  C   UNL     1       3.728   2.369  18.623  0.00  0.00    +0.000 C 
ENDBRANCH   6  24
TORSDOF 5
ENDMDL
MODEL 7
REMARK VINA RESULT:      -7.2      2.055      2.405
REMARK  Name = 
REMARK  7 active torsions:
REMARK  status: ('A' for Active; 'I' for Inactive)
REMARK    1  A    between atoms: C_1  and  C_2
REMARK    2  A    between atoms: C_2  and  C_3
REMARK    3  A    between atoms: N_5  and  C_6
REMARK    4  A    between atoms: C_8  and  C_9
REMARK    5  A    between atoms: N_11  and  C_12
REMARK    6  A    between atoms: C_21  and  O_22
REMARK    7  A    between atoms: O_22  and  C_23
REMARK                            x       y       z     vdW  Elec       q    Type
REMARK                         _______ _______ _______ _____ _____    ______ ____
ROOT
ATOM      1  C   UNL     1       3.930   5.061  18.875  0.00  0.00    +0.000 A 
ATOM      2  C   UNL     1       3.472   6.373  19.073  0.00  0.00    +0.000 A 
ATOM      3  C   UNL     1       2.350   6.632  19.862  0.00  0.00    +0.000 A 
ATOM      4  C   UNL     1       1.674   5.554  20.445  0.00  0.00    +0.000 A 
ATOM      5  C   UNL     1       2.109   4.242  20.229  0.00  0.00    +0.000 A 
ATOM      6  C   UNL     1       3.235   3.984  19.441  0.00  0.00    +0.000 A 
ENDROOT
BRANCH   1   9
ATOM      7  C   UNL     1       6.346   4.914  18.535  0.00  0.00    +0.000 C 
ATOM      8  O   UNL     1       6.637   5.110  19.711  0.00  0.00    +0.000 OA
ATOM      9  N   UNL     1       5.050   4.870  18.039  0.00  0.00    +0.000 N 
ATOM     10  H   UNL     1       4.895   4.393  17.160  0.00  0.00    +0.000 HD
BRANCH   7  12
ATOM     11  C   UNL     1       6.759   4.476  16.099  0.00  0.00    +0.000 C 
ATOM     12  C   UNL     1       7.392   4.685  17.465  0.00  0.00    +0.000 C 
ENDBRANCH   7  12
ENDBRANCH   1   9
BRANCH   3  13
ATOM     13  C   UNL     1       1.797   8.012  20.064  0.00  0.00    +0.000 C 
ATOM     14  O   UNL     1       1.521   8.345  21.215  0.00  0.00    +0.000 OA
ATOM     15  N   UNL     1       1.621   8.788  18.933  0.00  0.00    +0.000 N 
ATOM     16  H   UNL     1       1.863   8.396  18.035  0.00  0.00    +0.000 HD
BRANCH  15  17
ATOM     17  C   UNL     1       1.115  10.108  18.885  0.00  0.00    +0.000 A 
ATOM     18  C   UNL     1      -0.227  10.431  19.089  0.00  0.00    +0.000 A 
ATOM     19  C   UNL     1      -0.657  11.761  19.038  0.00  0.00    +0.000 A 
ATOM     20  C   UNL     1       0.257  12.774  18.769  0.00  0.00    +0.000 A 
ATOM     21 BR   UNL     1      -0.329  14.570  18.689  0.00  0.00    +0.000 Br
ATOM     22  C   UNL     1       1.600  12.472  18.563  0.00  0.00    +0.000 A 
ATOM     23  C   UNL     1       2.030  11.142  18.632  0.00  0.00    +0.000 A 
ENDBRANCH  15  17
ENDBRANCH   3  13
BRANCH   6  24
ATOM     24  O   UNL     1       3.524   2.656  19.277  0.00  0.00    +0.000 OA
ATOM     25  C   UNL     1       4.456   2.088  20.192  0.00  0.00    +0.000 C 
ENDBRANCH   6  24
TORSDOF 5
ENDMDL
MODEL 8
REMARK VINA RESULT:      -7.2      6.203      7.643
REMARK  Name = 
REMARK  7 active torsions:
REMARK  status: ('A' for Active; 'I' for Inactive)
REMARK    1  A    between atoms: C_1  and  C_2
REMARK    2  A    between atoms: C_2  and  C_3
REMARK    3  A    between atoms: N_5  and  C_6
REMARK    4  A    between atoms: C_8  and  C_9
REMARK    5  A    between atoms: N_11  and  C_12
REMARK    6  A    between atoms: C_21  and  O_22
REMARK    7  A    between atoms: O_22  and  C_23
REMARK                            x       y       z     vdW  Elec       q    Type
REMARK                         _______ _______ _______ _____ _____    ______ ____
ROOT
ATOM      1  C   UNL     1       6.734   6.067  17.158  0.00  0.00    +0.000 A 
ATOM      2  C   UNL     1       7.187   7.396  17.130  0.00  0.00    +0.000 A 
ATOM      3  C   UNL     1       7.954   7.917  18.174  0.00  0.00    +0.000 A 
ATOM      4  C   UNL     1       8.254   7.093  19.265  0.00  0.00    +0.000 A 
ATOM      5  C   UNL     1       7.783   5.777  19.312  0.00  0.00    +0.000 A 
ATOM      6  C   UNL     1       7.018   5.254  18.265  0.00  0.00    +0.000 A 
ENDROOT
BRANCH   1   9
ATOM      7  C   UNL     1       6.485   4.948  15.001  0.00  0.00    +0.000 C 
ATOM      8  O   UNL     1       7.677   4.684  14.872  0.00  0.00    +0.000 OA
ATOM      9  N   UNL     1       5.937   5.617  16.086  0.00  0.00    +0.000 N 
ATOM     10  H   UNL     1       4.947   5.502  16.262  0.00  0.00    +0.000 HD
BRANCH   7  12
ATOM     11  C   UNL     1       6.015   3.583  12.949  0.00  0.00    +0.000 C 
ATOM     12  C   UNL     1       5.450   4.558  13.967  0.00  0.00    +0.000 C 
ENDBRANCH   7  12
ENDBRANCH   1   9
BRANCH   3  13
ATOM     13  C   UNL     1       8.420   9.343  18.209  0.00  0.00    +0.000 C 
ATOM     14  O   UNL     1       7.923  10.117  17.394  0.00  0.00    +0.000 OA
ATOM     15  N   UNL     1       9.389   9.663  19.142  0.00  0.00    +0.000 N 
ATOM     16  H   UNL     1       9.739   8.933  19.746  0.00  0.00    +0.000 HD
BRANCH  15  17
ATOM     17  C   UNL     1       9.973  10.934  19.352  0.00  0.00    +0.000 A 
ATOM     18  C   UNL     1       9.799  11.682  20.517  0.00  0.00    +0.000 A 
ATOM     19  C   UNL     1      10.417  12.929  20.663  0.00  0.00    +0.000 A 
ATOM     20  C   UNL     1      11.204  13.436  19.634  0.00  0.00    +0.000 A 
ATOM     21 BR   UNL     1      12.028  15.126  19.829  0.00  0.00    +0.000 Br
ATOM     22  C   UNL     1      11.389  12.703  18.465  0.00  0.00    +0.000 A 
ATOM     23  C   UNL     1      10.783  11.449  18.329  0.00  0.00    +0.000 A 
ENDBRANCH  15  17
ENDBRANCH   3  13
BRANCH   6  24
ATOM     24  O   UNL     1       6.586   3.970  18.459  0.00  0.00    +0.000 OA
ATOM     25  C   UNL     1       5.270   3.811  18.978  0.00  0.00    +0.000 C 
ENDBRANCH   6  24
TORSDOF 5
ENDMDL
MODEL 9
REMARK VINA RESULT:      -7.2      1.720      1.924
REMARK  Name = 
REMARK  7 active torsions:
REMARK  status: ('A' for Active; 'I' for Inactive)
REMARK    1  A    between atoms: C_1  and  C_2
REMARK    2  A    between atoms: C_2  and  C_3
REMARK    3  A    between atoms: N_5  and  C_6
REMARK    4  A    between atoms: C_8  and  C_9
REMARK    5  A    between atoms: N_11  and  C_12
REMARK    6  A    between atoms: C_21  and  O_22
REMARK    7  A    between atoms: O_22  and  C_23
REMARK                            x       y       z     vdW  Elec       q    Type
REMARK                         _______ _______ _______ _____ _____    ______ ____
ROOT
ATOM      1  C   UNL     1       4.115   5.536  17.569  0.00  0.00    +0.000 A 
ATOM      2  C   UNL     1       3.504   6.799  17.524  0.00  0.00    +0.000 A 
ATOM      3  C   UNL     1       2.721   7.258  18.585  0.00  0.00    +0.000 A 
ATOM      4  C   UNL     1       2.542   6.427  19.697  0.00  0.00    +0.000 A 
ATOM      5  C   UNL     1       3.125   5.156  19.736  0.00  0.00    +0.000 A 
ATOM      6  C   UNL     1       3.911   4.699  18.675  0.00  0.00    +0.000 A 
ENDROOT
BRANCH   1   9
ATOM      7  C   UNL     1       6.232   5.346  16.363  0.00  0.00    +0.000 C 
ATOM      8  O   UNL     1       6.904   5.900  17.228  0.00  0.00    +0.000 OA
ATOM      9  N   UNL     1       4.865   5.124  16.448  0.00  0.00    +0.000 N 
ATOM     10  H   UNL     1       4.466   4.397  15.867  0.00  0.00    +0.000 HD
BRANCH   7  12
ATOM     11  C   UNL     1       5.768   4.259  14.150  0.00  0.00    +0.000 C 
ATOM     12  C   UNL     1       6.833   4.824  15.075  0.00  0.00    +0.000 C 
ENDBRANCH   7  12
ENDBRANCH   1   9
BRANCH   3  13
ATOM     13  C   UNL     1       2.011   8.580  18.562  0.00  0.00    +0.000 C 
ATOM     14  O   UNL     1       2.121   9.260  17.544  0.00  0.00    +0.000 OA
ATOM     15  N   UNL     1       1.310   8.934  19.700  0.00  0.00    +0.000 N 
ATOM     16  H   UNL     1       1.311   8.301  20.486  0.00  0.00    +0.000 HD
BRANCH  15  17
ATOM     17  C   UNL     1       0.574  10.125  19.902  0.00  0.00    +0.000 A 
ATOM     18  C   UNL     1       1.050  11.214  20.633  0.00  0.00    +0.000 A 
ATOM     19  C   UNL     1       0.272  12.367  20.783  0.00  0.00    +0.000 A 
ATOM     20  C   UNL     1      -0.994  12.428  20.210  0.00  0.00    +0.000 A 
ATOM     21 BR   UNL     1      -2.048  13.983  20.425  0.00  0.00    +0.000 Br
ATOM     22  C   UNL     1      -1.485  11.351  19.477  0.00  0.00    +0.000 A 
ATOM     23  C   UNL     1      -0.698  10.206  19.314  0.00  0.00    +0.000 A 
ENDBRANCH  15  17
ENDBRANCH   3  13
BRANCH   6  24
ATOM     24  O   UNL     1       4.385   3.423  18.823  0.00  0.00    +0.000 OA
ATOM     25  C   UNL     1       3.553   2.512  19.535  0.00  0.00    +0.000 C 
ENDBRANCH   6  24
TORSDOF 5
ENDMDL
