MODEL 1
REMARK VINA RESULT:      -8.0      0.000      0.000
REMARK  Name = 
REMARK  4 active torsions:
REMARK  status: ('A' for Active; 'I' for Inactive)
REMARK    1  A    between atoms: C_2  and  C_3
REMARK    2  A    between atoms: C_10  and  O_11
REMARK    3  A    between atoms: C_15  and  O_16
REMARK    4  A    between atoms: C_15  and  C_17
REMARK                            x       y       z     vdW  Elec       q    Type
REMARK                         _______ _______ _______ _____ _____    ______ ____
ROOT
ATOM      1  O   UNL     1       5.432   4.223  18.238  0.00  0.00    +0.000 OA
ATOM      2  C   UNL     1       4.706   4.549  17.300  0.00  0.00    +0.000 C 
ATOM      3  N   UNL     1       4.986   4.206  15.991  0.00  0.00    +0.000 N 
ATOM      4  C   UNL     1       6.126   3.415  15.542  0.00  0.00    +0.000 C 
ATOM      5  C   UNL     1       6.423   4.522  14.512  0.00  0.00    +0.000 C 
ATOM      6  C   UNL     1       5.055   5.139  14.872  0.00  0.00    +0.000 C 
ENDROOT
BRANCH   2   7
ATOM      7  C   UNL     1       3.377   5.286  17.476  0.00  0.00    +0.000 C 
ATOM      8  C   UNL     1       3.547   6.648  18.173  0.00  0.00    +0.000 C 
ATOM      9  C   UNL     1       2.849   6.602  19.544  0.00  0.00    +0.000 C 
ATOM     10  C   UNL     1       2.200   5.260  19.565  0.00  0.00    +0.000 A 
ATOM     11  C   UNL     1       1.447   4.706  20.590  0.00  0.00    +0.000 A 
ATOM     12  C   UNL     1       0.968   3.401  20.439  0.00  0.00    +0.000 A 
ATOM     13  C   UNL     1       1.234   2.671  19.270  0.00  0.00    +0.000 A 
ATOM     14  C   UNL     1       1.984   3.247  18.248  0.00  0.00    +0.000 A 
ATOM     15  C   UNL     1       2.473   4.534  18.408  0.00  0.00    +0.000 A 
BRANCH  14  16
ATOM     16  O   UNL     1       2.269   2.572  17.102  0.00  0.00    +0.000 OA
ATOM     17  H   UNL     1       1.736   2.957  16.384  0.00  0.00    +0.000 HD
ENDBRANCH  14  16
ENDBRANCH   2   7
BRANCH   5  18
ATOM     18  C   UNL     1       6.473   4.035  13.064  0.00  0.00    +0.000 C 
ATOM     19  F   UNL     1       6.953   2.778  12.956  0.00  0.00    +0.000 F 
ATOM     20  F   UNL     1       5.249   4.064  12.486  0.00  0.00    +0.000 F 
ATOM     21  F   UNL     1       7.288   4.839  12.335  0.00  0.00    +0.000 F 
ENDBRANCH   5  18
BRANCH   5  22
ATOM     22  O   UNL     1       7.573   5.372  14.845  0.00  0.00    +0.000 OA
ATOM     23  H   UNL     1       7.425   5.651  15.770  0.00  0.00    +0.000 HD
ENDBRANCH   5  22
TORSDOF 4
ENDMDL
MODEL 2
REMARK VINA RESULT:      -7.5      1.042      1.151
REMARK  Name = 
REMARK  4 active torsions:
REMARK  status: ('A' for Active; 'I' for Inactive)
REMARK    1  A    between atoms: C_2  and  C_3
REMARK    2  A    between atoms: C_10  and  O_11
REMARK    3  A    between atoms: C_15  and  O_16
REMARK    4  A    between atoms: C_15  and  C_17
REMARK                            x       y       z     vdW  Elec       q    Type
REMARK                         _______ _______ _______ _____ _____    ______ ____
ROOT
ATOM      1  O   UNL     1       5.291   4.794  19.223  0.00  0.00    +0.000 OA
ATOM      2  C   UNL     1       4.612   5.025  18.224  0.00  0.00    +0.000 C 
ATOM      3  N   UNL     1       5.054   4.742  16.945  0.00  0.00    +0.000 N 
ATOM      4  C   UNL     1       6.331   4.128  16.601  0.00  0.00    +0.000 C 
ATOM      5  C   UNL     1       6.557   5.279  15.602  0.00  0.00    +0.000 C 
ATOM      6  C   UNL     1       5.088   5.689  15.836  0.00  0.00    +0.000 C 
ENDROOT
BRANCH   2   7
ATOM      7  C   UNL     1       3.181   5.562  18.279  0.00  0.00    +0.000 C 
ATOM      8  C   UNL     1       2.995   6.629  19.373  0.00  0.00    +0.000 C 
ATOM      9  C   UNL     1       2.039   6.083  20.449  0.00  0.00    +0.000 C 
ATOM     10  C   UNL     1       1.608   4.765  19.905  0.00  0.00    +0.000 A 
ATOM     11  C   UNL     1       0.748   3.851  20.495  0.00  0.00    +0.000 A 
ATOM     12  C   UNL     1       0.512   2.635  19.845  0.00  0.00    +0.000 A 
ATOM     13  C   UNL     1       1.124   2.351  18.614  0.00  0.00    +0.000 A 
ATOM     14  C   UNL     1       1.978   3.285  18.032  0.00  0.00    +0.000 A 
ATOM     15  C   UNL     1       2.224   4.481  18.688  0.00  0.00    +0.000 A 
BRANCH  14  16
ATOM     16  O   UNL     1       2.595   3.046  16.843  0.00  0.00    +0.000 OA
ATOM     17  H   UNL     1       2.623   3.882  16.344  0.00  0.00    +0.000 HD
ENDBRANCH  14  16
ENDBRANCH   2   7
BRANCH   5  18
ATOM     18  C   UNL     1       6.805   4.823  14.164  0.00  0.00    +0.000 C 
ATOM     19  F   UNL     1       6.853   3.479  14.047  0.00  0.00    +0.000 F 
ATOM     20  F   UNL     1       5.847   5.280  13.323  0.00  0.00    +0.000 F 
ATOM     21  F   UNL     1       7.996   5.305  13.726  0.00  0.00    +0.000 F 
ENDBRANCH   5  18
BRANCH   5  22
ATOM     22  O   UNL     1       7.539   6.280  16.036  0.00  0.00    +0.000 OA
ATOM     23  H   UNL     1       7.242   6.560  16.925  0.00  0.00    +0.000 HD
ENDBRANCH   5  22
TORSDOF 4
ENDMDL
MODEL 3
REMARK VINA RESULT:      -7.2      2.632      3.236
REMARK  Name = 
REMARK  4 active torsions:
REMARK  status: ('A' for Active; 'I' for Inactive)
REMARK    1  A    between atoms: C_2  and  C_3
REMARK    2  A    between atoms: C_10  and  O_11
REMARK    3  A    between atoms: C_15  and  O_16
REMARK    4  A    between atoms: C_15  and  C_17
REMARK                            x       y       z     vdW  Elec       q    Type
REMARK                         _______ _______ _______ _____ _____    ______ ____
ROOT
ATOM      1  O   UNL     1       3.518   3.225  16.494  0.00  0.00    +0.000 OA
ATOM      2  C   UNL     1       3.428   4.292  17.100  0.00  0.00    +0.000 C 
ATOM      3  N   UNL     1       4.440   5.234  17.097  0.00  0.00    +0.000 N 
ATOM      4  C   UNL     1       5.706   5.124  16.382  0.00  0.00    +0.000 C 
ATOM      5  C   UNL     1       6.422   5.476  17.700  0.00  0.00    +0.000 C 
ATOM      6  C   UNL     1       5.039   5.831  18.286  0.00  0.00    +0.000 C 
ENDROOT
BRANCH   2   7
ATOM      7  C   UNL     1       2.170   4.737  17.847  0.00  0.00    +0.000 C 
ATOM      8  C   UNL     1       2.235   6.212  18.283  0.00  0.00    +0.000 C 
ATOM      9  C   UNL     1       2.270   6.281  19.820  0.00  0.00    +0.000 C 
ATOM     10  C   UNL     1       2.114   4.860  20.241  0.00  0.00    +0.000 A 
ATOM     11  C   UNL     1       2.092   4.363  21.536  0.00  0.00    +0.000 A 
ATOM     12  C   UNL     1       1.993   2.981  21.723  0.00  0.00    +0.000 A 
ATOM     13  C   UNL     1       1.905   2.114  20.622  0.00  0.00    +0.000 A 
ATOM     14  C   UNL     1       1.919   2.631  19.330  0.00  0.00    +0.000 A 
ATOM     15  C   UNL     1       2.036   4.001  19.147  0.00  0.00    +0.000 A 
BRANCH  14  16
ATOM     16  O   UNL     1       1.841   1.826  18.236  0.00  0.00    +0.000 OA
ATOM     17  H   UNL     1       2.730   1.759  17.846  0.00  0.00    +0.000 HD
ENDBRANCH  14  16
ENDBRANCH   2   7
BRANCH   5  18
ATOM     18  C   UNL     1       7.339   6.695  17.610  0.00  0.00    +0.000 C 
ATOM     19  F   UNL     1       6.660   7.860  17.643  0.00  0.00    +0.000 F 
ATOM     20  F   UNL     1       8.245   6.713  18.617  0.00  0.00    +0.000 F 
ATOM     21  F   UNL     1       8.030   6.667  16.441  0.00  0.00    +0.000 F 
ENDBRANCH   5  18
BRANCH   5  22
ATOM     22  O   UNL     1       7.081   4.341  18.358  0.00  0.00    +0.000 OA
ATOM     23  H   UNL     1       6.353   3.758  18.651  0.00  0.00    +0.000 HD
ENDBRANCH   5  22
TORSDOF 4
ENDMDL
MODEL 4
REMARK VINA RESULT:      -7.1      1.824      2.275
REMARK  Name = 
REMARK  4 active torsions:
REMARK  status: ('A' for Active; 'I' for Inactive)
REMARK    1  A    between atoms: C_2  and  C_3
REMARK    2  A    between atoms: C_10  and  O_11
REMARK    3  A    between atoms: C_15  and  O_16
REMARK    4  A    between atoms: C_15  and  C_17
REMARK                            x       y       z     vdW  Elec       q    Type
REMARK                         _______ _______ _______ _____ _____    ______ ____
ROOT
ATOM      1  O   UNL     1       5.003   4.702  18.875  0.00  0.00    +0.000 OA
ATOM      2  C   UNL     1       4.726   3.989  17.911  0.00  0.00    +0.000 C 
ATOM      3  N   UNL     1       5.503   3.951  16.769  0.00  0.00    +0.000 N 
ATOM      4  C   UNL     1       6.734   4.701  16.550  0.00  0.00    +0.000 C 
ATOM      5  C   UNL     1       6.143   5.182  15.211  0.00  0.00    +0.000 C 
ATOM      6  C   UNL     1       5.013   4.150  15.409  0.00  0.00    +0.000 C 
ENDROOT
BRANCH   2   7
ATOM      7  C   UNL     1       3.555   3.005  17.896  0.00  0.00    +0.000 C 
ATOM      8  C   UNL     1       2.353   3.533  17.092  0.00  0.00    +0.000 C 
ATOM      9  C   UNL     1       1.172   3.770  18.050  0.00  0.00    +0.000 C 
ATOM     10  C   UNL     1       1.676   3.275  19.362  0.00  0.00    +0.000 A 
ATOM     11  C   UNL     1       1.003   3.271  20.575  0.00  0.00    +0.000 A 
ATOM     12  C   UNL     1       1.675   2.812  21.713  0.00  0.00    +0.000 A 
ATOM     13  C   UNL     1       2.998   2.352  21.626  0.00  0.00    +0.000 A 
ATOM     14  C   UNL     1       3.654   2.355  20.398  0.00  0.00    +0.000 A 
ATOM     15  C   UNL     1       2.993   2.828  19.275  0.00  0.00    +0.000 A 
BRANCH  14  16
ATOM     16  O   UNL     1       4.938   1.924  20.273  0.00  0.00    +0.000 OA
ATOM     17  H   UNL     1       5.343   1.915  21.158  0.00  0.00    +0.000 HD
ENDBRANCH  14  16
ENDBRANCH   2   7
BRANCH   5  18
ATOM     18  C   UNL     1       7.008   4.862  13.992  0.00  0.00    +0.000 C 
ATOM     19  F   UNL     1       8.285   5.274  14.139  0.00  0.00    +0.000 F 
ATOM     20  F   UNL     1       7.027   3.533  13.729  0.00  0.00    +0.000 F 
ATOM     21  F   UNL     1       6.509   5.487  12.895  0.00  0.00    +0.000 F 
ENDBRANCH   5  18
BRANCH   5  22
ATOM     22  O   UNL     1       5.690   6.578  15.210  0.00  0.00    +0.000 OA
ATOM     23  H   UNL     1       4.876   6.583  15.752  0.00  0.00    +0.000 HD
ENDBRANCH   5  22
TORSDOF 4
ENDMDL
MODEL 5
REMARK VINA RESULT:      -7.1      3.117      4.024
REMARK  Name = 
REMARK  4 active torsions:
REMARK  status: ('A' for Active; 'I' for Inactive)
REMARK    1  A    between atoms: C_2  and  C_3
REMARK    2  A    between atoms: C_10  and  O_11
REMARK    3  A    between atoms: C_15  and  O_16
REMARK    4  A    between atoms: C_15  and  C_17
REMARK                            x       y       z     vdW  Elec       q    Type
REMARK                         _______ _______ _______ _____ _____    ______ ____
ROOT
ATOM      1  O   UNL     1       3.868   4.302  16.278  0.00  0.00    +0.000 OA
ATOM      2  C   UNL     1       4.449   4.404  17.358  0.00  0.00    +0.000 C 
ATOM      3  N   UNL     1       5.238   5.493  17.675  0.00  0.00    +0.000 N 
ATOM      4  C   UNL     1       5.474   6.653  16.823  0.00  0.00    +0.000 C 
ATOM      5  C   UNL     1       6.984   6.455  17.058  0.00  0.00    +0.000 C 
ATOM      6  C   UNL     1       6.617   5.425  18.148  0.00  0.00    +0.000 C 
ENDROOT
BRANCH   2   7
ATOM      7  C   UNL     1       4.297   3.396  18.498  0.00  0.00    +0.000 C 
ATOM      8  C   UNL     1       4.051   1.964  17.988  0.00  0.00    +0.000 C 
ATOM      9  C   UNL     1       2.637   1.519  18.403  0.00  0.00    +0.000 C 
ATOM     10  C   UNL     1       2.139   2.652  19.232  0.00  0.00    +0.000 A 
ATOM     11  C   UNL     1       0.900   2.765  19.845  0.00  0.00    +0.000 A 
ATOM     12  C   UNL     1       0.599   3.942  20.538  0.00  0.00    +0.000 A 
ATOM     13  C   UNL     1       1.537   4.983  20.621  0.00  0.00    +0.000 A 
ATOM     14  C   UNL     1       2.779   4.849  20.007  0.00  0.00    +0.000 A 
ATOM     15  C   UNL     1       3.067   3.688  19.305  0.00  0.00    +0.000 A 
BRANCH  14  16
ATOM     16  O   UNL     1       3.713   5.836  20.059  0.00  0.00    +0.000 OA
ATOM     17  H   UNL     1       4.116   5.919  19.177  0.00  0.00    +0.000 HD
ENDBRANCH  14  16
ENDBRANCH   2   7
BRANCH   5  18
ATOM     18  C   UNL     1       7.694   7.678  17.638  0.00  0.00    +0.000 C 
ATOM     19  F   UNL     1       6.835   8.653  18.004  0.00  0.00    +0.000 F 
ATOM     20  F   UNL     1       8.441   7.354  18.721  0.00  0.00    +0.000 F 
ATOM     21  F   UNL     1       8.530   8.209  16.709  0.00  0.00    +0.000 F 
ENDBRANCH   5  18
BRANCH   5  22
ATOM     22  O   UNL     1       7.710   5.890  15.915  0.00  0.00    +0.000 OA
ATOM     23  H   UNL     1       7.813   6.631  15.286  0.00  0.00    +0.000 HD
ENDBRANCH   5  22
TORSDOF 4
ENDMDL
MODEL 6
REMARK VINA RESULT:      -6.9      4.107      6.551
REMARK  Name = 
REMARK  4 active torsions:
REMARK  status: ('A' for Active; 'I' for Inactive)
REMARK    1  A    between atoms: C_2  and  C_3
REMARK    2  A    between atoms: C_10  and  O_11
REMARK    3  A    between atoms: C_15  and  O_16
REMARK    4  A    between atoms: C_15  and  C_17
REMARK                            x       y       z     vdW  Elec       q    Type
REMARK                         _______ _______ _______ _____ _____    ______ ____
ROOT
ATOM      1  O   UNL     1       3.954   6.760  18.005  0.00  0.00    +0.000 OA
ATOM      2  C   UNL     1       4.354   5.639  18.316  0.00  0.00    +0.000 C 
ATOM      3  N   UNL     1       3.504   4.644  18.761  0.00  0.00    +0.000 N 
ATOM      4  C   UNL     1       2.057   4.759  18.899  0.00  0.00    +0.000 C 
ATOM      5  C   UNL     1       2.203   4.219  20.334  0.00  0.00    +0.000 C 
ATOM      6  C   UNL     1       3.670   3.883  19.993  0.00  0.00    +0.000 C 
ENDROOT
BRANCH   2   7
ATOM      7  C   UNL     1       5.808   5.189  18.165  0.00  0.00    +0.000 C 
ATOM      8  C   UNL     1       6.807   6.335  18.408  0.00  0.00    +0.000 C 
ATOM      9  C   UNL     1       7.547   6.643  17.095  0.00  0.00    +0.000 C 
ATOM     10  C   UNL     1       7.044   5.605  16.153  0.00  0.00    +0.000 A 
ATOM     11  C   UNL     1       7.387   5.441  14.818  0.00  0.00    +0.000 A 
ATOM     12  C   UNL     1       6.756   4.433  14.082  0.00  0.00    +0.000 A 
ATOM     13  C   UNL     1       5.805   3.595  14.685  0.00  0.00    +0.000 A 
ATOM     14  C   UNL     1       5.480   3.768  16.028  0.00  0.00    +0.000 A 
ATOM     15  C   UNL     1       6.093   4.780  16.750  0.00  0.00    +0.000 A 
BRANCH  14  16
ATOM     16  O   UNL     1       4.560   2.981  16.648  0.00  0.00    +0.000 OA
ATOM     17  H   UNL     1       4.393   3.351  17.533  0.00  0.00    +0.000 HD
ENDBRANCH  14  16
ENDBRANCH   2   7
BRANCH   5  18
ATOM     18  C   UNL     1       1.376   2.965  20.620  0.00  0.00    +0.000 C 
ATOM     19  F   UNL     1       0.107   3.066  20.172  0.00  0.00    +0.000 F 
ATOM     20  F   UNL     1       1.929   1.864  20.058  0.00  0.00    +0.000 F 
ATOM     21  F   UNL     1       1.312   2.750  21.959  0.00  0.00    +0.000 F 
ENDBRANCH   5  18
BRANCH   5  22
ATOM     22  O   UNL     1       2.045   5.230  21.386  0.00  0.00    +0.000 OA
ATOM     23  H   UNL     1       2.191   4.751  22.226  0.00  0.00    +0.000 HD
ENDBRANCH   5  22
TORSDOF 4
ENDMDL
MODEL 7
REMARK VINA RESULT:      -6.7      3.374      5.862
REMARK  Name = 
REMARK  4 active torsions:
REMARK  status: ('A' for Active; 'I' for Inactive)
REMARK    1  A    between atoms: C_2  and  C_3
REMARK    2  A    between atoms: C_10  and  O_11
REMARK    3  A    between atoms: C_15  and  O_16
REMARK    4  A    between atoms: C_15  and  C_17
REMARK                            x       y       z     vdW  Elec       q    Type
REMARK                         _______ _______ _______ _____ _____    ______ ____
ROOT
ATOM      1  O   UNL     1       6.290   4.649  19.893  0.00  0.00    +0.000 OA
ATOM      2  C   UNL     1       5.524   5.140  19.065  0.00  0.00    +0.000 C 
ATOM      3  N   UNL     1       4.172   4.854  19.044  0.00  0.00    +0.000 N 
ATOM      4  C   UNL     1       3.470   3.983  19.980  0.00  0.00    +0.000 C 
ATOM      5  C   UNL     1       2.865   3.253  18.766  0.00  0.00    +0.000 C 
ATOM      6  C   UNL     1       3.427   4.386  17.881  0.00  0.00    +0.000 C 
ENDROOT
BRANCH   2   7
ATOM      7  C   UNL     1       5.953   6.179  18.028  0.00  0.00    +0.000 C 
ATOM      8  C   UNL     1       4.841   7.201  17.725  0.00  0.00    +0.000 C 
ATOM      9  C   UNL     1       4.384   7.026  16.265  0.00  0.00    +0.000 C 
ATOM     10  C   UNL     1       5.309   5.990  15.726  0.00  0.00    +0.000 A 
ATOM     11  C   UNL     1       5.318   5.455  14.446  0.00  0.00    +0.000 A 
ATOM     12  C   UNL     1       6.237   4.442  14.150  0.00  0.00    +0.000 A 
ATOM     13  C   UNL     1       7.139   3.987  15.124  0.00  0.00    +0.000 A 
ATOM     14  C   UNL     1       7.121   4.542  16.400  0.00  0.00    +0.000 A 
ATOM     15  C   UNL     1       6.197   5.533  16.697  0.00  0.00    +0.000 A 
BRANCH  14  16
ATOM     16  O   UNL     1       7.974   4.125  17.374  0.00  0.00    +0.000 OA
ATOM     17  H   UNL     1       8.314   4.912  17.836  0.00  0.00    +0.000 HD
ENDBRANCH  14  16
ENDBRANCH   2   7
BRANCH   5  18
ATOM     18  C   UNL     1       1.337   3.216  18.753  0.00  0.00    +0.000 C 
ATOM     19  F   UNL     1       0.798   3.622  19.922  0.00  0.00    +0.000 F 
ATOM     20  F   UNL     1       0.827   3.995  17.769  0.00  0.00    +0.000 F 
ATOM     21  F   UNL     1       0.907   1.948  18.532  0.00  0.00    +0.000 F 
ENDBRANCH   5  18
BRANCH   5  22
ATOM     22  O   UNL     1       3.446   1.933  18.495  0.00  0.00    +0.000 OA
ATOM     23  H   UNL     1       3.578   1.527  19.375  0.00  0.00    +0.000 HD
ENDBRANCH   5  22
TORSDOF 4
ENDMDL
MODEL 8
REMARK VINA RESULT:      -6.5      3.868      6.260
REMARK  Name = 
REMARK  4 active torsions:
REMARK  status: ('A' for Active; 'I' for Inactive)
REMARK    1  A    between atoms: C_2  and  C_3
REMARK    2  A    between atoms: C_10  and  O_11
REMARK    3  A    between atoms: C_15  and  O_16
REMARK    4  A    between atoms: C_15  and  C_17
REMARK                            x       y       z     vdW  Elec       q    Type
REMARK                         _______ _______ _______ _____ _____    ______ ____
ROOT
ATOM      1  O   UNL     1       6.067   3.523  19.681  0.00  0.00    +0.000 OA
ATOM      2  C   UNL     1       5.211   4.344  19.355  0.00  0.00    +0.000 C 
ATOM      3  N   UNL     1       3.877   4.198  19.687  0.00  0.00    +0.000 N 
ATOM      4  C   UNL     1       3.308   3.104  20.465  0.00  0.00    +0.000 C 
ATOM      5  C   UNL     1       2.262   2.922  19.349  0.00  0.00    +0.000 C 
ATOM      6  C   UNL     1       2.764   4.251  18.746  0.00  0.00    +0.000 C 
ENDROOT
BRANCH   2   7
ATOM      7  C   UNL     1       5.528   5.653  18.630  0.00  0.00    +0.000 C 
ATOM      8  C   UNL     1       4.286   6.545  18.455  0.00  0.00    +0.000 C 
ATOM      9  C   UNL     1       3.957   6.662  16.956  0.00  0.00    +0.000 C 
ATOM     10  C   UNL     1       5.072   5.930  16.292  0.00  0.00    +0.000 A 
ATOM     11  C   UNL     1       5.251   5.724  14.931  0.00  0.00    +0.000 A 
ATOM     12  C   UNL     1       6.340   4.956  14.507  0.00  0.00    +0.000 A 
ATOM     13  C   UNL     1       7.241   4.416  15.438  0.00  0.00    +0.000 A 
ATOM     14  C   UNL     1       7.051   4.641  16.799  0.00  0.00    +0.000 A 
ATOM     15  C   UNL     1       5.960   5.387  17.218  0.00  0.00    +0.000 A 
BRANCH  14  16
ATOM     16  O   UNL     1       7.897   4.131  17.733  0.00  0.00    +0.000 OA
ATOM     17  H   UNL     1       7.384   3.951  18.541  0.00  0.00    +0.000 HD
ENDBRANCH  14  16
ENDBRANCH   2   7
BRANCH   5  18
ATOM     18  C   UNL     1       0.813   3.018  19.826  0.00  0.00    +0.000 C 
ATOM     19  F   UNL     1       0.410   4.293  20.012  0.00  0.00    +0.000 F 
ATOM     20  F   UNL     1      -0.040   2.436  18.949  0.00  0.00    +0.000 F 
ATOM     21  F   UNL     1       0.674   2.377  21.015  0.00  0.00    +0.000 F 
ENDBRANCH   5  18
BRANCH   5  22
ATOM     22  O   UNL     1       2.480   1.751  18.493  0.00  0.00    +0.000 OA
ATOM     23  H   UNL     1       3.449   1.619  18.482  0.00  0.00    +0.000 HD
ENDBRANCH   5  22
TORSDOF 4
ENDMDL
