MODEL 1
REMARK VINA RESULT:      -6.1      0.000      0.000
REMARK  Name = 
REMARK  7 active torsions:
REMARK  status: ('A' for Active; 'I' for Inactive)
REMARK    1  A    between atoms: C_1  and  C_2
REMARK    2  A    between atoms: C_2  and  C_3
REMARK    3  A    between atoms: C_3  and  C_4
REMARK    4  A    between atoms: C_4  and  N_5
REMARK    5  A    between atoms: N_7  and  C_8
REMARK    6  A    between atoms: C_8  and  C_9
REMARK    7  A    between atoms: C_9  and  O_10
REMARK                            x       y       z     vdW  Elec       q    Type
REMARK                         _______ _______ _______ _____ _____    ______ ____
ROOT
ATOM      1  N   UNL     1       3.666   4.426  18.710  0.00  0.00    +0.000 N 
ATOM      2  C   UNL     1       4.325   4.547  17.504  0.00  0.00    +0.000 A 
ATOM      3  N   UNL     1       5.068   3.556  16.972  0.00  0.00    +0.000 N 
ATOM      4  N   UNL     1       4.167   5.751  17.003  0.00  0.00    +0.000 NA
ATOM      5  C   UNL     1       3.385   6.435  17.896  0.00  0.00    +0.000 A 
ATOM      6  C   UNL     1       2.950   7.769  17.864  0.00  0.00    +0.000 A 
ATOM      7  C   UNL     1       2.199   8.259  18.941  0.00  0.00    +0.000 A 
ATOM      8  C   UNL     1       1.858   7.431  20.010  0.00  0.00    +0.000 A 
ATOM      9  C   UNL     1       2.245   6.088  20.033  0.00  0.00    +0.000 A 
ATOM     10  C   UNL     1       3.030   5.626  18.966  0.00  0.00    +0.000 A 
ATOM     11  H   UNL     1       5.120   2.616  17.340  0.00  0.00    +0.000 HD
ENDROOT
BRANCH   1  12
ATOM     12  C   UNL     1       3.710   3.311  19.642  0.00  0.00    +0.000 C 
BRANCH  12  13
ATOM     13  C   UNL     1       2.611   2.281  19.364  0.00  0.00    +0.000 C 
BRANCH  13  15
ATOM     14  C   UNL     1       1.774   2.752  21.677  0.00  0.00    +0.000 C 
ATOM     15  C   UNL     1       1.375   2.506  20.231  0.00  0.00    +0.000 C 
ENDBRANCH  13  15
ENDBRANCH  12  13
ENDBRANCH   1  12
BRANCH   3  16
ATOM     16  C   UNL     1       5.994   3.856  15.880  0.00  0.00    +0.000 C 
BRANCH  16  17
ATOM     17  C   UNL     1       7.255   4.549  16.412  0.00  0.00    +0.000 C 
BRANCH  17  18
ATOM     18  O   UNL     1       7.291   5.912  15.971  0.00  0.00    +0.000 OA
ATOM     19  H   UNL     1       7.067   6.421  16.770  0.00  0.00    +0.000 HD
ENDBRANCH  17  18
ENDBRANCH  16  17
ENDBRANCH   3  16
TORSDOF 6
ENDMDL
MODEL 2
REMARK VINA RESULT:      -6.1      1.281      4.054
REMARK  Name = 
REMARK  7 active torsions:
REMARK  status: ('A' for Active; 'I' for Inactive)
REMARK    1  A    between atoms: C_1  and  C_2
REMARK    2  A    between atoms: C_2  and  C_3
REMARK    3  A    between atoms: C_3  and  C_4
REMARK    4  A    between atoms: C_4  and  N_5
REMARK    5  A    between atoms: N_7  and  C_8
REMARK    6  A    between atoms: C_8  and  C_9
REMARK    7  A    between atoms: C_9  and  O_10
REMARK                            x       y       z     vdW  Elec       q    Type
REMARK                         _______ _______ _______ _____ _____    ______ ____
ROOT
ATOM      1  N   UNL     1       3.090   5.132  18.498  0.00  0.00    +0.000 N 
ATOM      2  C   UNL     1       4.266   4.590  18.024  0.00  0.00    +0.000 A 
ATOM      3  N   UNL     1       4.908   5.067  16.938  0.00  0.00    +0.000 N 
ATOM      4  N   UNL     1       4.620   3.543  18.734  0.00  0.00    +0.000 NA
ATOM      5  C   UNL     1       3.657   3.395  19.699  0.00  0.00    +0.000 A 
ATOM      6  C   UNL     1       3.531   2.412  20.692  0.00  0.00    +0.000 A 
ATOM      7  C   UNL     1       2.410   2.442  21.531  0.00  0.00    +0.000 A 
ATOM      8  C   UNL     1       1.452   3.448  21.409  0.00  0.00    +0.000 A 
ATOM      9  C   UNL     1       1.588   4.460  20.454  0.00  0.00    +0.000 A 
ATOM     10  C   UNL     1       2.697   4.391  19.597  0.00  0.00    +0.000 A 
ATOM     11  H   UNL     1       4.656   5.915  16.448  0.00  0.00    +0.000 HD
ENDROOT
BRANCH   1  12
ATOM     12  C   UNL     1       2.299   6.200  17.910  0.00  0.00    +0.000 C 
BRANCH  12  13
ATOM     13  C   UNL     1       2.490   7.532  18.643  0.00  0.00    +0.000 C 
BRANCH  13  15
ATOM     14  C   UNL     1       1.052   9.499  18.063  0.00  0.00    +0.000 C 
ATOM     15  C   UNL     1       2.319   8.732  17.716  0.00  0.00    +0.000 C 
ENDBRANCH  13  15
ENDBRANCH  12  13
ENDBRANCH   1  12
BRANCH   3  16
ATOM     16  C   UNL     1       5.946   4.258  16.302  0.00  0.00    +0.000 C 
BRANCH  16  17
ATOM     17  C   UNL     1       7.342   4.726  16.734  0.00  0.00    +0.000 C 
BRANCH  17  18
ATOM     18  O   UNL     1       7.666   4.183  18.020  0.00  0.00    +0.000 OA
ATOM     19  H   UNL     1       6.799   4.064  18.448  0.00  0.00    +0.000 HD
ENDBRANCH  17  18
ENDBRANCH  16  17
ENDBRANCH   3  16
TORSDOF 6
ENDMDL
MODEL 3
REMARK VINA RESULT:      -6.1      1.948      3.914
REMARK  Name = 
REMARK  7 active torsions:
REMARK  status: ('A' for Active; 'I' for Inactive)
REMARK    1  A    between atoms: C_1  and  C_2
REMARK    2  A    between atoms: C_2  and  C_3
REMARK    3  A    between atoms: C_3  and  C_4
REMARK    4  A    between atoms: C_4  and  N_5
REMARK    5  A    between atoms: N_7  and  C_8
REMARK    6  A    between atoms: C_8  and  C_9
REMARK    7  A    between atoms: C_9  and  O_10
REMARK                            x       y       z     vdW  Elec       q    Type
REMARK                         _______ _______ _______ _____ _____    ______ ____
ROOT
ATOM      1  N   UNL     1       4.625   4.787  18.330  0.00  0.00    +0.000 N 
ATOM      2  C   UNL     1       4.803   4.064  17.169  0.00  0.00    +0.000 A 
ATOM      3  N   UNL     1       5.842   4.263  16.333  0.00  0.00    +0.000 N 
ATOM      4  N   UNL     1       3.810   3.224  16.983  0.00  0.00    +0.000 NA
ATOM      5  C   UNL     1       2.963   3.395  18.047  0.00  0.00    +0.000 A 
ATOM      6  C   UNL     1       1.734   2.775  18.319  0.00  0.00    +0.000 A 
ATOM      7  C   UNL     1       1.017   3.170  19.456  0.00  0.00    +0.000 A 
ATOM      8  C   UNL     1       1.529   4.135  20.323  0.00  0.00    +0.000 A 
ATOM      9  C   UNL     1       2.773   4.727  20.090  0.00  0.00    +0.000 A 
ATOM     10  C   UNL     1       3.457   4.349  18.925  0.00  0.00    +0.000 A 
ATOM     11  H   UNL     1       6.630   4.865  16.529  0.00  0.00    +0.000 HD
ENDROOT
BRANCH   1  12
ATOM     12  C   UNL     1       5.418   5.904  18.815  0.00  0.00    +0.000 C 
BRANCH  12  13
ATOM     13  C   UNL     1       6.740   5.447  19.441  0.00  0.00    +0.000 C 
BRANCH  13  15
ATOM     14  C   UNL     1       7.498   7.163  17.782  0.00  0.00    +0.000 C 
ATOM     15  C   UNL     1       7.943   6.177  18.850  0.00  0.00    +0.000 C 
ENDBRANCH  13  15
ENDBRANCH  12  13
ENDBRANCH   1  12
BRANCH   3  16
ATOM     16  C   UNL     1       5.795   3.710  14.980  0.00  0.00    +0.000 C 
BRANCH  16  17
ATOM     17  C   UNL     1       6.693   4.515  14.032  0.00  0.00    +0.000 C 
BRANCH  17  18
ATOM     18  O   UNL     1       7.610   5.317  14.786  0.00  0.00    +0.000 OA
ATOM     19  H   UNL     1       7.137   5.490  15.620  0.00  0.00    +0.000 HD
ENDBRANCH  17  18
ENDBRANCH  16  17
ENDBRANCH   3  16
TORSDOF 6
ENDMDL
MODEL 4
REMARK VINA RESULT:      -6.0      2.082      4.516
REMARK  Name = 
REMARK  7 active torsions:
REMARK  status: ('A' for Active; 'I' for Inactive)
REMARK    1  A    between atoms: C_1  and  C_2
REMARK    2  A    between atoms: C_2  and  C_3
REMARK    3  A    between atoms: C_3  and  C_4
REMARK    4  A    between atoms: C_4  and  N_5
REMARK    5  A    between atoms: N_7  and  C_8
REMARK    6  A    between atoms: C_8  and  C_9
REMARK    7  A    between atoms: C_9  and  O_10
REMARK                            x       y       z     vdW  Elec       q    Type
REMARK                         _______ _______ _______ _____ _____    ______ ____
ROOT
ATOM      1  N   UNL     1       4.946   4.321  17.202  0.00  0.00    +0.000 N 
ATOM      2  C   UNL     1       5.685   5.163  18.006  0.00  0.00    +0.000 A 
ATOM      3  N   UNL     1       6.966   5.492  17.741  0.00  0.00    +0.000 N 
ATOM      4  N   UNL     1       4.993   5.536  19.058  0.00  0.00    +0.000 NA
ATOM      5  C   UNL     1       3.769   4.929  18.942  0.00  0.00    +0.000 A 
ATOM      6  C   UNL     1       2.670   4.960  19.814  0.00  0.00    +0.000 A 
ATOM      7  C   UNL     1       1.539   4.196  19.499  0.00  0.00    +0.000 A 
ATOM      8  C   UNL     1       1.488   3.445  18.325  0.00  0.00    +0.000 A 
ATOM      9  C   UNL     1       2.556   3.442  17.424  0.00  0.00    +0.000 A 
ATOM     10  C   UNL     1       3.696   4.181  17.776  0.00  0.00    +0.000 A 
ATOM     11  H   UNL     1       7.458   5.249  16.892  0.00  0.00    +0.000 HD
ENDROOT
BRANCH   1  12
ATOM     12  C   UNL     1       5.393   3.586  16.031  0.00  0.00    +0.000 C 
BRANCH  12  13
ATOM     13  C   UNL     1       5.343   4.438  14.759  0.00  0.00    +0.000 C 
BRANCH  13  15
ATOM     14  C   UNL     1       6.211   3.546  12.586  0.00  0.00    +0.000 C 
ATOM     15  C   UNL     1       6.579   4.246  13.885  0.00  0.00    +0.000 C 
ENDBRANCH  13  15
ENDBRANCH  12  13
ENDBRANCH   1  12
BRANCH   3  16
ATOM     16  C   UNL     1       7.783   6.106  18.787  0.00  0.00    +0.000 C 
BRANCH  16  17
ATOM     17  C   UNL     1       8.155   7.547  18.411  0.00  0.00    +0.000 C 
BRANCH  17  18
ATOM     18  O   UNL     1       7.769   7.817  17.058  0.00  0.00    +0.000 OA
ATOM     19  H   UNL     1       6.829   7.563  17.028  0.00  0.00    +0.000 HD
ENDBRANCH  17  18
ENDBRANCH  16  17
ENDBRANCH   3  16
TORSDOF 6
ENDMDL
MODEL 5
REMARK VINA RESULT:      -6.0      2.729      5.060
REMARK  Name = 
REMARK  7 active torsions:
REMARK  status: ('A' for Active; 'I' for Inactive)
REMARK    1  A    between atoms: C_1  and  C_2
REMARK    2  A    between atoms: C_2  and  C_3
REMARK    3  A    between atoms: C_3  and  C_4
REMARK    4  A    between atoms: C_4  and  N_5
REMARK    5  A    between atoms: N_7  and  C_8
REMARK    6  A    between atoms: C_8  and  C_9
REMARK    7  A    between atoms: C_9  and  O_10
REMARK                            x       y       z     vdW  Elec       q    Type
REMARK                         _______ _______ _______ _____ _____    ______ ____
ROOT
ATOM      1  N   UNL     1       4.430   5.273  18.131  0.00  0.00    +0.000 N 
ATOM      2  C   UNL     1       4.581   4.228  19.019  0.00  0.00    +0.000 A 
ATOM      3  N   UNL     1       3.575   3.390  19.343  0.00  0.00    +0.000 N 
ATOM      4  N   UNL     1       5.794   4.212  19.522  0.00  0.00    +0.000 NA
ATOM      5  C   UNL     1       6.457   5.267  18.951  0.00  0.00    +0.000 A 
ATOM      6  C   UNL     1       7.765   5.724  19.168  0.00  0.00    +0.000 A 
ATOM      7  C   UNL     1       8.197   6.876  18.499  0.00  0.00    +0.000 A 
ATOM      8  C   UNL     1       7.357   7.540  17.605  0.00  0.00    +0.000 A 
ATOM      9  C   UNL     1       6.067   7.070  17.343  0.00  0.00    +0.000 A 
ATOM     10  C   UNL     1       5.639   5.938  18.053  0.00  0.00    +0.000 A 
ATOM     11  H   UNL     1       2.670   3.378  18.893  0.00  0.00    +0.000 HD
ENDROOT
BRANCH   1  12
ATOM     12  C   UNL     1       3.211   5.717  17.476  0.00  0.00    +0.000 C 
BRANCH  12  13
ATOM     13  C   UNL     1       2.472   6.785  18.289  0.00  0.00    +0.000 C 
BRANCH  13  15
ATOM     14  C   UNL     1       1.468   9.068  18.077  0.00  0.00    +0.000 C 
ATOM     15  C   UNL     1       2.645   8.182  17.702  0.00  0.00    +0.000 C 
ENDBRANCH  13  15
ENDBRANCH  12  13
ENDBRANCH   1  12
BRANCH   3  16
ATOM     16  C   UNL     1       3.705   2.529  20.518  0.00  0.00    +0.000 C 
BRANCH  16  17
ATOM     17  C   UNL     1       2.508   2.708  21.459  0.00  0.00    +0.000 C 
BRANCH  17  18
ATOM     18  O   UNL     1       2.219   4.102  21.627  0.00  0.00    +0.000 OA
ATOM     19  H   UNL     1       3.086   4.534  21.522  0.00  0.00    +0.000 HD
ENDBRANCH  17  18
ENDBRANCH  16  17
ENDBRANCH   3  16
TORSDOF 6
ENDMDL
MODEL 6
REMARK VINA RESULT:      -6.0      1.252      4.049
REMARK  Name = 
REMARK  7 active torsions:
REMARK  status: ('A' for Active; 'I' for Inactive)
REMARK    1  A    between atoms: C_1  and  C_2
REMARK    2  A    between atoms: C_2  and  C_3
REMARK    3  A    between atoms: C_3  and  C_4
REMARK    4  A    between atoms: C_4  and  N_5
REMARK    5  A    between atoms: N_7  and  C_8
REMARK    6  A    between atoms: C_8  and  C_9
REMARK    7  A    between atoms: C_9  and  O_10
REMARK                            x       y       z     vdW  Elec       q    Type
REMARK                         _______ _______ _______ _____ _____    ______ ____
ROOT
ATOM      1  N   UNL     1       3.484   5.336  18.716  0.00  0.00    +0.000 N 
ATOM      2  C   UNL     1       4.795   4.909  18.695  0.00  0.00    +0.000 A 
ATOM      3  N   UNL     1       5.741   5.484  17.924  0.00  0.00    +0.000 N 
ATOM      4  N   UNL     1       4.960   3.861  19.469  0.00  0.00    +0.000 NA
ATOM      5  C   UNL     1       3.731   3.594  20.015  0.00  0.00    +0.000 A 
ATOM      6  C   UNL     1       3.343   2.559  20.879  0.00  0.00    +0.000 A 
ATOM      7  C   UNL     1       1.996   2.463  21.253  0.00  0.00    +0.000 A 
ATOM      8  C   UNL     1       1.062   3.397  20.805  0.00  0.00    +0.000 A 
ATOM      9  C   UNL     1       1.443   4.460  19.981  0.00  0.00    +0.000 A 
ATOM     10  C   UNL     1       2.788   4.516  19.585  0.00  0.00    +0.000 A 
ATOM     11  H   UNL     1       5.609   6.331  17.389  0.00  0.00    +0.000 HD
ENDROOT
BRANCH   1  12
ATOM     12  C   UNL     1       2.868   6.366  17.896  0.00  0.00    +0.000 C 
BRANCH  12  13
ATOM     13  C   UNL     1       2.522   7.619  18.705  0.00  0.00    +0.000 C 
BRANCH  13  15
ATOM     14  C   UNL     1       1.163   9.722  18.691  0.00  0.00    +0.000 C 
ATOM     15  C   UNL     1       1.925   8.723  17.836  0.00  0.00    +0.000 C 
ENDBRANCH  13  15
ENDBRANCH  12  13
ENDBRANCH   1  12
BRANCH   3  16
ATOM     16  C   UNL     1       7.007   4.788  17.698  0.00  0.00    +0.000 C 
BRANCH  16  17
ATOM     17  C   UNL     1       7.183   4.449  16.212  0.00  0.00    +0.000 C 
BRANCH  17  18
ATOM     18  O   UNL     1       7.499   5.634  15.471  0.00  0.00    +0.000 OA
ATOM     19  H   UNL     1       6.734   6.216  15.625  0.00  0.00    +0.000 HD
ENDBRANCH  17  18
ENDBRANCH  16  17
ENDBRANCH   3  16
TORSDOF 6
ENDMDL
MODEL 7
REMARK VINA RESULT:      -5.9      1.350      3.856
REMARK  Name = 
REMARK  7 active torsions:
REMARK  status: ('A' for Active; 'I' for Inactive)
REMARK    1  A    between atoms: C_1  and  C_2
REMARK    2  A    between atoms: C_2  and  C_3
REMARK    3  A    between atoms: C_3  and  C_4
REMARK    4  A    between atoms: C_4  and  N_5
REMARK    5  A    between atoms: N_7  and  C_8
REMARK    6  A    between atoms: C_8  and  C_9
REMARK    7  A    between atoms: C_9  and  O_10
REMARK                            x       y       z     vdW  Elec       q    Type
REMARK                         _______ _______ _______ _____ _____    ______ ____
ROOT
ATOM      1  N   UNL     1       3.260   5.587  18.271  0.00  0.00    +0.000 N 
ATOM      2  C   UNL     1       4.051   5.102  17.252  0.00  0.00    +0.000 A 
ATOM      3  N   UNL     1       4.919   5.873  16.565  0.00  0.00    +0.000 N 
ATOM      4  N   UNL     1       3.798   3.833  17.025  0.00  0.00    +0.000 NA
ATOM      5  C   UNL     1       2.821   3.475  17.918  0.00  0.00    +0.000 A 
ATOM      6  C   UNL     1       2.162   2.246  18.076  0.00  0.00    +0.000 A 
ATOM      7  C   UNL     1       1.142   2.147  19.031  0.00  0.00    +0.000 A 
ATOM      8  C   UNL     1       0.809   3.235  19.837  0.00  0.00    +0.000 A 
ATOM      9  C   UNL     1       1.488   4.452  19.722  0.00  0.00    +0.000 A 
ATOM     10  C   UNL     1       2.479   4.544  18.733  0.00  0.00    +0.000 A 
ATOM     11  H   UNL     1       5.148   6.829  16.801  0.00  0.00    +0.000 HD
ENDROOT
BRANCH   1  12
ATOM     12  C   UNL     1       3.135   6.962  18.725  0.00  0.00    +0.000 C 
BRANCH  12  13
ATOM     13  C   UNL     1       2.204   7.785  17.828  0.00  0.00    +0.000 C 
BRANCH  13  15
ATOM     14  C   UNL     1       1.310   8.751  19.958  0.00  0.00    +0.000 C 
ATOM     15  C   UNL     1       1.702   9.049  18.520  0.00  0.00    +0.000 C 
ENDBRANCH  13  15
ENDBRANCH  12  13
ENDBRANCH   1  12
BRANCH   3  16
ATOM     16  C   UNL     1       5.472   5.387  15.302  0.00  0.00    +0.000 C 
BRANCH  16  17
ATOM     17  C   UNL     1       6.907   4.881  15.495  0.00  0.00    +0.000 C 
BRANCH  17  18
ATOM     18  O   UNL     1       7.770   5.459  14.508  0.00  0.00    +0.000 OA
ATOM     19  H   UNL     1       7.155   5.838  13.854  0.00  0.00    +0.000 HD
ENDBRANCH  17  18
ENDBRANCH  16  17
ENDBRANCH   3  16
TORSDOF 6
ENDMDL
MODEL 8
REMARK VINA RESULT:      -5.9      1.287      1.496
REMARK  Name = 
REMARK  7 active torsions:
REMARK  status: ('A' for Active; 'I' for Inactive)
REMARK    1  A    between atoms: C_1  and  C_2
REMARK    2  A    between atoms: C_2  and  C_3
REMARK    3  A    between atoms: C_3  and  C_4
REMARK    4  A    between atoms: C_4  and  N_5
REMARK    5  A    between atoms: N_7  and  C_8
REMARK    6  A    between atoms: C_8  and  C_9
REMARK    7  A    between atoms: C_9  and  O_10
REMARK                            x       y       z     vdW  Elec       q    Type
REMARK                         _______ _______ _______ _____ _____    ______ ____
ROOT
ATOM      1  N   UNL     1       4.314   4.469  18.288  0.00  0.00    +0.000 N 
ATOM      2  C   UNL     1       5.055   4.844  17.187  0.00  0.00    +0.000 A 
ATOM      3  N   UNL     1       5.976   4.043  16.615  0.00  0.00    +0.000 N 
ATOM      4  N   UNL     1       4.773   6.076  16.830  0.00  0.00    +0.000 NA
ATOM      5  C   UNL     1       3.823   6.520  17.713  0.00  0.00    +0.000 A 
ATOM      6  C   UNL     1       3.207   7.777  17.806  0.00  0.00    +0.000 A 
ATOM      7  C   UNL     1       2.301   8.009  18.849  0.00  0.00    +0.000 A 
ATOM      8  C   UNL     1       1.987   7.000  19.759  0.00  0.00    +0.000 A 
ATOM      9  C   UNL     1       2.558   5.728  19.652  0.00  0.00    +0.000 A 
ATOM     10  C   UNL     1       3.493   5.528  18.625  0.00  0.00    +0.000 A 
ATOM     11  H   UNL     1       6.129   3.074  16.863  0.00  0.00    +0.000 HD
ENDROOT
BRANCH   1  12
ATOM     12  C   UNL     1       4.433   3.248  19.069  0.00  0.00    +0.000 C 
BRANCH  12  13
ATOM     13  C   UNL     1       3.495   2.146  18.566  0.00  0.00    +0.000 C 
BRANCH  13  15
ATOM     14  C   UNL     1       1.026   2.552  18.657  0.00  0.00    +0.000 C 
ATOM     15  C   UNL     1       2.234   2.026  19.416  0.00  0.00    +0.000 C 
ENDBRANCH  13  15
ENDBRANCH  12  13
ENDBRANCH   1  12
BRANCH   3  16
ATOM     16  C   UNL     1       6.944   4.612  15.678  0.00  0.00    +0.000 C 
BRANCH  16  17
ATOM     17  C   UNL     1       6.418   4.536  14.239  0.00  0.00    +0.000 C 
BRANCH  17  18
ATOM     18  O   UNL     1       6.308   3.168  13.827  0.00  0.00    +0.000 OA
ATOM     19  H   UNL     1       5.550   3.168  13.216  0.00  0.00    +0.000 HD
ENDBRANCH  17  18
ENDBRANCH  16  17
ENDBRANCH   3  16
TORSDOF 6
ENDMDL
MODEL 9
REMARK VINA RESULT:      -5.9      1.259      3.810
REMARK  Name = 
REMARK  7 active torsions:
REMARK  status: ('A' for Active; 'I' for Inactive)
REMARK    1  A    between atoms: C_1  and  C_2
REMARK    2  A    between atoms: C_2  and  C_3
REMARK    3  A    between atoms: C_3  and  C_4
REMARK    4  A    between atoms: C_4  and  N_5
REMARK    5  A    between atoms: N_7  and  C_8
REMARK    6  A    between atoms: C_8  and  C_9
REMARK    7  A    between atoms: C_9  and  O_10
REMARK                            x       y       z     vdW  Elec       q    Type
REMARK                         _______ _______ _______ _____ _____    ______ ____
ROOT
ATOM      1  N   UNL     1       3.891   4.993  18.322  0.00  0.00    +0.000 N 
ATOM      2  C   UNL     1       4.462   4.115  17.425  0.00  0.00    +0.000 A 
ATOM      3  N   UNL     1       5.517   4.439  16.651  0.00  0.00    +0.000 N 
ATOM      4  N   UNL     1       3.808   2.976  17.403  0.00  0.00    +0.000 NA
ATOM      5  C   UNL     1       2.787   3.106  18.308  0.00  0.00    +0.000 A 
ATOM      6  C   UNL     1       1.770   2.200  18.645  0.00  0.00    +0.000 A 
ATOM      7  C   UNL     1       0.793   2.595  19.568  0.00  0.00    +0.000 A 
ATOM      8  C   UNL     1       0.846   3.852  20.170  0.00  0.00    +0.000 A 
ATOM      9  C   UNL     1       1.879   4.748  19.879  0.00  0.00    +0.000 A 
ATOM     10  C   UNL     1       2.825   4.350  18.923  0.00  0.00    +0.000 A 
ATOM     11  H   UNL     1       6.047   5.297  16.733  0.00  0.00    +0.000 HD
ENDROOT
BRANCH   1  12
ATOM     12  C   UNL     1       4.226   6.391  18.538  0.00  0.00    +0.000 C 
BRANCH  12  13
ATOM     13  C   UNL     1       3.407   7.327  17.643  0.00  0.00    +0.000 C 
BRANCH  13  15
ATOM     14  C   UNL     1       1.996   9.389  17.802  0.00  0.00    +0.000 C 
ATOM     15  C   UNL     1       2.286   8.024  18.408  0.00  0.00    +0.000 C 
ENDBRANCH  13  15
ENDBRANCH  12  13
ENDBRANCH   1  12
BRANCH   3  16
ATOM     16  C   UNL     1       5.857   3.597  15.505  0.00  0.00    +0.000 C 
BRANCH  16  17
ATOM     17  C   UNL     1       6.470   4.435  14.376  0.00  0.00    +0.000 C 
BRANCH  17  18
ATOM     18  O   UNL     1       6.682   5.780  14.821  0.00  0.00    +0.000 OA
ATOM     19  H   UNL     1       6.847   5.686  15.777  0.00  0.00    +0.000 HD
ENDBRANCH  17  18
ENDBRANCH  16  17
ENDBRANCH   3  16
TORSDOF 6
ENDMDL
