MODEL 1
REMARK VINA RESULT:      -8.5      0.000      0.000
REMARK  Name = 
REMARK  9 active torsions:
REMARK  status: ('A' for Active; 'I' for Inactive)
REMARK    1  A    between atoms: C_1  and  O_2
REMARK    2  A    between atoms: O_2  and  C_3
REMARK    3  A    between atoms: C_6  and  C_7
REMARK    4  A    between atoms: C_7  and  N_8
REMARK    5  A    between atoms: C_14  and  N_15
REMARK    6  A    between atoms: N_15  and  C_16
REMARK    7  A    between atoms: N_26  and  C_27
REMARK    8  A    between atoms: C_29  and  O_30
REMARK    9  A    between atoms: O_30  and  C_31
REMARK                            x       y       z     vdW  Elec       q    Type
REMARK                         _______ _______ _______ _____ _____    ______ ____
ROOT
ATOM      1  N   UNL     1       2.255   7.476  19.533  0.00  0.00    +0.000 N 
ATOM      2  C   UNL     1       1.569   8.334  20.314  0.00  0.00    +0.000 A 
ATOM      3  N   UNL     1       1.344   8.210  21.601  0.00  0.00    +0.000 NA
ATOM      4  C   UNL     1       0.536   9.258  21.947  0.00  0.00    +0.000 A 
ATOM      5  C   UNL     1      -0.025   9.596  23.176  0.00  0.00    +0.000 A 
ATOM      6  N   UNL     1      -0.851  10.670  23.275  0.00  0.00    +0.000 NA
ATOM      7  C   UNL     1      -1.123  11.434  22.195  0.00  0.00    +0.000 A 
ATOM      8  C   UNL     1      -0.572  11.174  20.936  0.00  0.00    +0.000 A 
ATOM      9  C   UNL     1       0.265  10.059  20.845  0.00  0.00    +0.000 A 
ATOM     10  N   UNL     1       0.977   9.479  19.823  0.00  0.00    +0.000 N 
ATOM     11  C   UNL     1       1.052   9.955  18.467  0.00  0.00    +0.000 C 
ATOM     12  H   UNL     1       2.272   7.582  18.526  0.00  0.00    +0.000 HD
ENDROOT
BRANCH   7  13
ATOM     13  N   UNL     1      -1.948  12.579  22.307  0.00  0.00    +0.000 N 
ATOM     14  H   UNL     1      -1.433  13.413  22.051  0.00  0.00    +0.000 HD
BRANCH  13  15
ATOM     15  C   UNL     1      -3.336  12.695  22.076  0.00  0.00    +0.000 A 
ATOM     16  C   UNL     1      -3.791  12.885  20.761  0.00  0.00    +0.000 A 
ATOM     17  C   UNL     1      -5.146  13.092  20.489  0.00  0.00    +0.000 A 
ATOM     18  C   UNL     1      -6.058  13.129  21.535  0.00  0.00    +0.000 A 
ATOM     19  F   UNL     1      -7.351  13.350  21.256  0.00  0.00    +0.000 F 
ATOM     20  C   UNL     1      -5.634  12.961  22.848  0.00  0.00    +0.000 A 
ATOM     21 CL   UNL     1      -6.754  13.016  24.153  0.00  0.00    +0.000 Cl
ATOM     22  C   UNL     1      -4.279  12.756  23.114  0.00  0.00    +0.000 A 
ENDBRANCH  13  15
ENDBRANCH   7  13
BRANCH   1  23
ATOM     23  C   UNL     1       2.253   6.079  19.947  0.00  0.00    +0.000 C 
BRANCH  23  27
ATOM     24  C   UNL     1       4.826   3.973  17.186  0.00  0.00    +0.000 A 
ATOM     25  C   UNL     1       3.440   4.032  16.975  0.00  0.00    +0.000 A 
ATOM     26  C   UNL     1       2.602   4.685  17.880  0.00  0.00    +0.000 A 
ATOM     27  C   UNL     1       3.130   5.261  19.038  0.00  0.00    +0.000 A 
ATOM     28  C   UNL     1       4.499   5.123  19.292  0.00  0.00    +0.000 A 
ATOM     29  C   UNL     1       5.358   4.485  18.380  0.00  0.00    +0.000 A 
BRANCH  24  31
ATOM     30  C   UNL     1       6.314   4.330  15.377  0.00  0.00    +0.000 C 
ATOM     31  O   UNL     1       5.663   3.414  16.258  0.00  0.00    +0.000 OA
ENDBRANCH  24  31
BRANCH  29  32
ATOM     32  O   UNL     1       6.655   4.497  18.819  0.00  0.00    +0.000 OA
ATOM     33  C   UNL     1       7.297   5.741  19.043  0.00  0.00    +0.000 C 
ENDBRANCH  29  32
ENDBRANCH  23  27
ENDBRANCH   1  23
TORSDOF 6
ENDMDL
MODEL 2
REMARK VINA RESULT:      -8.5      1.359      1.999
REMARK  Name = 
REMARK  9 active torsions:
REMARK  status: ('A' for Active; 'I' for Inactive)
REMARK    1  A    between atoms: C_1  and  O_2
REMARK    2  A    between atoms: O_2  and  C_3
REMARK    3  A    between atoms: C_6  and  C_7
REMARK    4  A    between atoms: C_7  and  N_8
REMARK    5  A    between atoms: C_14  and  N_15
REMARK    6  A    between atoms: N_15  and  C_16
REMARK    7  A    between atoms: N_26  and  C_27
REMARK    8  A    between atoms: C_29  and  O_30
REMARK    9  A    between atoms: O_30  and  C_31
REMARK                            x       y       z     vdW  Elec       q    Type
REMARK                         _______ _______ _______ _____ _____    ______ ____
ROOT
ATOM      1  N   UNL     1       2.174   7.886  19.265  0.00  0.00    +0.000 N 
ATOM      2  C   UNL     1       1.498   8.643  20.154  0.00  0.00    +0.000 A 
ATOM      3  N   UNL     1       1.257   8.346  21.410  0.00  0.00    +0.000 NA
ATOM      4  C   UNL     1       0.468   9.353  21.892  0.00  0.00    +0.000 A 
ATOM      5  C   UNL     1      -0.098   9.529  23.152  0.00  0.00    +0.000 A 
ATOM      6  N   UNL     1      -0.902  10.598  23.394  0.00  0.00    +0.000 NA
ATOM      7  C   UNL     1      -1.147  11.510  22.428  0.00  0.00    +0.000 A 
ATOM      8  C   UNL     1      -0.589  11.415  21.150  0.00  0.00    +0.000 A 
ATOM      9  C   UNL     1       0.225  10.305  20.910  0.00  0.00    +0.000 A 
ATOM     10  N   UNL     1       0.935   9.857  19.823  0.00  0.00    +0.000 N 
ATOM     11  C   UNL     1       1.033  10.515  18.546  0.00  0.00    +0.000 C 
ATOM     12  H   UNL     1       2.203   8.130  18.283  0.00  0.00    +0.000 HD
ENDROOT
BRANCH   7  13
ATOM     13  N   UNL     1      -1.950  12.646  22.693  0.00  0.00    +0.000 N 
ATOM     14  H   UNL     1      -1.617  13.444  22.166  0.00  0.00    +0.000 HD
BRANCH  13  15
ATOM     15  C   UNL     1      -3.332  12.707  22.973  0.00  0.00    +0.000 A 
ATOM     16  C   UNL     1      -3.766  12.507  24.294  0.00  0.00    +0.000 A 
ATOM     17  C   UNL     1      -5.127  12.472  24.609  0.00  0.00    +0.000 A 
ATOM     18  C   UNL     1      -6.068  12.619  23.600  0.00  0.00    +0.000 A 
ATOM     19  F   UNL     1      -7.370  12.561  23.920  0.00  0.00    +0.000 F 
ATOM     20  C   UNL     1      -5.669  12.802  22.282  0.00  0.00    +0.000 A 
ATOM     21 CL   UNL     1      -6.828  12.975  21.022  0.00  0.00    +0.000 Cl
ATOM     22  C   UNL     1      -4.307  12.835  21.973  0.00  0.00    +0.000 A 
ENDBRANCH  13  15
ENDBRANCH   7  13
BRANCH   1  23
ATOM     23  C   UNL     1       2.138   6.446  19.481  0.00  0.00    +0.000 C 
BRANCH  23  27
ATOM     24  C   UNL     1       4.735   4.382  16.711  0.00  0.00    +0.000 A 
ATOM     25  C   UNL     1       4.742   5.783  16.796  0.00  0.00    +0.000 A 
ATOM     26  C   UNL     1       3.884   6.454  17.668  0.00  0.00    +0.000 A 
ATOM     27  C   UNL     1       2.971   5.739  18.446  0.00  0.00    +0.000 A 
ATOM     28  C   UNL     1       2.903   4.350  18.293  0.00  0.00    +0.000 A 
ATOM     29  C   UNL     1       3.774   3.658  17.434  0.00  0.00    +0.000 A 
BRANCH  24  31
ATOM     30  C   UNL     1       6.413   4.522  15.043  0.00  0.00    +0.000 C 
ATOM     31  O   UNL     1       5.636   3.713  15.926  0.00  0.00    +0.000 OA
ENDBRANCH  24  31
BRANCH  29  32
ATOM     32  O   UNL     1       3.549   2.308  17.471  0.00  0.00    +0.000 OA
ATOM     33  C   UNL     1       3.347   1.675  18.723  0.00  0.00    +0.000 C 
ENDBRANCH  29  32
ENDBRANCH  23  27
ENDBRANCH   1  23
TORSDOF 6
ENDMDL
MODEL 3
REMARK VINA RESULT:      -8.4      1.342      1.659
REMARK  Name = 
REMARK  9 active torsions:
REMARK  status: ('A' for Active; 'I' for Inactive)
REMARK    1  A    between atoms: C_1  and  O_2
REMARK    2  A    between atoms: O_2  and  C_3
REMARK    3  A    between atoms: C_6  and  C_7
REMARK    4  A    between atoms: C_7  and  N_8
REMARK    5  A    between atoms: C_14  and  N_15
REMARK    6  A    between atoms: N_15  and  C_16
REMARK    7  A    between atoms: N_26  and  C_27
REMARK    8  A    between atoms: C_29  and  O_30
REMARK    9  A    between atoms: O_30  and  C_31
REMARK                            x       y       z     vdW  Elec       q    Type
REMARK                         _______ _______ _______ _____ _____    ______ ____
ROOT
ATOM      1  N   UNL     1       2.237   7.876  19.034  0.00  0.00    +0.000 N 
ATOM      2  C   UNL     1       1.598   8.600  19.975  0.00  0.00    +0.000 A 
ATOM      3  N   UNL     1       1.366   8.238  21.215  0.00  0.00    +0.000 NA
ATOM      4  C   UNL     1       0.615   9.239  21.767  0.00  0.00    +0.000 A 
ATOM      5  C   UNL     1       0.072   9.359  23.044  0.00  0.00    +0.000 A 
ATOM      6  N   UNL     1      -0.694  10.436  23.360  0.00  0.00    +0.000 NA
ATOM      7  C   UNL     1      -0.924  11.410  22.452  0.00  0.00    +0.000 A 
ATOM      8  C   UNL     1      -0.386  11.373  21.162  0.00  0.00    +0.000 A 
ATOM      9  C   UNL     1       0.389  10.254  20.846  0.00  0.00    +0.000 A 
ATOM     10  N   UNL     1       1.070   9.849  19.724  0.00  0.00    +0.000 N 
ATOM     11  C   UNL     1       1.171  10.577  18.486  0.00  0.00    +0.000 C 
ATOM     12  H   UNL     1       2.261   8.177  18.067  0.00  0.00    +0.000 HD
ENDROOT
BRANCH   7  13
ATOM     13  N   UNL     1      -1.686  12.553  22.795  0.00  0.00    +0.000 N 
ATOM     14  H   UNL     1      -1.283  13.384  22.380  0.00  0.00    +0.000 HD
BRANCH  13  15
ATOM     15  C   UNL     1      -3.079  12.658  23.000  0.00  0.00    +0.000 A 
ATOM     16  C   UNL     1      -3.590  12.472  24.295  0.00  0.00    +0.000 A 
ATOM     17  C   UNL     1      -4.966  12.481  24.536  0.00  0.00    +0.000 A 
ATOM     18  C   UNL     1      -5.846  12.659  23.477  0.00  0.00    +0.000 A 
ATOM     19  F   UNL     1      -7.165  12.643  23.726  0.00  0.00    +0.000 F 
ATOM     20  C   UNL     1      -5.370  12.830  22.183  0.00  0.00    +0.000 A 
ATOM     21 CL   UNL     1      -6.453  13.041  20.863  0.00  0.00    +0.000 Cl
ATOM     22  C   UNL     1      -3.994  12.819  21.948  0.00  0.00    +0.000 A 
ENDBRANCH  13  15
ENDBRANCH   7  13
BRANCH   1  23
ATOM     23  C   UNL     1       2.159   6.428  19.167  0.00  0.00    +0.000 C 
BRANCH  23  27
ATOM     24  C   UNL     1       5.108   4.596  16.592  0.00  0.00    +0.000 A 
ATOM     25  C   UNL     1       4.085   3.831  17.172  0.00  0.00    +0.000 A 
ATOM     26  C   UNL     1       3.149   4.413  18.027  0.00  0.00    +0.000 A 
ATOM     27  C   UNL     1       3.240   5.767  18.353  0.00  0.00    +0.000 A 
ATOM     28  C   UNL     1       4.313   6.509  17.846  0.00  0.00    +0.000 A 
ATOM     29  C   UNL     1       5.252   5.941  16.968  0.00  0.00    +0.000 A 
BRANCH  24  31
ATOM     30  C   UNL     1       5.647   4.266  14.308  0.00  0.00    +0.000 C 
ATOM     31  O   UNL     1       5.974   4.052  15.681  0.00  0.00    +0.000 OA
ENDBRANCH  24  31
BRANCH  29  32
ATOM     32  O   UNL     1       6.190   6.857  16.574  0.00  0.00    +0.000 OA
ATOM     33  C   UNL     1       7.248   7.187  17.459  0.00  0.00    +0.000 C 
ENDBRANCH  29  32
ENDBRANCH  23  27
ENDBRANCH   1  23
TORSDOF 6
ENDMDL
MODEL 4
REMARK VINA RESULT:      -8.3      6.068     11.260
REMARK  Name = 
REMARK  9 active torsions:
REMARK  status: ('A' for Active; 'I' for Inactive)
REMARK    1  A    between atoms: C_1  and  O_2
REMARK    2  A    between atoms: O_2  and  C_3
REMARK    3  A    between atoms: C_6  and  C_7
REMARK    4  A    between atoms: C_7  and  N_8
REMARK    5  A    between atoms: C_14  and  N_15
REMARK    6  A    between atoms: N_15  and  C_16
REMARK    7  A    between atoms: N_26  and  C_27
REMARK    8  A    between atoms: C_29  and  O_30
REMARK    9  A    between atoms: O_30  and  C_31
REMARK                            x       y       z     vdW  Elec       q    Type
REMARK                         _______ _______ _______ _____ _____    ______ ____
ROOT
ATOM      1  N   UNL     1       1.019   8.963  20.255  0.00  0.00    +0.000 N 
ATOM      2  C   UNL     1       1.609   7.780  19.992  0.00  0.00    +0.000 A 
ATOM      3  N   UNL     1       1.570   6.703  20.741  0.00  0.00    +0.000 NA
ATOM      4  C   UNL     1       2.379   5.786  20.129  0.00  0.00    +0.000 A 
ATOM      5  C   UNL     1       2.718   4.489  20.506  0.00  0.00    +0.000 A 
ATOM      6  N   UNL     1       3.594   3.769  19.758  0.00  0.00    +0.000 NA
ATOM      7  C   UNL     1       4.131   4.289  18.633  0.00  0.00    +0.000 A 
ATOM      8  C   UNL     1       3.814   5.572  18.176  0.00  0.00    +0.000 A 
ATOM      9  C   UNL     1       2.922   6.306  18.961  0.00  0.00    +0.000 A 
ATOM     10  N   UNL     1       2.376   7.564  18.866  0.00  0.00    +0.000 N 
ATOM     11  C   UNL     1       2.604   8.508  17.803  0.00  0.00    +0.000 C 
ATOM     12  H   UNL     1       1.206   9.780  19.687  0.00  0.00    +0.000 HD
ENDROOT
BRANCH   7  13
ATOM     13  N   UNL     1       5.010   3.523  17.829  0.00  0.00    +0.000 N 
ATOM     14  H   UNL     1       4.725   2.551  17.821  0.00  0.00    +0.000 HD
BRANCH  13  15
ATOM     15  C   UNL     1       5.697   3.906  16.657  0.00  0.00    +0.000 A 
ATOM     16  C   UNL     1       6.822   4.740  16.772  0.00  0.00    +0.000 A 
ATOM     17  C   UNL     1       7.485   5.216  15.638  0.00  0.00    +0.000 A 
ATOM     18  C   UNL     1       7.018   4.877  14.376  0.00  0.00    +0.000 A 
ATOM     19  F   UNL     1       7.656   5.362  13.300  0.00  0.00    +0.000 F 
ATOM     20  C   UNL     1       5.897   4.067  14.232  0.00  0.00    +0.000 A 
ATOM     21 CL   UNL     1       5.303   3.650  12.672  0.00  0.00    +0.000 Cl
ATOM     22  C   UNL     1       5.238   3.595  15.368  0.00  0.00    +0.000 A 
ENDBRANCH  13  15
ENDBRANCH   7  13
BRANCH   1  23
ATOM     23  C   UNL     1       0.827   9.293  21.661  0.00  0.00    +0.000 C 
BRANCH  23  27
ATOM     24  C   UNL     1      -2.169  12.365  22.174  0.00  0.00    +0.000 A 
ATOM     25  C   UNL     1      -1.811  11.524  23.239  0.00  0.00    +0.000 A 
ATOM     26  C   UNL     1      -0.866  10.512  23.069  0.00  0.00    +0.000 A 
ATOM     27  C   UNL     1      -0.287  10.293  21.818  0.00  0.00    +0.000 A 
ATOM     28  C   UNL     1      -0.711  11.073  20.737  0.00  0.00    +0.000 A 
ATOM     29  C   UNL     1      -1.647  12.109  20.897  0.00  0.00    +0.000 A 
BRANCH  24  31
ATOM     30  C   UNL     1      -2.536  14.484  23.169  0.00  0.00    +0.000 C 
ATOM     31  O   UNL     1      -3.026  13.418  22.356  0.00  0.00    +0.000 OA
ENDBRANCH  24  31
BRANCH  29  32
ATOM     32  O   UNL     1      -1.886  12.758  19.714  0.00  0.00    +0.000 OA
ATOM     33  C   UNL     1      -1.064  12.477  18.594  0.00  0.00    +0.000 C 
ENDBRANCH  29  32
ENDBRANCH  23  27
ENDBRANCH   1  23
TORSDOF 6
ENDMDL
MODEL 5
REMARK VINA RESULT:      -8.3      5.701     10.466
REMARK  Name = 
REMARK  9 active torsions:
REMARK  status: ('A' for Active; 'I' for Inactive)
REMARK    1  A    between atoms: C_1  and  O_2
REMARK    2  A    between atoms: O_2  and  C_3
REMARK    3  A    between atoms: C_6  and  C_7
REMARK    4  A    between atoms: C_7  and  N_8
REMARK    5  A    between atoms: C_14  and  N_15
REMARK    6  A    between atoms: N_15  and  C_16
REMARK    7  A    between atoms: N_26  and  C_27
REMARK    8  A    between atoms: C_29  and  O_30
REMARK    9  A    between atoms: O_30  and  C_31
REMARK                            x       y       z     vdW  Elec       q    Type
REMARK                         _______ _______ _______ _____ _____    ______ ____
ROOT
ATOM      1  N   UNL     1      -1.587  12.302  20.504  0.00  0.00    +0.000 N 
ATOM      2  C   UNL     1      -0.649  11.426  20.093  0.00  0.00    +0.000 A 
ATOM      3  N   UNL     1      -0.045  11.416  18.928  0.00  0.00    +0.000 NA
ATOM      4  C   UNL     1       0.751  10.304  18.923  0.00  0.00    +0.000 A 
ATOM      5  C   UNL     1       1.586   9.799  17.931  0.00  0.00    +0.000 A 
ATOM      6  N   UNL     1       2.253   8.632  18.130  0.00  0.00    +0.000 NA
ATOM      7  C   UNL     1       2.131   7.958  19.295  0.00  0.00    +0.000 A 
ATOM      8  C   UNL     1       1.335   8.420  20.348  0.00  0.00    +0.000 A 
ATOM      9  C   UNL     1       0.645   9.615  20.124  0.00  0.00    +0.000 A 
ATOM     10  N   UNL     1      -0.215  10.377  20.876  0.00  0.00    +0.000 N 
ATOM     11  C   UNL     1      -0.629  10.102  22.228  0.00  0.00    +0.000 C 
ATOM     12  H   UNL     1      -2.094  12.162  21.369  0.00  0.00    +0.000 HD
ENDROOT
BRANCH   7  13
ATOM     13  N   UNL     1       2.860   6.765  19.521  0.00  0.00    +0.000 N 
ATOM     14  H   UNL     1       3.553   6.906  20.246  0.00  0.00    +0.000 HD
BRANCH  13  15
ATOM     15  C   UNL     1       2.416   5.428  19.433  0.00  0.00    +0.000 A 
ATOM     16  C   UNL     1       2.072   4.908  18.175  0.00  0.00    +0.000 A 
ATOM     17  C   UNL     1       1.546   3.620  18.045  0.00  0.00    +0.000 A 
ATOM     18  C   UNL     1       1.343   2.845  19.179  0.00  0.00    +0.000 A 
ATOM     19  F   UNL     1       0.818   1.619  19.036  0.00  0.00    +0.000 F 
ATOM     20  C   UNL     1       1.659   3.339  20.439  0.00  0.00    +0.000 A 
ATOM     21 CL   UNL     1       1.401   2.390  21.851  0.00  0.00    +0.000 Cl
ATOM     22  C   UNL     1       2.183   4.627  20.562  0.00  0.00    +0.000 A 
ENDBRANCH  13  15
ENDBRANCH   7  13
BRANCH   1  23
ATOM     23  C   UNL     1      -2.414  12.901  19.464  0.00  0.00    +0.000 C 
BRANCH  23  27
ATOM     24  C   UNL     1      -6.463  11.525  20.091  0.00  0.00    +0.000 A 
ATOM     25  C   UNL     1      -5.861  11.438  18.826  0.00  0.00    +0.000 A 
ATOM     26  C   UNL     1      -4.565  11.908  18.613  0.00  0.00    +0.000 A 
ATOM     27  C   UNL     1      -3.856  12.513  19.653  0.00  0.00    +0.000 A 
ATOM     28  C   UNL     1      -4.491  12.682  20.889  0.00  0.00    +0.000 A 
ATOM     29  C   UNL     1      -5.789  12.195  21.123  0.00  0.00    +0.000 A 
BRANCH  24  31
ATOM     30  C   UNL     1      -7.703   9.658  20.860  0.00  0.00    +0.000 C 
ATOM     31  O   UNL     1      -7.698  10.984  20.330  0.00  0.00    +0.000 OA
ENDBRANCH  24  31
BRANCH  29  32
ATOM     32  O   UNL     1      -6.192  12.442  22.409  0.00  0.00    +0.000 OA
ATOM     33  C   UNL     1      -6.036  13.745  22.944  0.00  0.00    +0.000 C 
ENDBRANCH  29  32
ENDBRANCH  23  27
ENDBRANCH   1  23
TORSDOF 6
ENDMDL
MODEL 6
REMARK VINA RESULT:      -8.1      1.302      1.341
REMARK  Name = 
REMARK  9 active torsions:
REMARK  status: ('A' for Active; 'I' for Inactive)
REMARK    1  A    between atoms: C_1  and  O_2
REMARK    2  A    between atoms: O_2  and  C_3
REMARK    3  A    between atoms: C_6  and  C_7
REMARK    4  A    between atoms: C_7  and  N_8
REMARK    5  A    between atoms: C_14  and  N_15
REMARK    6  A    between atoms: N_15  and  C_16
REMARK    7  A    between atoms: N_26  and  C_27
REMARK    8  A    between atoms: C_29  and  O_30
REMARK    9  A    between atoms: O_30  and  C_31
REMARK                            x       y       z     vdW  Elec       q    Type
REMARK                         _______ _______ _______ _____ _____    ______ ____
ROOT
ATOM      1  N   UNL     1       2.275   7.913  18.527  0.00  0.00    +0.000 N 
ATOM      2  C   UNL     1       1.724   8.574  19.565  0.00  0.00    +0.000 A 
ATOM      3  N   UNL     1       1.723   8.194  20.821  0.00  0.00    +0.000 NA
ATOM      4  C   UNL     1       0.977   9.120  21.496  0.00  0.00    +0.000 A 
ATOM      5  C   UNL     1       0.631   9.190  22.843  0.00  0.00    +0.000 A 
ATOM      6  N   UNL     1      -0.176  10.189  23.288  0.00  0.00    +0.000 NA
ATOM      7  C   UNL     1      -0.635  11.135  22.440  0.00  0.00    +0.000 A 
ATOM      8  C   UNL     1      -0.304  11.147  21.081  0.00  0.00    +0.000 A 
ATOM      9  C   UNL     1       0.515  10.107  20.634  0.00  0.00    +0.000 A 
ATOM     10  N   UNL     1       1.048   9.766  19.415  0.00  0.00    +0.000 N 
ATOM     11  C   UNL     1       0.886  10.498  18.186  0.00  0.00    +0.000 C 
ATOM     12  H   UNL     1       2.119   8.212  17.572  0.00  0.00    +0.000 HD
ENDROOT
BRANCH   7  13
ATOM     13  N   UNL     1      -1.439  12.201  22.911  0.00  0.00    +0.000 N 
ATOM     14  H   UNL     1      -0.863  12.997  23.157  0.00  0.00    +0.000 HD
BRANCH  13  15
ATOM     15  C   UNL     1      -2.744  12.566  22.516  0.00  0.00    +0.000 A 
ATOM     16  C   UNL     1      -2.938  13.114  21.237  0.00  0.00    +0.000 A 
ATOM     17  C   UNL     1      -4.195  13.570  20.831  0.00  0.00    +0.000 A 
ATOM     18  C   UNL     1      -5.267  13.499  21.709  0.00  0.00    +0.000 A 
ATOM     19  F   UNL     1      -6.461  13.962  21.308  0.00  0.00    +0.000 F 
ATOM     20  C   UNL     1      -5.102  12.978  22.986  0.00  0.00    +0.000 A 
ATOM     21 CL   UNL     1      -6.423  12.896  24.087  0.00  0.00    +0.000 Cl
ATOM     22  C   UNL     1      -3.843  12.524  23.388  0.00  0.00    +0.000 A 
ENDBRANCH  13  15
ENDBRANCH   7  13
BRANCH   1  23
ATOM     23  C   UNL     1       2.356   6.463  18.651  0.00  0.00    +0.000 C 
BRANCH  23  27
ATOM     24  C   UNL     1       5.620   5.041  16.201  0.00  0.00    +0.000 A 
ATOM     25  C   UNL     1       4.567   4.187  16.564  0.00  0.00    +0.000 A 
ATOM     26  C   UNL     1       3.527   4.634  17.379  0.00  0.00    +0.000 A 
ATOM     27  C   UNL     1       3.538   5.936  17.883  0.00  0.00    +0.000 A 
ATOM     28  C   UNL     1       4.633   6.758  17.595  0.00  0.00    +0.000 A 
ATOM     29  C   UNL     1       5.678   6.328  16.759  0.00  0.00    +0.000 A 
BRANCH  24  31
ATOM     30  C   UNL     1       6.154   3.838  14.231  0.00  0.00    +0.000 C 
ATOM     31  O   UNL     1       6.595   4.637  15.329  0.00  0.00    +0.000 OA
ENDBRANCH  24  31
BRANCH  29  32
ATOM     32  O   UNL     1       6.622   7.306  16.591  0.00  0.00    +0.000 OA
ATOM     33  C   UNL     1       7.565   7.541  17.622  0.00  0.00    +0.000 C 
ENDBRANCH  29  32
ENDBRANCH  23  27
ENDBRANCH   1  23
TORSDOF 6
ENDMDL
MODEL 7
REMARK VINA RESULT:      -8.1      5.977     10.746
REMARK  Name = 
REMARK  9 active torsions:
REMARK  status: ('A' for Active; 'I' for Inactive)
REMARK    1  A    between atoms: C_1  and  O_2
REMARK    2  A    between atoms: O_2  and  C_3
REMARK    3  A    between atoms: C_6  and  C_7
REMARK    4  A    between atoms: C_7  and  N_8
REMARK    5  A    between atoms: C_14  and  N_15
REMARK    6  A    between atoms: N_15  and  C_16
REMARK    7  A    between atoms: N_26  and  C_27
REMARK    8  A    between atoms: C_29  and  O_30
REMARK    9  A    between atoms: O_30  and  C_31
REMARK                            x       y       z     vdW  Elec       q    Type
REMARK                         _______ _______ _______ _____ _____    ______ ____
ROOT
ATOM      1  N   UNL     1      -0.301  12.044  20.936  0.00  0.00    +0.000 N 
ATOM      2  C   UNL     1       0.419  11.074  20.337  0.00  0.00    +0.000 A 
ATOM      3  N   UNL     1       1.002  11.146  19.163  0.00  0.00    +0.000 NA
ATOM      4  C   UNL     1       1.533   9.907  18.928  0.00  0.00    +0.000 A 
ATOM      5  C   UNL     1       2.233   9.421  17.827  0.00  0.00    +0.000 A 
ATOM      6  N   UNL     1       2.626   8.121  17.789  0.00  0.00    +0.000 NA
ATOM      7  C   UNL     1       2.362   7.290  18.821  0.00  0.00    +0.000 A 
ATOM      8  C   UNL     1       1.691   7.715  19.971  0.00  0.00    +0.000 A 
ATOM      9  C   UNL     1       1.281   9.051  19.992  0.00  0.00    +0.000 A 
ATOM     10  N   UNL     1       0.613   9.832  20.903  0.00  0.00    +0.000 N 
ATOM     11  C   UNL     1       0.153   9.413  22.201  0.00  0.00    +0.000 C 
ATOM     12  H   UNL     1      -0.824  11.861  21.784  0.00  0.00    +0.000 HD
ENDROOT
BRANCH   7  13
ATOM     13  N   UNL     1       2.809   5.947  18.801  0.00  0.00    +0.000 N 
ATOM     14  H   UNL     1       2.043   5.322  18.582  0.00  0.00    +0.000 HD
BRANCH  13  15
ATOM     15  C   UNL     1       4.065   5.438  18.405  0.00  0.00    +0.000 A 
ATOM     16  C   UNL     1       5.149   5.540  19.292  0.00  0.00    +0.000 A 
ATOM     17  C   UNL     1       6.431   5.131  18.916  0.00  0.00    +0.000 A 
ATOM     18  C   UNL     1       6.644   4.631  17.638  0.00  0.00    +0.000 A 
ATOM     19  F   UNL     1       7.886   4.263  17.289  0.00  0.00    +0.000 F 
ATOM     20  C   UNL     1       5.594   4.534  16.733  0.00  0.00    +0.000 A 
ATOM     21 CL   UNL     1       5.850   3.927  15.144  0.00  0.00    +0.000 Cl
ATOM     22  C   UNL     1       4.315   4.946  17.115  0.00  0.00    +0.000 A 
ENDBRANCH  13  15
ENDBRANCH   7  13
BRANCH   1  23
ATOM     23  C   UNL     1      -0.978  12.986  20.055  0.00  0.00    +0.000 C 
BRANCH  23  27
ATOM     24  C   UNL     1      -5.017  11.854  19.013  0.00  0.00    +0.000 A 
ATOM     25  C   UNL     1      -4.743  12.511  20.222  0.00  0.00    +0.000 A 
ATOM     26  C   UNL     1      -3.437  12.851  20.576  0.00  0.00    +0.000 A 
ATOM     27  C   UNL     1      -2.370  12.506  19.744  0.00  0.00    +0.000 A 
ATOM     28  C   UNL     1      -2.636  11.772  18.583  0.00  0.00    +0.000 A 
ATOM     29  C   UNL     1      -3.948  11.439  18.204  0.00  0.00    +0.000 A 
BRANCH  24  31
ATOM     30  C   UNL     1      -6.815  10.312  18.962  0.00  0.00    +0.000 C 
ATOM     31  O   UNL     1      -6.303  11.599  18.617  0.00  0.00    +0.000 OA
ENDBRANCH  24  31
BRANCH  29  32
ATOM     32  O   UNL     1      -3.970  10.752  17.019  0.00  0.00    +0.000 OA
ATOM     33  C   UNL     1      -2.920   9.845  16.727  0.00  0.00    +0.000 C 
ENDBRANCH  29  32
ENDBRANCH  23  27
ENDBRANCH   1  23
TORSDOF 6
ENDMDL
MODEL 8
REMARK VINA RESULT:      -8.0      5.813     10.697
REMARK  Name = 
REMARK  9 active torsions:
REMARK  status: ('A' for Active; 'I' for Inactive)
REMARK    1  A    between atoms: C_1  and  O_2
REMARK    2  A    between atoms: O_2  and  C_3
REMARK    3  A    between atoms: C_6  and  C_7
REMARK    4  A    between atoms: C_7  and  N_8
REMARK    5  A    between atoms: C_14  and  N_15
REMARK    6  A    between atoms: N_15  and  C_16
REMARK    7  A    between atoms: N_26  and  C_27
REMARK    8  A    between atoms: C_29  and  O_30
REMARK    9  A    between atoms: O_30  and  C_31
REMARK                            x       y       z     vdW  Elec       q    Type
REMARK                         _______ _______ _______ _____ _____    ______ ____
ROOT
ATOM      1  N   UNL     1      -1.436  12.015  19.898  0.00  0.00    +0.000 N 
ATOM      2  C   UNL     1      -0.490  11.072  19.711  0.00  0.00    +0.000 A 
ATOM      3  N   UNL     1       0.170  10.836  18.602  0.00  0.00    +0.000 NA
ATOM      4  C   UNL     1       0.950   9.741  18.852  0.00  0.00    +0.000 A 
ATOM      5  C   UNL     1       1.826   9.050  18.019  0.00  0.00    +0.000 A 
ATOM      6  N   UNL     1       2.467   7.941  18.473  0.00  0.00    +0.000 NA
ATOM      7  C   UNL     1       2.279   7.506  19.738  0.00  0.00    +0.000 A 
ATOM      8  C   UNL     1       1.438   8.165  20.640  0.00  0.00    +0.000 A 
ATOM      9  C   UNL     1       0.776   9.296  20.156  0.00  0.00    +0.000 A 
ATOM     10  N   UNL     1      -0.109  10.193  20.703  0.00  0.00    +0.000 N 
ATOM     11  C   UNL     1      -0.593  10.185  22.059  0.00  0.00    +0.000 C 
ATOM     12  H   UNL     1      -1.986  12.046  20.747  0.00  0.00    +0.000 HD
ENDROOT
BRANCH   7  13
ATOM     13  N   UNL     1       2.979   6.376  20.226  0.00  0.00    +0.000 N 
ATOM     14  H   UNL     1       3.011   6.389  21.238  0.00  0.00    +0.000 HD
BRANCH  13  15
ATOM     15  C   UNL     1       3.036   5.071  19.690  0.00  0.00    +0.000 A 
ATOM     16  C   UNL     1       4.255   4.602  19.174  0.00  0.00    +0.000 A 
ATOM     17  C   UNL     1       4.343   3.352  18.555  0.00  0.00    +0.000 A 
ATOM     18  C   UNL     1       3.206   2.566  18.430  0.00  0.00    +0.000 A 
ATOM     19  F   UNL     1       3.307   1.379  17.815  0.00  0.00    +0.000 F 
ATOM     20  C   UNL     1       1.983   3.011  18.917  0.00  0.00    +0.000 A 
ATOM     21 CL   UNL     1       0.565   2.049  18.758  0.00  0.00    +0.000 Cl
ATOM     22  C   UNL     1       1.900   4.261  19.533  0.00  0.00    +0.000 A 
ENDBRANCH  13  15
ENDBRANCH   7  13
BRANCH   1  23
ATOM     23  C   UNL     1      -2.202  12.405  18.722  0.00  0.00    +0.000 C 
BRANCH  23  27
ATOM     24  C   UNL     1      -6.340  11.442  19.518  0.00  0.00    +0.000 A 
ATOM     25  C   UNL     1      -5.704  10.978  18.356  0.00  0.00    +0.000 A 
ATOM     26  C   UNL     1      -4.377  11.311  18.081  0.00  0.00    +0.000 A 
ATOM     27  C   UNL     1      -3.669  12.151  18.943  0.00  0.00    +0.000 A 
ATOM     28  C   UNL     1      -4.332  12.685  20.053  0.00  0.00    +0.000 A 
ATOM     29  C   UNL     1      -5.662  12.343  20.354  0.00  0.00    +0.000 A 
BRANCH  24  31
ATOM     30  C   UNL     1      -7.731  10.244  21.016  0.00  0.00    +0.000 C 
ATOM     31  O   UNL     1      -7.610  11.045  19.840  0.00  0.00    +0.000 OA
ENDBRANCH  24  31
BRANCH  29  32
ATOM     32  O   UNL     1      -6.092  12.956  21.500  0.00  0.00    +0.000 OA
ATOM     33  C   UNL     1      -5.253  12.952  22.642  0.00  0.00    +0.000 C 
ENDBRANCH  29  32
ENDBRANCH  23  27
ENDBRANCH   1  23
TORSDOF 6
ENDMDL
MODEL 9
REMARK VINA RESULT:      -8.0      2.650      3.184
REMARK  Name = 
REMARK  9 active torsions:
REMARK  status: ('A' for Active; 'I' for Inactive)
REMARK    1  A    between atoms: C_1  and  O_2
REMARK    2  A    between atoms: O_2  and  C_3
REMARK    3  A    between atoms: C_6  and  C_7
REMARK    4  A    between atoms: C_7  and  N_8
REMARK    5  A    between atoms: C_14  and  N_15
REMARK    6  A    between atoms: N_15  and  C_16
REMARK    7  A    between atoms: N_26  and  C_27
REMARK    8  A    between atoms: C_29  and  O_30
REMARK    9  A    between atoms: O_30  and  C_31
REMARK                            x       y       z     vdW  Elec       q    Type
REMARK                         _______ _______ _______ _____ _____    ______ ____
ROOT
ATOM      1  N   UNL     1       2.190   7.846  19.213  0.00  0.00    +0.000 N 
ATOM      2  C   UNL     1       1.494   8.590  20.097  0.00  0.00    +0.000 A 
ATOM      3  N   UNL     1       1.429   8.405  21.394  0.00  0.00    +0.000 NA
ATOM      4  C   UNL     1       0.542   9.333  21.865  0.00  0.00    +0.000 A 
ATOM      5  C   UNL     1       0.082   9.565  23.159  0.00  0.00    +0.000 A 
ATOM      6  N   UNL     1      -0.853  10.523  23.388  0.00  0.00    +0.000 NA
ATOM      7  C   UNL     1      -1.334  11.275  22.373  0.00  0.00    +0.000 A 
ATOM      8  C   UNL     1      -0.897  11.119  21.054  0.00  0.00    +0.000 A 
ATOM      9  C   UNL     1       0.055  10.121  20.831  0.00  0.00    +0.000 A 
ATOM     10  N   UNL     1       0.716   9.663  19.717  0.00  0.00    +0.000 N 
ATOM     11  C   UNL     1       0.582  10.180  18.380  0.00  0.00    +0.000 C 
ATOM     12  H   UNL     1       2.083   7.979  18.215  0.00  0.00    +0.000 HD
ENDROOT
BRANCH   7  13
ATOM     13  N   UNL     1      -2.277  12.303  22.618  0.00  0.00    +0.000 N 
ATOM     14  H   UNL     1      -3.219  11.933  22.590  0.00  0.00    +0.000 HD
BRANCH  13  15
ATOM     15  C   UNL     1      -2.153  13.436  23.450  0.00  0.00    +0.000 A 
ATOM     16  C   UNL     1      -3.200  13.746  24.333  0.00  0.00    +0.000 A 
ATOM     17  C   UNL     1      -3.166  14.904  25.115  0.00  0.00    +0.000 A 
ATOM     18  C   UNL     1      -2.089  15.773  25.007  0.00  0.00    +0.000 A 
ATOM     19  F   UNL     1      -2.084  16.889  25.751  0.00  0.00    +0.000 F 
ATOM     20  C   UNL     1      -1.046  15.501  24.129  0.00  0.00    +0.000 A 
ATOM     21 CL   UNL     1       0.288  16.577  23.980  0.00  0.00    +0.000 Cl
ATOM     22  C   UNL     1      -1.087  14.343  23.349  0.00  0.00    +0.000 A 
ENDBRANCH  13  15
ENDBRANCH   7  13
BRANCH   1  23
ATOM     23  C   UNL     1       2.405   6.450  19.570  0.00  0.00    +0.000 C 
BRANCH  23  27
ATOM     24  C   UNL     1       4.830   4.408  16.631  0.00  0.00    +0.000 A 
ATOM     25  C   UNL     1       4.748   5.809  16.649  0.00  0.00    +0.000 A 
ATOM     26  C   UNL     1       3.943   6.471  17.577  0.00  0.00    +0.000 A 
ATOM     27  C   UNL     1       3.170   5.743  18.483  0.00  0.00    +0.000 A 
ATOM     28  C   UNL     1       3.183   4.345  18.405  0.00  0.00    +0.000 A 
ATOM     29  C   UNL     1       4.004   3.665  17.489  0.00  0.00    +0.000 A 
BRANCH  24  31
ATOM     30  C   UNL     1       6.137   4.508  14.658  0.00  0.00    +0.000 C 
ATOM     31  O   UNL     1       5.686   3.756  15.785  0.00  0.00    +0.000 OA
ENDBRANCH  24  31
BRANCH  29  32
ATOM     32  O   UNL     1       3.879   2.307  17.614  0.00  0.00    +0.000 OA
ATOM     33  C   UNL     1       2.992   1.782  18.587  0.00  0.00    +0.000 C 
ENDBRANCH  29  32
ENDBRANCH  23  27
ENDBRANCH   1  23
TORSDOF 6
ENDMDL
