MODEL 1
REMARK VINA RESULT:      -7.5      0.000      0.000
REMARK  Name = 
REMARK  6 active torsions:
REMARK  status: ('A' for Active; 'I' for Inactive)
REMARK    1  A    between atoms: C_1  and  N_2
REMARK    2  A    between atoms: C_4  and  O_5
REMARK    3  A    between atoms: O_5  and  C_6
REMARK    4  A    between atoms: C_17  and  C_18
REMARK    5  A    between atoms: C_18  and  O_19
REMARK    6  A    between atoms: O_19  and  C_20
REMARK                            x       y       z     vdW  Elec       q    Type
REMARK                         _______ _______ _______ _____ _____    ______ ____
ROOT
ATOM      1  C   UNL     1       1.290   9.281  18.096  0.00  0.00    +0.000 C 
ATOM      2  N   UNL     1       1.183   9.394  19.557  0.00  0.00    +0.000 N 
ATOM      3  C   UNL     1       0.747  10.594  20.118  0.00  0.00    +0.000 A 
ATOM      4  C   UNL     1       0.584  10.846  21.426  0.00  0.00    +0.000 A 
ATOM      5  C   UNL     1       0.814   9.689  22.345  0.00  0.00    +0.000 A 
ATOM      6  O   UNL     1       0.534   9.698  23.541  0.00  0.00    +0.000 OA
ATOM      7  C   UNL     1       1.406   8.464  21.759  0.00  0.00    +0.000 A 
ATOM      8  C   UNL     1       1.556   8.345  20.425  0.00  0.00    +0.000 A 
ENDROOT
BRANCH   4   9
ATOM      9  O   UNL     1       0.144  12.098  21.844  0.00  0.00    +0.000 OA
BRANCH   9  10
ATOM     10  C   UNL     1      -1.201  12.367  21.957  0.00  0.00    +0.000 A 
ATOM     11  C   UNL     1      -1.947  12.029  23.095  0.00  0.00    +0.000 A 
ATOM     12  C   UNL     1      -3.321  12.272  23.134  0.00  0.00    +0.000 A 
ATOM     13  C   UNL     1      -3.941  12.913  22.064  0.00  0.00    +0.000 A 
ATOM     14 CL   UNL     1      -5.638  13.197  22.115  0.00  0.00    +0.000 Cl
ATOM     15  C   UNL     1      -3.200  13.331  20.965  0.00  0.00    +0.000 A 
ATOM     16  C   UNL     1      -1.829  13.057  20.912  0.00  0.00    +0.000 A 
ATOM     17 CL   UNL     1      -0.942  13.600  19.531  0.00  0.00    +0.000 Cl
ENDBRANCH   9  10
ENDBRANCH   4   9
BRANCH   8  18
ATOM     18  C   UNL     1       2.068   7.009  19.896  0.00  0.00    +0.000 C 
BRANCH  18  19
ATOM     19  O   UNL     1       1.540   5.946  20.691  0.00  0.00    +0.000 OA
BRANCH  19  20
ATOM     20  C   UNL     1       1.614   4.690  20.149  0.00  0.00    +0.000 A 
ATOM     21  C   UNL     1       1.559   3.645  21.073  0.00  0.00    +0.000 A 
ATOM     22  C   UNL     1       1.631   2.313  20.652  0.00  0.00    +0.000 A 
ATOM     23  C   UNL     1       1.738   2.016  19.296  0.00  0.00    +0.000 A 
ATOM     24  C   UNL     1       1.764   3.053  18.364  0.00  0.00    +0.000 A 
ATOM     25  C   UNL     1       1.699   4.386  18.786  0.00  0.00    +0.000 A 
ENDBRANCH  19  20
ENDBRANCH  18  19
ENDBRANCH   8  18
TORSDOF 5
ENDMDL
MODEL 2
REMARK VINA RESULT:      -7.4      3.552      4.770
REMARK  Name = 
REMARK  6 active torsions:
REMARK  status: ('A' for Active; 'I' for Inactive)
REMARK    1  A    between atoms: C_1  and  N_2
REMARK    2  A    between atoms: C_4  and  O_5
REMARK    3  A    between atoms: O_5  and  C_6
REMARK    4  A    between atoms: C_17  and  C_18
REMARK    5  A    between atoms: C_18  and  O_19
REMARK    6  A    between atoms: O_19  and  C_20
REMARK                            x       y       z     vdW  Elec       q    Type
REMARK                         _______ _______ _______ _____ _____    ______ ____
ROOT
ATOM      1  C   UNL     1       2.000   5.656  20.820  0.00  0.00    +0.000 C 
ATOM      2  N   UNL     1       2.034   6.758  19.848  0.00  0.00    +0.000 N 
ATOM      3  C   UNL     1       1.394   7.958  20.155  0.00  0.00    +0.000 A 
ATOM      4  C   UNL     1       1.348   9.054  19.382  0.00  0.00    +0.000 A 
ATOM      5  C   UNL     1       2.140   8.990  18.114  0.00  0.00    +0.000 A 
ATOM      6  O   UNL     1       2.353   9.959  17.391  0.00  0.00    +0.000 OA
ATOM      7  C   UNL     1       2.702   7.674  17.731  0.00  0.00    +0.000 A 
ATOM      8  C   UNL     1       2.651   6.631  18.584  0.00  0.00    +0.000 A 
ENDROOT
BRANCH   4   9
ATOM      9  O   UNL     1       0.665  10.186  19.817  0.00  0.00    +0.000 OA
BRANCH   9  10
ATOM     10  C   UNL     1      -0.544  10.533  19.261  0.00  0.00    +0.000 A 
ATOM     11  C   UNL     1      -1.068   9.891  18.130  0.00  0.00    +0.000 A 
ATOM     12  C   UNL     1      -2.273  10.322  17.572  0.00  0.00    +0.000 A 
ATOM     13  C   UNL     1      -2.990  11.349  18.181  0.00  0.00    +0.000 A 
ATOM     14 CL   UNL     1      -4.468  11.882  17.478  0.00  0.00    +0.000 Cl
ATOM     15  C   UNL     1      -2.526  11.938  19.351  0.00  0.00    +0.000 A 
ATOM     16  C   UNL     1      -1.302  11.529  19.891  0.00  0.00    +0.000 A 
ATOM     17 CL   UNL     1      -0.763  12.281  21.352  0.00  0.00    +0.000 Cl
ENDBRANCH   9  10
ENDBRANCH   4   9
BRANCH   8  18
ATOM     18  C   UNL     1       3.350   5.345  18.157  0.00  0.00    +0.000 C 
BRANCH  18  19
ATOM     19  O   UNL     1       4.390   5.653  17.227  0.00  0.00    +0.000 OA
BRANCH  19  20
ATOM     20  C   UNL     1       5.617   5.942  17.766  0.00  0.00    +0.000 A 
ATOM     21  C   UNL     1       6.294   7.000  17.154  0.00  0.00    +0.000 A 
ATOM     22  C   UNL     1       7.558   7.393  17.602  0.00  0.00    +0.000 A 
ATOM     23  C   UNL     1       8.148   6.742  18.683  0.00  0.00    +0.000 A 
ATOM     24  C   UNL     1       7.466   5.706  19.318  0.00  0.00    +0.000 A 
ATOM     25  C   UNL     1       6.203   5.307  18.865  0.00  0.00    +0.000 A 
ENDBRANCH  19  20
ENDBRANCH  18  19
ENDBRANCH   8  18
TORSDOF 5
ENDMDL
MODEL 3
REMARK VINA RESULT:      -7.3      7.042     10.074
REMARK  Name = 
REMARK  6 active torsions:
REMARK  status: ('A' for Active; 'I' for Inactive)
REMARK    1  A    between atoms: C_1  and  N_2
REMARK    2  A    between atoms: C_4  and  O_5
REMARK    3  A    between atoms: O_5  and  C_6
REMARK    4  A    between atoms: C_17  and  C_18
REMARK    5  A    between atoms: C_18  and  O_19
REMARK    6  A    between atoms: O_19  and  C_20
REMARK                            x       y       z     vdW  Elec       q    Type
REMARK                         _______ _______ _______ _____ _____    ______ ____
ROOT
ATOM      1  C   UNL     1       3.287   7.913  17.311  0.00  0.00    +0.000 C 
ATOM      2  N   UNL     1       4.349   6.911  17.476  0.00  0.00    +0.000 N 
ATOM      3  C   UNL     1       5.254   6.700  16.437  0.00  0.00    +0.000 A 
ATOM      4  C   UNL     1       6.280   5.835  16.441  0.00  0.00    +0.000 A 
ATOM      5  C   UNL     1       6.509   5.103  17.726  0.00  0.00    +0.000 A 
ATOM      6  O   UNL     1       7.503   4.420  17.957  0.00  0.00    +0.000 OA
ATOM      7  C   UNL     1       5.469   5.229  18.773  0.00  0.00    +0.000 A 
ATOM      8  C   UNL     1       4.459   6.110  18.634  0.00  0.00    +0.000 A 
ENDROOT
BRANCH   4   9
ATOM      9  O   UNL     1       7.105   5.726  15.326  0.00  0.00    +0.000 OA
BRANCH   9  10
ATOM     10  C   UNL     1       6.783   4.873  14.296  0.00  0.00    +0.000 A 
ATOM     11  C   UNL     1       5.672   4.019  14.341  0.00  0.00    +0.000 A 
ATOM     12  C   UNL     1       5.425   3.130  13.292  0.00  0.00    +0.000 A 
ATOM     13  C   UNL     1       6.246   3.140  12.168  0.00  0.00    +0.000 A 
ATOM     14 CL   UNL     1       5.941   2.033  10.887  0.00  0.00    +0.000 Cl
ATOM     15  C   UNL     1       7.301   4.040  12.071  0.00  0.00    +0.000 A 
ATOM     16  C   UNL     1       7.569   4.907  13.136  0.00  0.00    +0.000 A 
ATOM     17 CL   UNL     1       8.886   6.015  12.974  0.00  0.00    +0.000 Cl
ENDBRANCH   9  10
ENDBRANCH   4   9
BRANCH   8  18
ATOM     18  C   UNL     1       3.495   6.259  19.807  0.00  0.00    +0.000 C 
BRANCH  18  19
ATOM     19  O   UNL     1       2.169   5.946  19.376  0.00  0.00    +0.000 OA
BRANCH  19  20
ATOM     20  C   UNL     1       1.829   4.617  19.380  0.00  0.00    +0.000 A 
ATOM     21  C   UNL     1       1.506   4.096  20.635  0.00  0.00    +0.000 A 
ATOM     22  C   UNL     1       1.147   2.753  20.780  0.00  0.00    +0.000 A 
ATOM     23  C   UNL     1       1.091   1.922  19.663  0.00  0.00    +0.000 A 
ATOM     24  C   UNL     1       1.383   2.442  18.403  0.00  0.00    +0.000 A 
ATOM     25  C   UNL     1       1.748   3.786  18.259  0.00  0.00    +0.000 A 
ENDBRANCH  19  20
ENDBRANCH  18  19
ENDBRANCH   8  18
TORSDOF 5
ENDMDL
MODEL 4
REMARK VINA RESULT:      -7.3      0.482      1.065
REMARK  Name = 
REMARK  6 active torsions:
REMARK  status: ('A' for Active; 'I' for Inactive)
REMARK    1  A    between atoms: C_1  and  N_2
REMARK    2  A    between atoms: C_4  and  O_5
REMARK    3  A    between atoms: O_5  and  C_6
REMARK    4  A    between atoms: C_17  and  C_18
REMARK    5  A    between atoms: C_18  and  O_19
REMARK    6  A    between atoms: O_19  and  C_20
REMARK                            x       y       z     vdW  Elec       q    Type
REMARK                         _______ _______ _______ _____ _____    ______ ____
ROOT
ATOM      1  C   UNL     1       1.578   9.843  17.877  0.00  0.00    +0.000 C 
ATOM      2  N   UNL     1       1.333   9.730  19.321  0.00  0.00    +0.000 N 
ATOM      3  C   UNL     1       0.886  10.847  20.026  0.00  0.00    +0.000 A 
ATOM      4  C   UNL     1       0.607  10.899  21.338  0.00  0.00    +0.000 A 
ATOM      5  C   UNL     1       0.707   9.601  22.076  0.00  0.00    +0.000 A 
ATOM      6  O   UNL     1       0.313   9.437  23.227  0.00  0.00    +0.000 OA
ATOM      7  C   UNL     1       1.311   8.456  21.356  0.00  0.00    +0.000 A 
ATOM      8  C   UNL     1       1.585   8.540  20.040  0.00  0.00    +0.000 A 
ENDROOT
BRANCH   4   9
ATOM      9  O   UNL     1       0.170  12.089  21.911  0.00  0.00    +0.000 OA
BRANCH   9  10
ATOM     10  C   UNL     1      -1.173  12.339  22.072  0.00  0.00    +0.000 A 
ATOM     11  C   UNL     1      -1.881  11.954  23.219  0.00  0.00    +0.000 A 
ATOM     12  C   UNL     1      -3.256  12.181  23.306  0.00  0.00    +0.000 A 
ATOM     13  C   UNL     1      -3.914  12.852  22.278  0.00  0.00    +0.000 A 
ATOM     14 CL   UNL     1      -5.611  13.115  22.388  0.00  0.00    +0.000 Cl
ATOM     15  C   UNL     1      -3.210  13.315  21.172  0.00  0.00    +0.000 A 
ATOM     16  C   UNL     1      -1.839  13.058  21.070  0.00  0.00    +0.000 A 
ATOM     17 CL   UNL     1      -0.998  13.657  19.683  0.00  0.00    +0.000 Cl
ENDBRANCH   9  10
ENDBRANCH   4   9
BRANCH   8  18
ATOM     18  C   UNL     1       2.100   7.281  19.350  0.00  0.00    +0.000 C 
BRANCH  18  19
ATOM     19  O   UNL     1       2.205   6.224  20.305  0.00  0.00    +0.000 OA
BRANCH  19  20
ATOM     20  C   UNL     1       1.825   4.979  19.875  0.00  0.00    +0.000 A 
ATOM     21  C   UNL     1       2.017   4.743  18.512  0.00  0.00    +0.000 A 
ATOM     22  C   UNL     1       1.665   3.516  17.942  0.00  0.00    +0.000 A 
ATOM     23  C   UNL     1       1.134   2.505  18.739  0.00  0.00    +0.000 A 
ATOM     24  C   UNL     1       0.968   2.722  20.106  0.00  0.00    +0.000 A 
ATOM     25  C   UNL     1       1.314   3.952  20.675  0.00  0.00    +0.000 A 
ENDBRANCH  19  20
ENDBRANCH  18  19
ENDBRANCH   8  18
TORSDOF 5
ENDMDL
MODEL 5
REMARK VINA RESULT:      -7.2      2.531      3.569
REMARK  Name = 
REMARK  6 active torsions:
REMARK  status: ('A' for Active; 'I' for Inactive)
REMARK    1  A    between atoms: C_1  and  N_2
REMARK    2  A    between atoms: C_4  and  O_5
REMARK    3  A    between atoms: O_5  and  C_6
REMARK    4  A    between atoms: C_17  and  C_18
REMARK    5  A    between atoms: C_18  and  O_19
REMARK    6  A    between atoms: O_19  and  C_20
REMARK                            x       y       z     vdW  Elec       q    Type
REMARK                         _______ _______ _______ _____ _____    ______ ____
ROOT
ATOM      1  C   UNL     1       1.870   6.371  20.785  0.00  0.00    +0.000 C 
ATOM      2  N   UNL     1       1.922   7.479  19.823  0.00  0.00    +0.000 N 
ATOM      3  C   UNL     1       1.113   8.597  20.027  0.00  0.00    +0.000 A 
ATOM      4  C   UNL     1       1.058   9.690  19.249  0.00  0.00    +0.000 A 
ATOM      5  C   UNL     1       2.027   9.728  18.110  0.00  0.00    +0.000 A 
ATOM      6  O   UNL     1       2.233  10.722  17.420  0.00  0.00    +0.000 OA
ATOM      7  C   UNL     1       2.782   8.487  17.820  0.00  0.00    +0.000 A 
ATOM      8  C   UNL     1       2.725   7.436  18.662  0.00  0.00    +0.000 A 
ENDROOT
BRANCH   4   9
ATOM      9  O   UNL     1       0.197  10.733  19.574  0.00  0.00    +0.000 OA
BRANCH   9  10
ATOM     10  C   UNL     1      -1.013  10.870  18.933  0.00  0.00    +0.000 A 
ATOM     11  C   UNL     1      -1.351  10.133  17.790  0.00  0.00    +0.000 A 
ATOM     12  C   UNL     1      -2.570  10.354  17.145  0.00  0.00    +0.000 A 
ATOM     13  C   UNL     1      -3.480  11.262  17.678  0.00  0.00    +0.000 A 
ATOM     14 CL   UNL     1      -4.974  11.538  16.869  0.00  0.00    +0.000 Cl
ATOM     15  C   UNL     1      -3.195  11.939  18.858  0.00  0.00    +0.000 A 
ATOM     16  C   UNL     1      -1.961  11.742  19.486  0.00  0.00    +0.000 A 
ATOM     17 CL   UNL     1      -1.648  12.598  20.956  0.00  0.00    +0.000 Cl
ENDBRANCH   9  10
ENDBRANCH   4   9
BRANCH   8  18
ATOM     18  C   UNL     1       3.618   6.240  18.349  0.00  0.00    +0.000 C 
BRANCH  18  19
ATOM     19  O   UNL     1       2.940   5.359  17.453  0.00  0.00    +0.000 OA
BRANCH  19  20
ATOM     20  C   UNL     1       2.674   4.100  17.927  0.00  0.00    +0.000 A 
ATOM     21  C   UNL     1       1.332   3.853  18.222  0.00  0.00    +0.000 A 
ATOM     22  C   UNL     1       0.926   2.611  18.719  0.00  0.00    +0.000 A 
ATOM     23  C   UNL     1       1.862   1.596  18.906  0.00  0.00    +0.000 A 
ATOM     24  C   UNL     1       3.199   1.825  18.585  0.00  0.00    +0.000 A 
ATOM     25  C   UNL     1       3.606   3.071  18.094  0.00  0.00    +0.000 A 
ENDBRANCH  19  20
ENDBRANCH  18  19
ENDBRANCH   8  18
TORSDOF 5
ENDMDL
MODEL 6
REMARK VINA RESULT:      -7.1      4.083      8.196
REMARK  Name = 
REMARK  6 active torsions:
REMARK  status: ('A' for Active; 'I' for Inactive)
REMARK    1  A    between atoms: C_1  and  N_2
REMARK    2  A    between atoms: C_4  and  O_5
REMARK    3  A    between atoms: O_5  and  C_6
REMARK    4  A    between atoms: C_17  and  C_18
REMARK    5  A    between atoms: C_18  and  O_19
REMARK    6  A    between atoms: O_19  and  C_20
REMARK                            x       y       z     vdW  Elec       q    Type
REMARK                         _______ _______ _______ _____ _____    ______ ____
ROOT
ATOM      1  C   UNL     1      -0.291   9.732  21.634  0.00  0.00    +0.000 C 
ATOM      2  N   UNL     1       0.531   9.430  20.454  0.00  0.00    +0.000 N 
ATOM      3  C   UNL     1       1.395   8.336  20.488  0.00  0.00    +0.000 A 
ATOM      4  C   UNL     1       2.195   7.926  19.491  0.00  0.00    +0.000 A 
ATOM      5  C   UNL     1       2.067   8.675  18.203  0.00  0.00    +0.000 A 
ATOM      6  O   UNL     1       2.586   8.318  17.149  0.00  0.00    +0.000 OA
ATOM      7  C   UNL     1       1.254   9.913  18.216  0.00  0.00    +0.000 A 
ATOM      8  C   UNL     1       0.519  10.240  19.298  0.00  0.00    +0.000 A 
ENDROOT
BRANCH   4   9
ATOM      9  O   UNL     1       3.012   6.813  19.667  0.00  0.00    +0.000 OA
BRANCH   9  10
ATOM     10  C   UNL     1       2.514   5.542  19.494  0.00  0.00    +0.000 A 
ATOM     11  C   UNL     1       1.558   4.982  20.352  0.00  0.00    +0.000 A 
ATOM     12  C   UNL     1       1.129   3.666  20.165  0.00  0.00    +0.000 A 
ATOM     13  C   UNL     1       1.604   2.931  19.082  0.00  0.00    +0.000 A 
ATOM     14 CL   UNL     1       1.080   1.306  18.866  0.00  0.00    +0.000 Cl
ATOM     15  C   UNL     1       2.488   3.502  18.173  0.00  0.00    +0.000 A 
ATOM     16  C   UNL     1       2.943   4.808  18.380  0.00  0.00    +0.000 A 
ATOM     17 CL   UNL     1       4.036   5.484  17.223  0.00  0.00    +0.000 Cl
ENDBRANCH   9  10
ENDBRANCH   4   9
BRANCH   8  18
ATOM     18  C   UNL     1      -0.376  11.470  19.189  0.00  0.00    +0.000 C 
BRANCH  18  19
ATOM     19  O   UNL     1      -1.746  11.073  19.284  0.00  0.00    +0.000 OA
BRANCH  19  20
ATOM     20  C   UNL     1      -2.415  10.920  18.097  0.00  0.00    +0.000 A 
ATOM     21  C   UNL     1      -3.620  11.619  18.007  0.00  0.00    +0.000 A 
ATOM     22  C   UNL     1      -4.405  11.545  16.852  0.00  0.00    +0.000 A 
ATOM     23  C   UNL     1      -3.977  10.783  15.767  0.00  0.00    +0.000 A 
ATOM     24  C   UNL     1      -2.761  10.106  15.839  0.00  0.00    +0.000 A 
ATOM     25  C   UNL     1      -1.979  10.175  16.997  0.00  0.00    +0.000 A 
ENDBRANCH  19  20
ENDBRANCH  18  19
ENDBRANCH   8  18
TORSDOF 5
ENDMDL
MODEL 7
REMARK VINA RESULT:      -7.1      2.222      2.716
REMARK  Name = 
REMARK  6 active torsions:
REMARK  status: ('A' for Active; 'I' for Inactive)
REMARK    1  A    between atoms: C_1  and  N_2
REMARK    2  A    between atoms: C_4  and  O_5
REMARK    3  A    between atoms: O_5  and  C_6
REMARK    4  A    between atoms: C_17  and  C_18
REMARK    5  A    between atoms: C_18  and  O_19
REMARK    6  A    between atoms: O_19  and  C_20
REMARK                            x       y       z     vdW  Elec       q    Type
REMARK                         _______ _______ _______ _____ _____    ______ ____
ROOT
ATOM      1  C   UNL     1       2.863   7.891  17.545  0.00  0.00    +0.000 C 
ATOM      2  N   UNL     1       2.040   8.388  18.655  0.00  0.00    +0.000 N 
ATOM      3  C   UNL     1       1.325   9.575  18.494  0.00  0.00    +0.000 A 
ATOM      4  C   UNL     1       0.523  10.149  19.404  0.00  0.00    +0.000 A 
ATOM      5  C   UNL     1       0.322   9.379  20.671  0.00  0.00    +0.000 A 
ATOM      6  O   UNL     1      -0.515   9.668  21.523  0.00  0.00    +0.000 OA
ATOM      7  C   UNL     1       1.185   8.195  20.890  0.00  0.00    +0.000 A 
ATOM      8  C   UNL     1       1.983   7.736  19.906  0.00  0.00    +0.000 A 
ENDROOT
BRANCH   4   9
ATOM      9  O   UNL     1      -0.128  11.342  19.107  0.00  0.00    +0.000 OA
BRANCH   9  10
ATOM     10  C   UNL     1      -1.443  11.342  18.702  0.00  0.00    +0.000 A 
ATOM     11  C   UNL     1      -1.887  10.634  17.577  0.00  0.00    +0.000 A 
ATOM     12  C   UNL     1      -3.223  10.716  17.176  0.00  0.00    +0.000 A 
ATOM     13  C   UNL     1      -4.129  11.450  17.936  0.00  0.00    +0.000 A 
ATOM     14 CL   UNL     1      -5.770  11.556  17.427  0.00  0.00    +0.000 Cl
ATOM     15  C   UNL     1      -3.721  12.089  19.101  0.00  0.00    +0.000 A 
ATOM     16  C   UNL     1      -2.377  12.034  19.484  0.00  0.00    +0.000 A 
ATOM     17 CL   UNL     1      -1.912  12.835  20.944  0.00  0.00    +0.000 Cl
ENDBRANCH   9  10
ENDBRANCH   4   9
BRANCH   8  18
ATOM     18  C   UNL     1       2.754   6.448  20.174  0.00  0.00    +0.000 C 
BRANCH  18  19
ATOM     19  O   UNL     1       1.837   5.358  20.288  0.00  0.00    +0.000 OA
BRANCH  19  20
ATOM     20  C   UNL     1       2.015   4.323  19.407  0.00  0.00    +0.000 A 
ATOM     21  C   UNL     1       1.635   3.068  19.887  0.00  0.00    +0.000 A 
ATOM     22  C   UNL     1       1.770   1.927  19.091  0.00  0.00    +0.000 A 
ATOM     23  C   UNL     1       2.269   2.037  17.795  0.00  0.00    +0.000 A 
ATOM     24  C   UNL     1       2.622   3.290  17.297  0.00  0.00    +0.000 A 
ATOM     25  C   UNL     1       2.493   4.432  18.097  0.00  0.00    +0.000 A 
ENDBRANCH  19  20
ENDBRANCH  18  19
ENDBRANCH   8  18
TORSDOF 5
ENDMDL
MODEL 8
REMARK VINA RESULT:      -7.1      2.022      2.561
REMARK  Name = 
REMARK  6 active torsions:
REMARK  status: ('A' for Active; 'I' for Inactive)
REMARK    1  A    between atoms: C_1  and  N_2
REMARK    2  A    between atoms: C_4  and  O_5
REMARK    3  A    between atoms: O_5  and  C_6
REMARK    4  A    between atoms: C_17  and  C_18
REMARK    5  A    between atoms: C_18  and  O_19
REMARK    6  A    between atoms: O_19  and  C_20
REMARK                            x       y       z     vdW  Elec       q    Type
REMARK                         _______ _______ _______ _____ _____    ______ ____
ROOT
ATOM      1  C   UNL     1       2.548   8.264  17.666  0.00  0.00    +0.000 C 
ATOM      2  N   UNL     1       1.776   8.637  18.859  0.00  0.00    +0.000 N 
ATOM      3  C   UNL     1       1.028   9.814  18.846  0.00  0.00    +0.000 A 
ATOM      4  C   UNL     1       0.264  10.281  19.846  0.00  0.00    +0.000 A 
ATOM      5  C   UNL     1       0.150   9.395  21.045  0.00  0.00    +0.000 A 
ATOM      6  O   UNL     1      -0.645   9.584  21.962  0.00  0.00    +0.000 OA
ATOM      7  C   UNL     1       1.049   8.220  21.109  0.00  0.00    +0.000 A 
ATOM      8  C   UNL     1       1.801   7.873  20.046  0.00  0.00    +0.000 A 
ENDROOT
BRANCH   4   9
ATOM      9  O   UNL     1      -0.427  11.479  19.693  0.00  0.00    +0.000 OA
BRANCH   9  10
ATOM     10  C   UNL     1      -1.728  11.486  19.245  0.00  0.00    +0.000 A 
ATOM     11  C   UNL     1      -2.181  10.638  18.225  0.00  0.00    +0.000 A 
ATOM     12  C   UNL     1      -3.497  10.727  17.767  0.00  0.00    +0.000 A 
ATOM     13  C   UNL     1      -4.382  11.616  18.373  0.00  0.00    +0.000 A 
ATOM     14 CL   UNL     1      -5.998  11.729  17.794  0.00  0.00    +0.000 Cl
ATOM     15  C   UNL     1      -3.971  12.404  19.442  0.00  0.00    +0.000 A 
ATOM     16  C   UNL     1      -2.643  12.338  19.878  0.00  0.00    +0.000 A 
ATOM     17 CL   UNL     1      -2.174  13.328  21.216  0.00  0.00    +0.000 Cl
ENDBRANCH   9  10
ENDBRANCH   4   9
BRANCH   8  18
ATOM     18  C   UNL     1       2.614   6.587  20.154  0.00  0.00    +0.000 C 
BRANCH  18  19
ATOM     19  O   UNL     1       1.739   5.492  20.432  0.00  0.00    +0.000 OA
BRANCH  19  20
ATOM     20  C   UNL     1       1.843   4.408  19.600  0.00  0.00    +0.000 A 
ATOM     21  C   UNL     1       2.613   4.618  18.453  0.00  0.00    +0.000 A 
ATOM     22  C   UNL     1       2.794   3.596  17.517  0.00  0.00    +0.000 A 
ATOM     23  C   UNL     1       2.222   2.345  17.732  0.00  0.00    +0.000 A 
ATOM     24  C   UNL     1       1.478   2.118  18.889  0.00  0.00    +0.000 A 
ATOM     25  C   UNL     1       1.290   3.143  19.822  0.00  0.00    +0.000 A 
ENDBRANCH  19  20
ENDBRANCH  18  19
ENDBRANCH   8  18
TORSDOF 5
ENDMDL
MODEL 9
REMARK VINA RESULT:      -7.0      7.025      9.970
REMARK  Name = 
REMARK  6 active torsions:
REMARK  status: ('A' for Active; 'I' for Inactive)
REMARK    1  A    between atoms: C_1  and  N_2
REMARK    2  A    between atoms: C_4  and  O_5
REMARK    3  A    between atoms: O_5  and  C_6
REMARK    4  A    between atoms: C_17  and  C_18
REMARK    5  A    between atoms: C_18  and  O_19
REMARK    6  A    between atoms: O_19  and  C_20
REMARK                            x       y       z     vdW  Elec       q    Type
REMARK                         _______ _______ _______ _____ _____    ______ ____
ROOT
ATOM      1  C   UNL     1       8.309   5.774  20.034  0.00  0.00    +0.000 C 
ATOM      2  N   UNL     1       7.397   6.046  18.915  0.00  0.00    +0.000 N 
ATOM      3  C   UNL     1       6.378   5.137  18.630  0.00  0.00    +0.000 A 
ATOM      4  C   UNL     1       5.462   5.251  17.655  0.00  0.00    +0.000 A 
ATOM      5  C   UNL     1       5.504   6.523  16.868  0.00  0.00    +0.000 A 
ATOM      6  O   UNL     1       4.633   6.864  16.072  0.00  0.00    +0.000 OA
ATOM      7  C   UNL     1       6.666   7.416  17.084  0.00  0.00    +0.000 A 
ATOM      8  C   UNL     1       7.544   7.172  18.076  0.00  0.00    +0.000 A 
ENDROOT
BRANCH   4   9
ATOM      9  O   UNL     1       4.500   4.260  17.484  0.00  0.00    +0.000 OA
BRANCH   9  10
ATOM     10  C   UNL     1       3.753   3.816  18.550  0.00  0.00    +0.000 A 
ATOM     11  C   UNL     1       4.131   2.717  19.333  0.00  0.00    +0.000 A 
ATOM     12  C   UNL     1       3.305   2.272  20.367  0.00  0.00    +0.000 A 
ATOM     13  C   UNL     1       2.134   2.965  20.665  0.00  0.00    +0.000 A 
ATOM     14 CL   UNL     1       1.116   2.401  21.933  0.00  0.00    +0.000 Cl
ATOM     15  C   UNL     1       1.788   4.107  19.952  0.00  0.00    +0.000 A 
ATOM     16  C   UNL     1       2.598   4.532  18.894  0.00  0.00    +0.000 A 
ATOM     17 CL   UNL     1       2.137   5.962  18.038  0.00  0.00    +0.000 Cl
ENDBRANCH   9  10
ENDBRANCH   4   9
BRANCH   8  18
ATOM     18  C   UNL     1       8.648   8.201  18.301  0.00  0.00    +0.000 C 
BRANCH  18  19
ATOM     19  O   UNL     1       8.146   9.508  18.018  0.00  0.00    +0.000 OA
BRANCH  19  20
ATOM     20  C   UNL     1       8.894  10.557  18.486  0.00  0.00    +0.000 A 
ATOM     21  C   UNL     1       9.448  10.366  19.754  0.00  0.00    +0.000 A 
ATOM     22  C   UNL     1      10.228  11.361  20.351  0.00  0.00    +0.000 A 
ATOM     23  C   UNL     1      10.477  12.552  19.672  0.00  0.00    +0.000 A 
ATOM     24  C   UNL     1       9.952  12.738  18.394  0.00  0.00    +0.000 A 
ATOM     25  C   UNL     1       9.166  11.745  17.800  0.00  0.00    +0.000 A 
ENDBRANCH  19  20
ENDBRANCH  18  19
ENDBRANCH   8  18
TORSDOF 5
ENDMDL
