MODEL 1
REMARK VINA RESULT:      -7.6      0.000      0.000
REMARK  Name = 
REMARK  7 active torsions:
REMARK  status: ('A' for Active; 'I' for Inactive)
REMARK    1  A    between atoms: S_2  and  C_4
REMARK    2  A    between atoms: S_2  and  N_20
REMARK    3  A    between atoms: C_4  and  C_5
REMARK    4  A    between atoms: C_5  and  N_6
REMARK    5  A    between atoms: N_6  and  C_7
REMARK    6  A    between atoms: C_7  and  C_8
REMARK    7  A    between atoms: C_10  and  O_11
REMARK                            x       y       z     vdW  Elec       q    Type
REMARK                         _______ _______ _______ _____ _____    ______ ____
ROOT
ATOM      1  C   UNL     1       3.009   7.236  17.969  0.00  0.00    +0.000 C 
ENDROOT
BRANCH   1   2
ATOM      2  C   UNL     1       2.075   8.199  18.677  0.00  0.00    +0.000 A 
ATOM      3  C   UNL     1       1.491   9.258  17.990  0.00  0.00    +0.000 A 
ATOM      4  C   UNL     1       0.653  10.110  18.690  0.00  0.00    +0.000 A 
ATOM      5  C   UNL     1       0.431   9.932  20.061  0.00  0.00    +0.000 A 
ATOM      6  C   UNL     1      -0.399  10.782  20.816  0.00  0.00    +0.000 A 
ATOM      7  C   UNL     1      -0.539  10.581  22.181  0.00  0.00    +0.000 A 
ATOM      8  F   UNL     1      -1.313  11.406  22.897  0.00  0.00    +0.000 F 
ATOM      9  C   UNL     1       0.124   9.541  22.812  0.00  0.00    +0.000 A 
ATOM     10  C   UNL     1       0.930   8.685  22.055  0.00  0.00    +0.000 A 
ATOM     11  C   UNL     1       1.095   8.855  20.685  0.00  0.00    +0.000 A 
ATOM     12  N   UNL     1       1.887   8.004  20.008  0.00  0.00    +0.000 NA
BRANCH   4  13
ATOM     13  O   UNL     1       0.044  11.150  18.037  0.00  0.00    +0.000 OA
ATOM     14  H   UNL     1      -0.895  11.170  18.282  0.00  0.00    +0.000 HD
ENDBRANCH   4  13
ENDBRANCH   1   2
BRANCH   1  15
ATOM     15  N   UNL     1       3.229   5.980  18.714  0.00  0.00    +0.000 NA
ATOM     16  H   UNL     1       3.663   6.222  19.606  0.00  0.00    +0.000 HD
BRANCH  15  17
ATOM     17  C   UNL     1       4.124   5.097  17.955  0.00  0.00    +0.000 C 
BRANCH  17  18
ATOM     18  C   UNL     1       4.320   3.772  18.681  0.00  0.00    +0.000 C 
BRANCH  18  20
ATOM     19  O   UNL     1       2.130   3.359  17.288  0.00  0.00    +0.000 OA
ATOM     20  S   UNL     1       3.047   2.636  18.148  0.00  0.00    +0.000 S 
ATOM     21  O   UNL     1       3.679   1.415  17.696  0.00  0.00    +0.000 OA
BRANCH  20  22
ATOM     22  N   UNL     1       2.212   2.289  19.593  0.00  0.00    +0.000 NA
ATOM     23  C   UNL     1       0.827   2.811  19.710  0.00  0.00    +0.000 C 
ATOM     24  C   UNL     1       0.991   4.142  20.413  0.00  0.00    +0.000 C 
ATOM     25  C   UNL     1       2.068   3.853  21.439  0.00  0.00    +0.000 C 
ATOM     26  C   UNL     1       2.932   2.754  20.821  0.00  0.00    +0.000 C 
ENDBRANCH  20  22
ENDBRANCH  18  20
ENDBRANCH  17  18
ENDBRANCH  15  17
ENDBRANCH   1  15
TORSDOF 7
ENDMDL
MODEL 2
REMARK VINA RESULT:      -7.3      1.120      1.302
REMARK  Name = 
REMARK  7 active torsions:
REMARK  status: ('A' for Active; 'I' for Inactive)
REMARK    1  A    between atoms: S_2  and  C_4
REMARK    2  A    between atoms: S_2  and  N_20
REMARK    3  A    between atoms: C_4  and  C_5
REMARK    4  A    between atoms: C_5  and  N_6
REMARK    5  A    between atoms: N_6  and  C_7
REMARK    6  A    between atoms: C_7  and  C_8
REMARK    7  A    between atoms: C_10  and  O_11
REMARK                            x       y       z     vdW  Elec       q    Type
REMARK                         _______ _______ _______ _____ _____    ______ ____
ROOT
ATOM      1  C   UNL     1       2.791   7.994  17.530  0.00  0.00    +0.000 C 
ENDROOT
BRANCH   1   2
ATOM      2  C   UNL     1       1.850   8.751  18.448  0.00  0.00    +0.000 A 
ATOM      3  C   UNL     1       1.083   9.806  17.966  0.00  0.00    +0.000 A 
ATOM      4  C   UNL     1       0.247  10.466  18.852  0.00  0.00    +0.000 A 
ATOM      5  C   UNL     1       0.206  10.106  20.204  0.00  0.00    +0.000 A 
ATOM      6  C   UNL     1      -0.614  10.759  21.143  0.00  0.00    +0.000 A 
ATOM      7  C   UNL     1      -0.572  10.387  22.478  0.00  0.00    +0.000 A 
ATOM      8  F   UNL     1      -1.340  11.026  23.370  0.00  0.00    +0.000 F 
ATOM      9  C   UNL     1       0.266   9.367  22.900  0.00  0.00    +0.000 A 
ATOM     10  C   UNL     1       1.063   8.705  21.961  0.00  0.00    +0.000 A 
ATOM     11  C   UNL     1       1.048   9.051  20.614  0.00  0.00    +0.000 A 
ATOM     12  N   UNL     1       1.840   8.383  19.755  0.00  0.00    +0.000 NA
BRANCH   4  13
ATOM     13  O   UNL     1      -0.540  11.495  18.403  0.00  0.00    +0.000 OA
ATOM     14  H   UNL     1      -1.368  11.502  18.909  0.00  0.00    +0.000 HD
ENDBRANCH   4  13
ENDBRANCH   1   2
BRANCH   1  15
ATOM     15  N   UNL     1       2.962   6.576  17.908  0.00  0.00    +0.000 NA
ATOM     16  H   UNL     1       2.553   6.452  18.835  0.00  0.00    +0.000 HD
BRANCH  15  17
ATOM     17  C   UNL     1       4.390   6.237  17.950  0.00  0.00    +0.000 C 
BRANCH  17  18
ATOM     18  C   UNL     1       4.710   5.398  19.180  0.00  0.00    +0.000 C 
BRANCH  18  20
ATOM     19  O   UNL     1       4.113   3.484  17.481  0.00  0.00    +0.000 OA
ATOM     20  S   UNL     1       4.110   3.736  18.910  0.00  0.00    +0.000 S 
ATOM     21  O   UNL     1       4.797   2.844  19.820  0.00  0.00    +0.000 OA
BRANCH  20  22
ATOM     22  N   UNL     1       2.480   3.830  19.399  0.00  0.00    +0.000 NA
ATOM     23  C   UNL     1       2.183   4.672  20.584  0.00  0.00    +0.000 C 
ATOM     24  C   UNL     1       2.221   3.704  21.747  0.00  0.00    +0.000 C 
ATOM     25  C   UNL     1       1.559   2.465  21.178  0.00  0.00    +0.000 C 
ATOM     26  C   UNL     1       1.867   2.492  19.681  0.00  0.00    +0.000 C 
ENDBRANCH  20  22
ENDBRANCH  18  20
ENDBRANCH  17  18
ENDBRANCH  15  17
ENDBRANCH   1  15
TORSDOF 7
ENDMDL
MODEL 3
REMARK VINA RESULT:      -7.1      1.459      2.689
REMARK  Name = 
REMARK  7 active torsions:
REMARK  status: ('A' for Active; 'I' for Inactive)
REMARK    1  A    between atoms: S_2  and  C_4
REMARK    2  A    between atoms: S_2  and  N_20
REMARK    3  A    between atoms: C_4  and  C_5
REMARK    4  A    between atoms: C_5  and  N_6
REMARK    5  A    between atoms: N_6  and  C_7
REMARK    6  A    between atoms: C_7  and  C_8
REMARK    7  A    between atoms: C_10  and  O_11
REMARK                            x       y       z     vdW  Elec       q    Type
REMARK                         _______ _______ _______ _____ _____    ______ ____
ROOT
ATOM      1  C   UNL     1       2.595   6.849  19.610  0.00  0.00    +0.000 C 
ENDROOT
BRANCH   1   2
ATOM      2  C   UNL     1       1.705   8.046  19.890  0.00  0.00    +0.000 A 
ATOM      3  C   UNL     1       1.470   9.002  18.908  0.00  0.00    +0.000 A 
ATOM      4  C   UNL     1       0.655  10.077  19.223  0.00  0.00    +0.000 A 
ATOM      5  C   UNL     1       0.118  10.218  20.508  0.00  0.00    +0.000 A 
ATOM      6  C   UNL     1      -0.699  11.302  20.878  0.00  0.00    +0.000 A 
ATOM      7  C   UNL     1      -1.161  11.410  22.181  0.00  0.00    +0.000 A 
ATOM      8  F   UNL     1      -1.920  12.455  22.532  0.00  0.00    +0.000 F 
ATOM      9  C   UNL     1      -0.832  10.452  23.127  0.00  0.00    +0.000 A 
ATOM     10  C   UNL     1      -0.039   9.363  22.750  0.00  0.00    +0.000 A 
ATOM     11  C   UNL     1       0.442   9.223  21.452  0.00  0.00    +0.000 A 
ATOM     12  N   UNL     1       1.206   8.158  21.148  0.00  0.00    +0.000 NA
BRANCH   4  13
ATOM     13  O   UNL     1       0.385  11.024  18.269  0.00  0.00    +0.000 OA
ATOM     14  H   UNL     1       0.489  10.624  17.390  0.00  0.00    +0.000 HD
ENDBRANCH   4  13
ENDBRANCH   1   2
BRANCH   1  15
ATOM     15  N   UNL     1       2.373   5.724  20.541  0.00  0.00    +0.000 NA
ATOM     16  H   UNL     1       3.258   5.536  21.014  0.00  0.00    +0.000 HD
BRANCH  15  17
ATOM     17  C   UNL     1       1.948   4.533  19.797  0.00  0.00    +0.000 C 
BRANCH  17  18
ATOM     18  C   UNL     1       2.618   3.282  20.350  0.00  0.00    +0.000 C 
BRANCH  18  20
ATOM     19  O   UNL     1       5.075   2.413  20.010  0.00  0.00    +0.000 OA
ATOM     20  S   UNL     1       3.912   2.780  19.224  0.00  0.00    +0.000 S 
ATOM     21  O   UNL     1       3.352   1.858  18.259  0.00  0.00    +0.000 OA
BRANCH  20  22
ATOM     22  N   UNL     1       4.294   4.226  18.407  0.00  0.00    +0.000 NA
ATOM     23  C   UNL     1       4.230   4.196  16.924  0.00  0.00    +0.000 C 
ATOM     24  C   UNL     1       5.645   3.868  16.498  0.00  0.00    +0.000 C 
ATOM     25  C   UNL     1       6.486   4.670  17.472  0.00  0.00    +0.000 C 
ATOM     26  C   UNL     1       5.652   4.759  18.749  0.00  0.00    +0.000 C 
ENDBRANCH  20  22
ENDBRANCH  18  20
ENDBRANCH  17  18
ENDBRANCH  15  17
ENDBRANCH   1  15
TORSDOF 7
ENDMDL
MODEL 4
REMARK VINA RESULT:      -7.0      2.858      4.101
REMARK  Name = 
REMARK  7 active torsions:
REMARK  status: ('A' for Active; 'I' for Inactive)
REMARK    1  A    between atoms: S_2  and  C_4
REMARK    2  A    between atoms: S_2  and  N_20
REMARK    3  A    between atoms: C_4  and  C_5
REMARK    4  A    between atoms: C_5  and  N_6
REMARK    5  A    between atoms: N_6  and  C_7
REMARK    6  A    between atoms: C_7  and  C_8
REMARK    7  A    between atoms: C_10  and  O_11
REMARK                            x       y       z     vdW  Elec       q    Type
REMARK                         _______ _______ _______ _____ _____    ______ ____
ROOT
ATOM      1  C   UNL     1       2.849   5.203  18.517  0.00  0.00    +0.000 C 
ENDROOT
BRANCH   1   2
ATOM      2  C   UNL     1       2.362   6.607  18.821  0.00  0.00    +0.000 A 
ATOM      3  C   UNL     1       2.390   7.596  17.844  0.00  0.00    +0.000 A 
ATOM      4  C   UNL     1       1.940   8.862  18.180  0.00  0.00    +0.000 A 
ATOM      5  C   UNL     1       1.507   9.148  19.481  0.00  0.00    +0.000 A 
ATOM      6  C   UNL     1       1.059  10.423  19.873  0.00  0.00    +0.000 A 
ATOM      7  C   UNL     1       0.689  10.654  21.188  0.00  0.00    +0.000 A 
ATOM      8  F   UNL     1       0.283  11.875  21.559  0.00  0.00    +0.000 F 
ATOM      9  C   UNL     1       0.748   9.636  22.127  0.00  0.00    +0.000 A 
ATOM     10  C   UNL     1       1.172   8.364  21.729  0.00  0.00    +0.000 A 
ATOM     11  C   UNL     1       1.551   8.095  20.418  0.00  0.00    +0.000 A 
ATOM     12  N   UNL     1       1.956   6.854  20.093  0.00  0.00    +0.000 NA
BRANCH   4  13
ATOM     13  O   UNL     1       1.933   9.853  17.233  0.00  0.00    +0.000 OA
ATOM     14  H   UNL     1       1.227  10.485  17.444  0.00  0.00    +0.000 HD
ENDBRANCH   4  13
ENDBRANCH   1   2
BRANCH   1  15
ATOM     15  N   UNL     1       3.690   5.124  17.306  0.00  0.00    +0.000 NA
ATOM     16  H   UNL     1       3.076   4.926  16.515  0.00  0.00    +0.000 HD
BRANCH  15  17
ATOM     17  C   UNL     1       4.675   4.044  17.448  0.00  0.00    +0.000 C 
BRANCH  17  18
ATOM     18  C   UNL     1       5.572   3.965  16.220  0.00  0.00    +0.000 C 
BRANCH  18  20
ATOM     19  O   UNL     1       7.674   5.386  15.538  0.00  0.00    +0.000 OA
ATOM     20  S   UNL     1       6.291   5.576  15.932  0.00  0.00    +0.000 S 
ATOM     21  O   UNL     1       5.385   6.344  15.105  0.00  0.00    +0.000 OA
BRANCH  20  22
ATOM     22  N   UNL     1       6.304   6.275  17.486  0.00  0.00    +0.000 NA
ATOM     23  C   UNL     1       6.206   7.755  17.557  0.00  0.00    +0.000 C 
ATOM     24  C   UNL     1       7.647   8.220  17.603  0.00  0.00    +0.000 C 
ATOM     25  C   UNL     1       8.305   7.191  18.501  0.00  0.00    +0.000 C 
ATOM     26  C   UNL     1       7.509   5.904  18.294  0.00  0.00    +0.000 C 
ENDBRANCH  20  22
ENDBRANCH  18  20
ENDBRANCH  17  18
ENDBRANCH  15  17
ENDBRANCH   1  15
TORSDOF 7
ENDMDL
MODEL 5
REMARK VINA RESULT:      -7.0      0.991      1.247
REMARK  Name = 
REMARK  7 active torsions:
REMARK  status: ('A' for Active; 'I' for Inactive)
REMARK    1  A    between atoms: S_2  and  C_4
REMARK    2  A    between atoms: S_2  and  N_20
REMARK    3  A    between atoms: C_4  and  C_5
REMARK    4  A    between atoms: C_5  and  N_6
REMARK    5  A    between atoms: N_6  and  C_7
REMARK    6  A    between atoms: C_7  and  C_8
REMARK    7  A    between atoms: C_10  and  O_11
REMARK                            x       y       z     vdW  Elec       q    Type
REMARK                         _______ _______ _______ _____ _____    ______ ____
ROOT
ATOM      1  C   UNL     1       2.982   7.249  17.623  0.00  0.00    +0.000 C 
ENDROOT
BRANCH   1   2
ATOM      2  C   UNL     1       2.141   8.215  18.436  0.00  0.00    +0.000 A 
ATOM      3  C   UNL     1       1.615   9.363  17.854  0.00  0.00    +0.000 A 
ATOM      4  C   UNL     1       0.861  10.213  18.648  0.00  0.00    +0.000 A 
ATOM      5  C   UNL     1       0.669   9.942  20.008  0.00  0.00    +0.000 A 
ATOM      6  C   UNL     1      -0.074  10.785  20.855  0.00  0.00    +0.000 A 
ATOM      7  C   UNL     1      -0.187  10.487  22.204  0.00  0.00    +0.000 A 
ATOM      8  F   UNL     1      -0.877  11.304  23.010  0.00  0.00    +0.000 F 
ATOM      9  C   UNL     1       0.420   9.356  22.730  0.00  0.00    +0.000 A 
ATOM     10  C   UNL     1       1.138   8.509  21.881  0.00  0.00    +0.000 A 
ATOM     11  C   UNL     1       1.272   8.776  20.523  0.00  0.00    +0.000 A 
ATOM     12  N   UNL     1       1.980   7.928  19.754  0.00  0.00    +0.000 NA
BRANCH   4  13
ATOM     13  O   UNL     1       0.310  11.340  18.098  0.00  0.00    +0.000 OA
ATOM     14  H   UNL     1       0.310  12.047  18.764  0.00  0.00    +0.000 HD
ENDBRANCH   4  13
ENDBRANCH   1   2
BRANCH   1  15
ATOM     15  N   UNL     1       4.183   6.773  18.338  0.00  0.00    +0.000 NA
ATOM     16  H   UNL     1       4.928   7.452  18.176  0.00  0.00    +0.000 HD
BRANCH  15  17
ATOM     17  C   UNL     1       4.590   5.462  17.818  0.00  0.00    +0.000 C 
BRANCH  17  18
ATOM     18  C   UNL     1       3.488   4.431  18.027  0.00  0.00    +0.000 C 
BRANCH  18  20
ATOM     19  O   UNL     1       3.842   1.869  18.492  0.00  0.00    +0.000 OA
ATOM     20  S   UNL     1       4.101   3.153  19.116  0.00  0.00    +0.000 S 
ATOM     21  O   UNL     1       5.437   3.511  19.543  0.00  0.00    +0.000 OA
BRANCH  20  22
ATOM     22  N   UNL     1       3.070   3.271  20.468  0.00  0.00    +0.000 NA
ATOM     23  C   UNL     1       1.943   2.308  20.540  0.00  0.00    +0.000 C 
ATOM     24  C   UNL     1       0.785   3.042  19.899  0.00  0.00    +0.000 C 
ATOM     25  C   UNL     1       0.957   4.458  20.412  0.00  0.00    +0.000 C 
ATOM     26  C   UNL     1       2.460   4.629  20.632  0.00  0.00    +0.000 C 
ENDBRANCH  20  22
ENDBRANCH  18  20
ENDBRANCH  17  18
ENDBRANCH  15  17
ENDBRANCH   1  15
TORSDOF 7
ENDMDL
MODEL 6
REMARK VINA RESULT:      -7.0      0.721      1.133
REMARK  Name = 
REMARK  7 active torsions:
REMARK  status: ('A' for Active; 'I' for Inactive)
REMARK    1  A    between atoms: S_2  and  C_4
REMARK    2  A    between atoms: S_2  and  N_20
REMARK    3  A    between atoms: C_4  and  C_5
REMARK    4  A    between atoms: C_5  and  N_6
REMARK    5  A    between atoms: N_6  and  C_7
REMARK    6  A    between atoms: C_7  and  C_8
REMARK    7  A    between atoms: C_10  and  O_11
REMARK                            x       y       z     vdW  Elec       q    Type
REMARK                         _______ _______ _______ _____ _____    ______ ____
ROOT
ATOM      1  C   UNL     1       3.227   7.161  17.879  0.00  0.00    +0.000 C 
ENDROOT
BRANCH   1   2
ATOM      2  C   UNL     1       2.227   8.072  18.568  0.00  0.00    +0.000 A 
ATOM      3  C   UNL     1       1.553   9.056  17.854  0.00  0.00    +0.000 A 
ATOM      4  C   UNL     1       0.658   9.864  18.537  0.00  0.00    +0.000 A 
ATOM      5  C   UNL     1       0.468   9.718  19.916  0.00  0.00    +0.000 A 
ATOM      6  C   UNL     1      -0.416  10.526  20.654  0.00  0.00    +0.000 A 
ATOM      7  C   UNL     1      -0.523  10.364  22.026  0.00  0.00    +0.000 A 
ATOM      8  F   UNL     1      -1.352  11.150  22.725  0.00  0.00    +0.000 F 
ATOM      9  C   UNL     1       0.229   9.403  22.683  0.00  0.00    +0.000 A 
ATOM     10  C   UNL     1       1.090   8.586  21.944  0.00  0.00    +0.000 A 
ATOM     11  C   UNL     1       1.224   8.720  20.566  0.00  0.00    +0.000 A 
ATOM     12  N   UNL     1       2.072   7.910  19.907  0.00  0.00    +0.000 NA
BRANCH   4  13
ATOM     13  O   UNL     1      -0.039  10.828  17.856  0.00  0.00    +0.000 OA
ATOM     14  H   UNL     1       0.275  10.855  16.938  0.00  0.00    +0.000 HD
ENDBRANCH   4  13
ENDBRANCH   1   2
BRANCH   1  15
ATOM     15  N   UNL     1       3.727   6.078  18.749  0.00  0.00    +0.000 NA
ATOM     16  H   UNL     1       4.489   6.461  19.311  0.00  0.00    +0.000 HD
BRANCH  15  17
ATOM     17  C   UNL     1       4.229   4.968  17.930  0.00  0.00    +0.000 C 
BRANCH  17  18
ATOM     18  C   UNL     1       3.084   4.272  17.204  0.00  0.00    +0.000 C 
BRANCH  18  20
ATOM     19  O   UNL     1       1.007   2.911  18.062  0.00  0.00    +0.000 OA
ATOM     20  S   UNL     1       2.442   2.978  18.257  0.00  0.00    +0.000 S 
ATOM     21  O   UNL     1       3.267   1.799  18.094  0.00  0.00    +0.000 OA
BRANCH  20  22
ATOM     22  N   UNL     1       2.708   3.590  19.825  0.00  0.00    +0.000 NA
ATOM     23  C   UNL     1       3.413   2.701  20.783  0.00  0.00    +0.000 C 
ATOM     24  C   UNL     1       2.297   1.986  21.516  0.00  0.00    +0.000 C 
ATOM     25  C   UNL     1       1.261   3.077  21.702  0.00  0.00    +0.000 C 
ATOM     26  C   UNL     1       1.450   4.022  20.515  0.00  0.00    +0.000 C 
ENDBRANCH  20  22
ENDBRANCH  18  20
ENDBRANCH  17  18
ENDBRANCH  15  17
ENDBRANCH   1  15
TORSDOF 7
ENDMDL
MODEL 7
REMARK VINA RESULT:      -6.9      2.098      3.332
REMARK  Name = 
REMARK  7 active torsions:
REMARK  status: ('A' for Active; 'I' for Inactive)
REMARK    1  A    between atoms: S_2  and  C_4
REMARK    2  A    between atoms: S_2  and  N_20
REMARK    3  A    between atoms: C_4  and  C_5
REMARK    4  A    between atoms: C_5  and  N_6
REMARK    5  A    between atoms: N_6  and  C_7
REMARK    6  A    between atoms: C_7  and  C_8
REMARK    7  A    between atoms: C_10  and  O_11
REMARK                            x       y       z     vdW  Elec       q    Type
REMARK                         _______ _______ _______ _____ _____    ______ ____
ROOT
ATOM      1  C   UNL     1       2.723   7.506  18.229  0.00  0.00    +0.000 C 
ENDROOT
BRANCH   1   2
ATOM      2  C   UNL     1       1.778   8.473  18.917  0.00  0.00    +0.000 A 
ATOM      3  C   UNL     1       1.183   9.511  18.209  0.00  0.00    +0.000 A 
ATOM      4  C   UNL     1       0.335  10.368  18.892  0.00  0.00    +0.000 A 
ATOM      5  C   UNL     1       0.115  10.216  20.266  0.00  0.00    +0.000 A 
ATOM      6  C   UNL     1      -0.723  11.072  21.003  0.00  0.00    +0.000 A 
ATOM      7  C   UNL     1      -0.862  10.898  22.372  0.00  0.00    +0.000 A 
ATOM      8  F   UNL     1      -1.645  11.730  23.071  0.00  0.00    +0.000 F 
ATOM      9  C   UNL     1      -0.187   9.879  23.024  0.00  0.00    +0.000 A 
ATOM     10  C   UNL     1       0.627   9.015  22.285  0.00  0.00    +0.000 A 
ATOM     11  C   UNL     1       0.791   9.160  20.911  0.00  0.00    +0.000 A 
ATOM     12  N   UNL     1       1.592   8.303  20.252  0.00  0.00    +0.000 NA
BRANCH   4  13
ATOM     13  O   UNL     1      -0.284  11.388  18.217  0.00  0.00    +0.000 OA
ATOM     14  H   UNL     1      -0.167  12.213  18.716  0.00  0.00    +0.000 HD
ENDBRANCH   4  13
ENDBRANCH   1   2
BRANCH   1  15
ATOM     15  N   UNL     1       2.150   6.156  18.049  0.00  0.00    +0.000 NA
ATOM     16  H   UNL     1       1.159   6.207  18.289  0.00  0.00    +0.000 HD
BRANCH  15  17
ATOM     17  C   UNL     1       2.824   5.203  18.939  0.00  0.00    +0.000 C 
BRANCH  17  18
ATOM     18  C   UNL     1       4.141   5.776  19.447  0.00  0.00    +0.000 C 
BRANCH  18  20
ATOM     19  O   UNL     1       6.535   6.063  18.404  0.00  0.00    +0.000 OA
ATOM     20  S   UNL     1       5.477   5.075  18.488  0.00  0.00    +0.000 S 
ATOM     21  O   UNL     1       5.747   3.741  18.980  0.00  0.00    +0.000 OA
BRANCH  20  22
ATOM     22  N   UNL     1       4.799   4.932  16.931  0.00  0.00    +0.000 NA
ATOM     23  C   UNL     1       4.967   3.628  16.243  0.00  0.00    +0.000 C 
ATOM     24  C   UNL     1       6.222   3.803  15.414  0.00  0.00    +0.000 C 
ATOM     25  C   UNL     1       6.091   5.224  14.900  0.00  0.00    +0.000 C 
ATOM     26  C   UNL     1       5.294   5.969  15.970  0.00  0.00    +0.000 C 
ENDBRANCH  20  22
ENDBRANCH  18  20
ENDBRANCH  17  18
ENDBRANCH  15  17
ENDBRANCH   1  15
TORSDOF 7
ENDMDL
MODEL 8
REMARK VINA RESULT:      -6.9      1.777      3.133
REMARK  Name = 
REMARK  7 active torsions:
REMARK  status: ('A' for Active; 'I' for Inactive)
REMARK    1  A    between atoms: S_2  and  C_4
REMARK    2  A    between atoms: S_2  and  N_20
REMARK    3  A    between atoms: C_4  and  C_5
REMARK    4  A    between atoms: C_5  and  N_6
REMARK    5  A    between atoms: N_6  and  C_7
REMARK    6  A    between atoms: C_7  and  C_8
REMARK    7  A    between atoms: C_10  and  O_11
REMARK                            x       y       z     vdW  Elec       q    Type
REMARK                         _______ _______ _______ _____ _____    ______ ____
ROOT
ATOM      1  C   UNL     1       2.582   7.600  18.463  0.00  0.00    +0.000 C 
ENDROOT
BRANCH   1   2
ATOM      2  C   UNL     1       1.681   8.637  19.106  0.00  0.00    +0.000 A 
ATOM      3  C   UNL     1       1.266   9.758  18.394  0.00  0.00    +0.000 A 
ATOM      4  C   UNL     1       0.450  10.675  19.035  0.00  0.00    +0.000 A 
ATOM      5  C   UNL     1       0.086  10.499  20.375  0.00  0.00    +0.000 A 
ATOM      6  C   UNL     1      -0.726  11.413  21.071  0.00  0.00    +0.000 A 
ATOM      7  C   UNL     1      -1.011  11.207  22.412  0.00  0.00    +0.000 A 
ATOM      8  F   UNL     1      -1.767  12.091  23.074  0.00  0.00    +0.000 F 
ATOM      9  C   UNL     1      -0.510  10.099  23.077  0.00  0.00    +0.000 A 
ATOM     10  C   UNL     1       0.278   9.180  22.376  0.00  0.00    +0.000 A 
ATOM     11  C   UNL     1       0.585   9.355  21.031  0.00  0.00    +0.000 A 
ATOM     12  N   UNL     1       1.353   8.441  20.409  0.00  0.00    +0.000 NA
BRANCH   4  13
ATOM     13  O   UNL     1       0.005  11.778  18.353  0.00  0.00    +0.000 OA
ATOM     14  H   UNL     1       0.163  11.646  17.404  0.00  0.00    +0.000 HD
ENDBRANCH   4  13
ENDBRANCH   1   2
BRANCH   1  15
ATOM     15  N   UNL     1       2.970   6.511  19.382  0.00  0.00    +0.000 NA
ATOM     16  H   UNL     1       3.971   6.348  19.262  0.00  0.00    +0.000 HD
BRANCH  15  17
ATOM     17  C   UNL     1       2.227   5.289  19.054  0.00  0.00    +0.000 C 
BRANCH  17  18
ATOM     18  C   UNL     1       2.735   4.681  17.752  0.00  0.00    +0.000 C 
BRANCH  18  20
ATOM     19  O   UNL     1       4.512   3.829  19.489  0.00  0.00    +0.000 OA
ATOM     20  S   UNL     1       4.331   3.934  18.054  0.00  0.00    +0.000 S 
ATOM     21  O   UNL     1       4.463   2.770  17.204  0.00  0.00    +0.000 OA
BRANCH  20  22
ATOM     22  N   UNL     1       5.422   5.118  17.496  0.00  0.00    +0.000 NA
ATOM     23  C   UNL     1       5.028   5.875  16.282  0.00  0.00    +0.000 C 
ATOM     24  C   UNL     1       5.660   5.105  15.142  0.00  0.00    +0.000 C 
ATOM     25  C   UNL     1       7.008   4.707  15.709  0.00  0.00    +0.000 C 
ATOM     26  C   UNL     1       6.791   4.578  17.216  0.00  0.00    +0.000 C 
ENDBRANCH  20  22
ENDBRANCH  18  20
ENDBRANCH  17  18
ENDBRANCH  15  17
ENDBRANCH   1  15
TORSDOF 7
ENDMDL
MODEL 9
REMARK VINA RESULT:      -6.8      1.432      2.394
REMARK  Name = 
REMARK  7 active torsions:
REMARK  status: ('A' for Active; 'I' for Inactive)
REMARK    1  A    between atoms: S_2  and  C_4
REMARK    2  A    between atoms: S_2  and  N_20
REMARK    3  A    between atoms: C_4  and  C_5
REMARK    4  A    between atoms: C_5  and  N_6
REMARK    5  A    between atoms: N_6  and  C_7
REMARK    6  A    between atoms: C_7  and  C_8
REMARK    7  A    between atoms: C_10  and  O_11
REMARK                            x       y       z     vdW  Elec       q    Type
REMARK                         _______ _______ _______ _____ _____    ______ ____
ROOT
ATOM      1  C   UNL     1       2.528   6.755  19.840  0.00  0.00    +0.000 C 
ENDROOT
BRANCH   1   2
ATOM      2  C   UNL     1       1.665   7.986  20.045  0.00  0.00    +0.000 A 
ATOM      3  C   UNL     1       1.489   8.909  19.020  0.00  0.00    +0.000 A 
ATOM      4  C   UNL     1       0.697  10.019  19.267  0.00  0.00    +0.000 A 
ATOM      5  C   UNL     1       0.122  10.224  20.527  0.00  0.00    +0.000 A 
ATOM      6  C   UNL     1      -0.675  11.344  20.828  0.00  0.00    +0.000 A 
ATOM      7  C   UNL     1      -1.175  11.515  22.110  0.00  0.00    +0.000 A 
ATOM      8  F   UNL     1      -1.916  12.594  22.395  0.00  0.00    +0.000 F 
ATOM      9  C   UNL     1      -0.906  10.585  23.102  0.00  0.00    +0.000 A 
ATOM     10  C   UNL     1      -0.133   9.461  22.793  0.00  0.00    +0.000 A 
ATOM     11  C   UNL     1       0.386   9.257  21.519  0.00  0.00    +0.000 A 
ATOM     12  N   UNL     1       1.129   8.160  21.280  0.00  0.00    +0.000 NA
BRANCH   4  13
ATOM     13  O   UNL     1       0.485  10.935  18.270  0.00  0.00    +0.000 OA
ATOM     14  H   UNL     1       1.344  11.266  17.959  0.00  0.00    +0.000 HD
ENDBRANCH   4  13
ENDBRANCH   1   2
BRANCH   1  15
ATOM     15  N   UNL     1       2.278   5.693  20.836  0.00  0.00    +0.000 NA
ATOM     16  H   UNL     1       3.108   5.099  20.869  0.00  0.00    +0.000 HD
BRANCH  15  17
ATOM     17  C   UNL     1       1.114   4.893  20.436  0.00  0.00    +0.000 C 
BRANCH  17  18
ATOM     18  C   UNL     1       1.505   3.436  20.230  0.00  0.00    +0.000 C 
BRANCH  18  20
ATOM     19  O   UNL     1       0.400   1.926  18.385  0.00  0.00    +0.000 OA
ATOM     20  S   UNL     1       1.328   3.035  18.497  0.00  0.00    +0.000 S 
ATOM     21  O   UNL     1       1.107   4.262  17.761  0.00  0.00    +0.000 OA
BRANCH  20  22
ATOM     22  N   UNL     1       2.870   2.443  18.078  0.00  0.00    +0.000 NA
ATOM     23  C   UNL     1       3.818   2.193  19.192  0.00  0.00    +0.000 C 
ATOM     24  C   UNL     1       4.611   3.479  19.302  0.00  0.00    +0.000 C 
ATOM     25  C   UNL     1       4.813   3.875  17.853  0.00  0.00    +0.000 C 
ATOM     26  C   UNL     1       3.599   3.321  17.108  0.00  0.00    +0.000 C 
ENDBRANCH  20  22
ENDBRANCH  18  20
ENDBRANCH  17  18
ENDBRANCH  15  17
ENDBRANCH   1  15
TORSDOF 7
ENDMDL
