MODEL 1
REMARK VINA RESULT:      -7.8      0.000      0.000
REMARK  Name = 
REMARK  5 active torsions:
REMARK  status: ('A' for Active; 'I' for Inactive)
REMARK    1  A    between atoms: C_1  and  C_2
REMARK    2  A    between atoms: C_5  and  N_6
REMARK    3  A    between atoms: C_8  and  C_9
REMARK    4  A    between atoms: C_13  and  C_14
REMARK    5  A    between atoms: C_17  and  C_18
REMARK                            x       y       z     vdW  Elec       q    Type
REMARK                         _______ _______ _______ _____ _____    ______ ____
ROOT
ATOM      1  N   UNL     1       5.274   4.298  16.416  0.00  0.00    +0.000 N 
ATOM      2  N   UNL     1       5.023   4.114  15.095  0.00  0.00    +0.000 NA
ATOM      3  C   UNL     1       6.215   4.323  14.536  0.00  0.00    +0.000 A 
ATOM      4  N   UNL     1       7.210   4.666  15.399  0.00  0.00    +0.000 NA
ATOM      5  C   UNL     1       6.625   4.601  16.576  0.00  0.00    +0.000 A 
ENDROOT
BRANCH   1  10
ATOM      6  C   UNL     1       0.884   3.711  20.073  0.00  0.00    +0.000 C 
ATOM      7  C   UNL     1       2.090   3.889  19.202  0.00  0.00    +0.000 A 
ATOM      8  C   UNL     1       2.877   2.802  18.839  0.00  0.00    +0.000 A 
ATOM      9  C   UNL     1       3.951   2.978  17.966  0.00  0.00    +0.000 A 
ATOM     10  C   UNL     1       4.253   4.239  17.412  0.00  0.00    +0.000 A 
ATOM     11  C   UNL     1       3.523   5.366  17.843  0.00  0.00    +0.000 A 
ATOM     12  C   UNL     1       3.746   6.796  17.426  0.00  0.00    +0.000 C 
ATOM     13  C   UNL     1       2.446   5.160  18.737  0.00  0.00    +0.000 A 
ENDBRANCH   1  10
BRANCH   3  14
ATOM     14  C   UNL     1       6.440   4.165  13.040  0.00  0.00    +0.000 C 
ATOM     15  C   UNL     1       6.364   2.774  12.442  0.00  0.00    +0.000 C 
ATOM     16  C   UNL     1       5.271   3.749  12.167  0.00  0.00    +0.000 C 
ENDBRANCH   3  14
BRANCH   5  17
ATOM     17  C   UNL     1       7.405   4.751  17.880  0.00  0.00    +0.000 C 
ATOM     18  C   UNL     1       7.835   6.121  18.348  0.00  0.00    +0.000 C 
ATOM     19  C   UNL     1       6.696   5.436  19.028  0.00  0.00    +0.000 C 
ENDBRANCH   5  17
TORSDOF 3
ENDMDL
MODEL 2
REMARK VINA RESULT:      -7.5      3.069      6.833
REMARK  Name = 
REMARK  5 active torsions:
REMARK  status: ('A' for Active; 'I' for Inactive)
REMARK    1  A    between atoms: C_1  and  C_2
REMARK    2  A    between atoms: C_5  and  N_6
REMARK    3  A    between atoms: C_8  and  C_9
REMARK    4  A    between atoms: C_13  and  C_14
REMARK    5  A    between atoms: C_17  and  C_18
REMARK                            x       y       z     vdW  Elec       q    Type
REMARK                         _______ _______ _______ _____ _____    ______ ____
ROOT
ATOM      1  N   UNL     1       3.029   5.807  19.421  0.00  0.00    +0.000 N 
ATOM      2  N   UNL     1       2.646   7.109  19.402  0.00  0.00    +0.000 NA
ATOM      3  C   UNL     1       1.726   7.161  20.364  0.00  0.00    +0.000 A 
ATOM      4  N   UNL     1       1.459   5.975  20.978  0.00  0.00    +0.000 NA
ATOM      5  C   UNL     1       2.312   5.145  20.416  0.00  0.00    +0.000 A 
ENDROOT
BRANCH   1  10
ATOM      6  C   UNL     1       6.937   4.161  15.546  0.00  0.00    +0.000 C 
ATOM      7  C   UNL     1       5.933   4.499  16.607  0.00  0.00    +0.000 A 
ATOM      8  C   UNL     1       6.291   5.258  17.715  0.00  0.00    +0.000 A 
ATOM      9  C   UNL     1       5.324   5.625  18.651  0.00  0.00    +0.000 A 
ATOM     10  C   UNL     1       3.970   5.265  18.494  0.00  0.00    +0.000 A 
ATOM     11  C   UNL     1       3.610   4.417  17.426  0.00  0.00    +0.000 A 
ATOM     12  C   UNL     1       2.237   3.868  17.138  0.00  0.00    +0.000 C 
ATOM     13  C   UNL     1       4.611   4.052  16.497  0.00  0.00    +0.000 A 
ENDBRANCH   1  10
BRANCH   3  14
ATOM     14  C   UNL     1       1.044   8.462  20.755  0.00  0.00    +0.000 C 
ATOM     15  C   UNL     1      -0.094   8.408  21.755  0.00  0.00    +0.000 C 
ATOM     16  C   UNL     1       1.217   8.980  22.170  0.00  0.00    +0.000 C 
ENDBRANCH   3  14
BRANCH   5  17
ATOM     17  C   UNL     1       2.494   3.711  20.908  0.00  0.00    +0.000 C 
ATOM     18  C   UNL     1       1.408   3.050  21.724  0.00  0.00    +0.000 C 
ATOM     19  C   UNL     1       1.595   2.658  20.296  0.00  0.00    +0.000 C 
ENDBRANCH   5  17
TORSDOF 3
ENDMDL
MODEL 3
REMARK VINA RESULT:      -7.5      1.085      2.233
REMARK  Name = 
REMARK  5 active torsions:
REMARK  status: ('A' for Active; 'I' for Inactive)
REMARK    1  A    between atoms: C_1  and  C_2
REMARK    2  A    between atoms: C_5  and  N_6
REMARK    3  A    between atoms: C_8  and  C_9
REMARK    4  A    between atoms: C_13  and  C_14
REMARK    5  A    between atoms: C_17  and  C_18
REMARK                            x       y       z     vdW  Elec       q    Type
REMARK                         _______ _______ _______ _____ _____    ______ ____
ROOT
ATOM      1  N   UNL     1       5.289   5.155  16.457  0.00  0.00    +0.000 N 
ATOM      2  N   UNL     1       4.974   4.465  15.331  0.00  0.00    +0.000 NA
ATOM      3  C   UNL     1       6.167   4.231  14.785  0.00  0.00    +0.000 A 
ATOM      4  N   UNL     1       7.228   4.754  15.460  0.00  0.00    +0.000 NA
ATOM      5  C   UNL     1       6.674   5.287  16.528  0.00  0.00    +0.000 A 
ENDROOT
BRANCH   1  10
ATOM      6  C   UNL     1       1.703   7.649  20.187  0.00  0.00    +0.000 C 
ATOM      7  C   UNL     1       2.554   6.967  19.159  0.00  0.00    +0.000 A 
ATOM      8  C   UNL     1       3.086   7.674  18.088  0.00  0.00    +0.000 A 
ATOM      9  C   UNL     1       3.937   7.036  17.185  0.00  0.00    +0.000 A 
ATOM     10  C   UNL     1       4.299   5.683  17.341  0.00  0.00    +0.000 A 
ATOM     11  C   UNL     1       3.693   4.929  18.368  0.00  0.00    +0.000 A 
ATOM     12  C   UNL     1       3.894   3.462  18.645  0.00  0.00    +0.000 C 
ATOM     13  C   UNL     1       2.827   5.598  19.263  0.00  0.00    +0.000 A 
ENDBRANCH   1  10
BRANCH   3  14
ATOM     14  C   UNL     1       6.322   3.419  13.509  0.00  0.00    +0.000 C 
ATOM     15  C   UNL     1       5.334   3.649  12.383  0.00  0.00    +0.000 C 
ATOM     16  C   UNL     1       6.736   4.132  12.236  0.00  0.00    +0.000 C 
ENDBRANCH   3  14
BRANCH   5  17
ATOM     17  C   UNL     1       7.505   5.858  17.675  0.00  0.00    +0.000 C 
ATOM     18  C   UNL     1       7.017   5.724  19.098  0.00  0.00    +0.000 C 
ATOM     19  C   UNL     1       8.139   4.863  18.623  0.00  0.00    +0.000 C 
ENDBRANCH   5  17
TORSDOF 3
ENDMDL
MODEL 4
REMARK VINA RESULT:      -7.4      1.179      1.534
REMARK  Name = 
REMARK  5 active torsions:
REMARK  status: ('A' for Active; 'I' for Inactive)
REMARK    1  A    between atoms: C_1  and  C_2
REMARK    2  A    between atoms: C_5  and  N_6
REMARK    3  A    between atoms: C_8  and  C_9
REMARK    4  A    between atoms: C_13  and  C_14
REMARK    5  A    between atoms: C_17  and  C_18
REMARK                            x       y       z     vdW  Elec       q    Type
REMARK                         _______ _______ _______ _____ _____    ______ ____
ROOT
ATOM      1  N   UNL     1       5.098   4.197  17.602  0.00  0.00    +0.000 N 
ATOM      2  N   UNL     1       5.029   3.543  16.415  0.00  0.00    +0.000 NA
ATOM      3  C   UNL     1       6.016   4.100  15.713  0.00  0.00    +0.000 A 
ATOM      4  N   UNL     1       6.694   5.094  16.351  0.00  0.00    +0.000 NA
ATOM      5  C   UNL     1       6.145   5.115  17.547  0.00  0.00    +0.000 A 
ENDROOT
BRANCH   1  10
ATOM      6  C   UNL     1       1.289   2.767  21.657  0.00  0.00    +0.000 C 
ATOM      7  C   UNL     1       2.322   3.211  20.666  0.00  0.00    +0.000 A 
ATOM      8  C   UNL     1       3.533   2.540  20.545  0.00  0.00    +0.000 A 
ATOM      9  C   UNL     1       4.448   2.924  19.565  0.00  0.00    +0.000 A 
ATOM     10  C   UNL     1       4.170   3.971  18.663  0.00  0.00    +0.000 A 
ATOM     11  C   UNL     1       2.987   4.721  18.834  0.00  0.00    +0.000 A 
ATOM     12  C   UNL     1       2.554   5.914  18.023  0.00  0.00    +0.000 C 
ATOM     13  C   UNL     1       2.081   4.317  19.842  0.00  0.00    +0.000 A 
ENDBRANCH   1  10
BRANCH   3  14
ATOM     14  C   UNL     1       6.366   3.635  14.309  0.00  0.00    +0.000 C 
ATOM     15  C   UNL     1       5.413   3.972  13.179  0.00  0.00    +0.000 C 
ATOM     16  C   UNL     1       6.723   4.675  13.264  0.00  0.00    +0.000 C 
ENDBRANCH   3  14
BRANCH   5  17
ATOM     17  C   UNL     1       6.699   5.976  18.680  0.00  0.00    +0.000 C 
ATOM     18  C   UNL     1       8.086   5.714  19.217  0.00  0.00    +0.000 C 
ATOM     19  C   UNL     1       7.850   6.898  18.339  0.00  0.00    +0.000 C 
ENDBRANCH   5  17
TORSDOF 3
ENDMDL
MODEL 5
REMARK VINA RESULT:      -7.3      2.500      4.952
REMARK  Name = 
REMARK  5 active torsions:
REMARK  status: ('A' for Active; 'I' for Inactive)
REMARK    1  A    between atoms: C_1  and  C_2
REMARK    2  A    between atoms: C_5  and  N_6
REMARK    3  A    between atoms: C_8  and  C_9
REMARK    4  A    between atoms: C_13  and  C_14
REMARK    5  A    between atoms: C_17  and  C_18
REMARK                            x       y       z     vdW  Elec       q    Type
REMARK                         _______ _______ _______ _____ _____    ______ ____
ROOT
ATOM      1  N   UNL     1       3.253   5.961  18.033  0.00  0.00    +0.000 N 
ATOM      2  N   UNL     1       4.549   6.101  17.656  0.00  0.00    +0.000 NA
ATOM      3  C   UNL     1       4.890   4.861  17.307  0.00  0.00    +0.000 A 
ATOM      4  N   UNL     1       3.916   3.923  17.467  0.00  0.00    +0.000 NA
ATOM      5  C   UNL     1       2.882   4.627  17.875  0.00  0.00    +0.000 A 
ENDROOT
BRANCH   1  10
ATOM      6  C   UNL     1       0.577  10.648  20.000  0.00  0.00    +0.000 C 
ATOM      7  C   UNL     1       1.181   9.381  19.475  0.00  0.00    +0.000 A 
ATOM      8  C   UNL     1       1.504   9.246  18.130  0.00  0.00    +0.000 A 
ATOM      9  C   UNL     1       2.133   8.087  17.677  0.00  0.00    +0.000 A 
ATOM     10  C   UNL     1       2.481   7.042  18.557  0.00  0.00    +0.000 A 
ATOM     11  C   UNL     1       2.075   7.124  19.906  0.00  0.00    +0.000 A 
ATOM     12  C   UNL     1       2.286   6.083  20.973  0.00  0.00    +0.000 C 
ATOM     13  C   UNL     1       1.430   8.306  20.337  0.00  0.00    +0.000 A 
ENDBRANCH   1  10
BRANCH   3  14
ATOM     14  C   UNL     1       6.266   4.532  16.750  0.00  0.00    +0.000 C 
ATOM     15  C   UNL     1       7.267   5.659  16.589  0.00  0.00    +0.000 C 
ATOM     16  C   UNL     1       7.471   4.650  17.665  0.00  0.00    +0.000 C 
ENDBRANCH   3  14
BRANCH   5  17
ATOM     17  C   UNL     1       1.493   4.014  18.033  0.00  0.00    +0.000 C 
ATOM     18  C   UNL     1       1.349   2.540  18.333  0.00  0.00    +0.000 C 
ATOM     19  C   UNL     1       1.107   3.538  19.417  0.00  0.00    +0.000 C 
ENDBRANCH   5  17
TORSDOF 3
ENDMDL
MODEL 6
REMARK VINA RESULT:      -7.3      0.761      1.738
REMARK  Name = 
REMARK  5 active torsions:
REMARK  status: ('A' for Active; 'I' for Inactive)
REMARK    1  A    between atoms: C_1  and  C_2
REMARK    2  A    between atoms: C_5  and  N_6
REMARK    3  A    between atoms: C_8  and  C_9
REMARK    4  A    between atoms: C_13  and  C_14
REMARK    5  A    between atoms: C_17  and  C_18
REMARK                            x       y       z     vdW  Elec       q    Type
REMARK                         _______ _______ _______ _____ _____    ______ ____
ROOT
ATOM      1  N   UNL     1       5.286   4.720  16.260  0.00  0.00    +0.000 N 
ATOM      2  N   UNL     1       5.006   4.512  14.948  0.00  0.00    +0.000 NA
ATOM      3  C   UNL     1       6.217   4.431  14.397  0.00  0.00    +0.000 A 
ATOM      4  N   UNL     1       7.259   4.610  15.255  0.00  0.00    +0.000 NA
ATOM      5  C   UNL     1       6.670   4.742  16.424  0.00  0.00    +0.000 A 
ENDROOT
BRANCH   1  10
ATOM      6  C   UNL     1       1.594   5.885  20.503  0.00  0.00    +0.000 C 
ATOM      7  C   UNL     1       2.474   5.571  19.331  0.00  0.00    +0.000 A 
ATOM      8  C   UNL     1       3.038   6.585  18.567  0.00  0.00    +0.000 A 
ATOM      9  C   UNL     1       3.915   6.271  17.529  0.00  0.00    +0.000 A 
ATOM     10  C   UNL     1       4.272   4.938  17.240  0.00  0.00    +0.000 A 
ATOM     11  C   UNL     1       3.635   3.895  17.945  0.00  0.00    +0.000 A 
ATOM     12  C   UNL     1       3.827   2.416  17.730  0.00  0.00    +0.000 C 
ATOM     13  C   UNL     1       2.743   4.241  18.987  0.00  0.00    +0.000 A 
ENDBRANCH   1  10
BRANCH   3  14
ATOM     14  C   UNL     1       6.409   4.139  12.917  0.00  0.00    +0.000 C 
ATOM     15  C   UNL     1       6.261   2.707  12.440  0.00  0.00    +0.000 C 
ATOM     16  C   UNL     1       5.208   3.704  12.098  0.00  0.00    +0.000 C 
ENDBRANCH   3  14
BRANCH   5  17
ATOM     17  C   UNL     1       7.459   4.804  17.729  0.00  0.00    +0.000 C 
ATOM     18  C   UNL     1       7.818   6.143  18.330  0.00  0.00    +0.000 C 
ATOM     19  C   UNL     1       6.729   5.330  18.947  0.00  0.00    +0.000 C 
ENDBRANCH   5  17
TORSDOF 3
ENDMDL
MODEL 7
REMARK VINA RESULT:      -7.2      2.838      4.861
REMARK  Name = 
REMARK  5 active torsions:
REMARK  status: ('A' for Active; 'I' for Inactive)
REMARK    1  A    between atoms: C_1  and  C_2
REMARK    2  A    between atoms: C_5  and  N_6
REMARK    3  A    between atoms: C_8  and  C_9
REMARK    4  A    between atoms: C_13  and  C_14
REMARK    5  A    between atoms: C_17  and  C_18
REMARK                            x       y       z     vdW  Elec       q    Type
REMARK                         _______ _______ _______ _____ _____    ______ ____
ROOT
ATOM      1  N   UNL     1       3.094   6.385  18.383  0.00  0.00    +0.000 N 
ATOM      2  N   UNL     1       4.318   6.705  17.891  0.00  0.00    +0.000 NA
ATOM      3  C   UNL     1       4.673   5.598  17.238  0.00  0.00    +0.000 A 
ATOM      4  N   UNL     1       3.780   4.572  17.305  0.00  0.00    +0.000 NA
ATOM      5  C   UNL     1       2.776   5.089  17.981  0.00  0.00    +0.000 A 
ENDROOT
BRANCH   1  10
ATOM      6  C   UNL     1      -0.308   9.509  21.797  0.00  0.00    +0.000 C 
ATOM      7  C   UNL     1       0.661   8.752  20.939  0.00  0.00    +0.000 A 
ATOM      8  C   UNL     1       1.228   7.563  21.380  0.00  0.00    +0.000 A 
ATOM      9  C   UNL     1       2.069   6.836  20.537  0.00  0.00    +0.000 A 
ATOM     10  C   UNL     1       2.346   7.264  19.222  0.00  0.00    +0.000 A 
ATOM     11  C   UNL     1       1.853   8.515  18.794  0.00  0.00    +0.000 A 
ATOM     12  C   UNL     1       2.102   9.171  17.462  0.00  0.00    +0.000 C 
ATOM     13  C   UNL     1       1.011   9.236  19.673  0.00  0.00    +0.000 A 
ENDBRANCH   1  10
BRANCH   3  14
ATOM     14  C   UNL     1       5.975   5.507  16.459  0.00  0.00    +0.000 C 
ATOM     15  C   UNL     1       7.194   6.225  17.004  0.00  0.00    +0.000 C 
ATOM     16  C   UNL     1       7.135   4.738  17.064  0.00  0.00    +0.000 C 
ENDBRANCH   3  14
BRANCH   5  17
ATOM     17  C   UNL     1       1.455   4.346  18.168  0.00  0.00    +0.000 C 
ATOM     18  C   UNL     1       1.444   2.838  18.253  0.00  0.00    +0.000 C 
ATOM     19  C   UNL     1       1.245   3.645  19.493  0.00  0.00    +0.000 C 
ENDBRANCH   5  17
TORSDOF 3
ENDMDL
MODEL 8
REMARK VINA RESULT:      -7.2      1.052      1.277
REMARK  Name = 
REMARK  5 active torsions:
REMARK  status: ('A' for Active; 'I' for Inactive)
REMARK    1  A    between atoms: C_1  and  C_2
REMARK    2  A    between atoms: C_5  and  N_6
REMARK    3  A    between atoms: C_8  and  C_9
REMARK    4  A    between atoms: C_13  and  C_14
REMARK    5  A    between atoms: C_17  and  C_18
REMARK                            x       y       z     vdW  Elec       q    Type
REMARK                         _______ _______ _______ _____ _____    ______ ____
ROOT
ATOM      1  N   UNL     1       4.859   4.757  17.075  0.00  0.00    +0.000 N 
ATOM      2  N   UNL     1       4.591   4.318  15.820  0.00  0.00    +0.000 NA
ATOM      3  C   UNL     1       5.535   4.913  15.091  0.00  0.00    +0.000 A 
ATOM      4  N   UNL     1       6.371   5.736  15.783  0.00  0.00    +0.000 NA
ATOM      5  C   UNL     1       5.972   5.595  17.029  0.00  0.00    +0.000 A 
ENDROOT
BRANCH   1  10
ATOM      6  C   UNL     1       1.379   2.985  21.288  0.00  0.00    +0.000 C 
ATOM      7  C   UNL     1       2.348   3.491  20.263  0.00  0.00    +0.000 A 
ATOM      8  C   UNL     1       3.370   2.681  19.782  0.00  0.00    +0.000 A 
ATOM      9  C   UNL     1       4.214   3.146  18.774  0.00  0.00    +0.000 A 
ATOM     10  C   UNL     1       4.045   4.423  18.200  0.00  0.00    +0.000 A 
ATOM     11  C   UNL     1       3.073   5.290  18.741  0.00  0.00    +0.000 A 
ATOM     12  C   UNL     1       2.797   6.708  18.315  0.00  0.00    +0.000 C 
ATOM     13  C   UNL     1       2.238   4.797  19.770  0.00  0.00    +0.000 A 
ENDBRANCH   1  10
BRANCH   3  14
ATOM     14  C   UNL     1       5.673   4.666  13.597  0.00  0.00    +0.000 C 
ATOM     15  C   UNL     1       7.066   4.554  13.010  0.00  0.00    +0.000 C 
ATOM     16  C   UNL     1       6.221   3.333  13.126  0.00  0.00    +0.000 C 
ENDBRANCH   3  14
BRANCH   5  17
ATOM     17  C   UNL     1       6.731   6.213  18.200  0.00  0.00    +0.000 C 
ATOM     18  C   UNL     1       6.787   5.492  19.527  0.00  0.00    +0.000 C 
ATOM     19  C   UNL     1       7.993   5.507  18.647  0.00  0.00    +0.000 C 
ENDBRANCH   5  17
TORSDOF 3
ENDMDL
MODEL 9
REMARK VINA RESULT:      -7.1      1.828      6.008
REMARK  Name = 
REMARK  5 active torsions:
REMARK  status: ('A' for Active; 'I' for Inactive)
REMARK    1  A    between atoms: C_1  and  C_2
REMARK    2  A    between atoms: C_5  and  N_6
REMARK    3  A    between atoms: C_8  and  C_9
REMARK    4  A    between atoms: C_13  and  C_14
REMARK    5  A    between atoms: C_17  and  C_18
REMARK                            x       y       z     vdW  Elec       q    Type
REMARK                         _______ _______ _______ _____ _____    ______ ____
ROOT
ATOM      1  N   UNL     1       4.142   4.631  17.901  0.00  0.00    +0.000 N 
ATOM      2  N   UNL     1       4.224   3.553  18.722  0.00  0.00    +0.000 NA
ATOM      3  C   UNL     1       3.280   3.800  19.629  0.00  0.00    +0.000 A 
ATOM      4  N   UNL     1       2.619   4.981  19.474  0.00  0.00    +0.000 NA
ATOM      5  C   UNL     1       3.131   5.471  18.365  0.00  0.00    +0.000 A 
ENDROOT
BRANCH   1  10
ATOM      6  C   UNL     1       7.727   4.877  13.420  0.00  0.00    +0.000 C 
ATOM      7  C   UNL     1       6.760   4.910  14.565  0.00  0.00    +0.000 A 
ATOM      8  C   UNL     1       5.484   4.375  14.439  0.00  0.00    +0.000 A 
ATOM      9  C   UNL     1       4.627   4.349  15.539  0.00  0.00    +0.000 A 
ATOM     10  C   UNL     1       5.029   4.833  16.801  0.00  0.00    +0.000 A 
ATOM     11  C   UNL     1       6.285   5.463  16.920  0.00  0.00    +0.000 A 
ATOM     12  C   UNL     1       6.856   6.104  18.158  0.00  0.00    +0.000 C 
ATOM     13  C   UNL     1       7.131   5.485  15.786  0.00  0.00    +0.000 A 
ENDBRANCH   1  10
BRANCH   3  14
ATOM     14  C   UNL     1       2.957   2.816  20.742  0.00  0.00    +0.000 C 
ATOM     15  C   UNL     1       2.109   3.294  21.904  0.00  0.00    +0.000 C 
ATOM     16  C   UNL     1       1.523   2.351  20.911  0.00  0.00    +0.000 C 
ENDBRANCH   3  14
BRANCH   5  17
ATOM     17  C   UNL     1       2.574   6.727  17.699  0.00  0.00    +0.000 C 
ATOM     18  C   UNL     1       2.220   7.931  18.539  0.00  0.00    +0.000 C 
ATOM     19  C   UNL     1       3.459   7.955  17.707  0.00  0.00    +0.000 C 
ENDBRANCH   5  17
TORSDOF 3
ENDMDL
