MODEL 1
REMARK VINA RESULT:      -7.9      0.000      0.000
REMARK  Name = 
REMARK  11 active torsions:
REMARK  status: ('A' for Active; 'I' for Inactive)
REMARK    1  A    between atoms: C_1  and  O_2
REMARK    2  A    between atoms: O_2  and  C_3
REMARK    3  A    between atoms: C_6  and  C_7
REMARK    4  A    between atoms: C_7  and  C_8
REMARK    5  A    between atoms: N_10  and  C_11
REMARK    6  A    between atoms: C_11  and  C_12
REMARK    7  A    between atoms: C_11  and  C_17
REMARK    8  A    between atoms: C_12  and  C_13
REMARK    9  A    between atoms: C_13  and  N_14
REMARK   10  A    between atoms: N_14  and  C_15
REMARK   11  A    between atoms: N_14  and  C_16
REMARK                            x       y       z     vdW  Elec       q    Type
REMARK                         _______ _______ _______ _____ _____    ______ ____
ROOT
ATOM      1  C   UNL     1       2.636   5.736  19.426  0.00  0.00    +0.000 C 
ENDROOT
BRANCH   1   2
ATOM      2  C   UNL     1       2.201   7.195  19.351  0.00  0.00    +0.000 A 
ATOM      3  C   UNL     1       2.296   7.867  18.122  0.00  0.00    +0.000 A 
ATOM      4  C   UNL     1       1.733   9.132  17.949  0.00  0.00    +0.000 A 
ATOM      5  C   UNL     1       1.067   9.772  19.007  0.00  0.00    +0.000 A 
ATOM      6  C   UNL     1       0.405  10.994  18.826  0.00  0.00    +0.000 A 
ATOM      7  C   UNL     1      -0.246  11.616  19.891  0.00  0.00    +0.000 A 
ATOM      8  C   UNL     1      -0.211  11.041  21.159  0.00  0.00    +0.000 A 
ATOM      9  C   UNL     1       0.429   9.816  21.349  0.00  0.00    +0.000 A 
ATOM     10  C   UNL     1       1.045   9.153  20.274  0.00  0.00    +0.000 A 
ATOM     11  C   UNL     1       1.602   7.872  20.428  0.00  0.00    +0.000 A 
ENDBRANCH   1   2
BRANCH   1  14
ATOM     12  C   UNL     1       4.565   4.695  18.252  0.00  0.00    +0.000 C 
ATOM     13  O   UNL     1       3.847   4.073  17.470  0.00  0.00    +0.000 OA
ATOM     14  N   UNL     1       4.069   5.555  19.211  0.00  0.00    +0.000 N 
ATOM     15  H   UNL     1       4.708   5.854  19.928  0.00  0.00    +0.000 HD
BRANCH  12  16
ATOM     16  C   UNL     1       6.082   4.579  18.240  0.00  0.00    +0.000 C 
BRANCH  16  20
ATOM     17  C   UNL     1       8.076   8.413  17.947  0.00  0.00    +0.000 A 
ATOM     18  C   UNL     1       8.486   7.469  18.889  0.00  0.00    +0.000 A 
ATOM     19  C   UNL     1       7.853   6.225  18.972  0.00  0.00    +0.000 A 
ATOM     20  C   UNL     1       6.780   5.915  18.130  0.00  0.00    +0.000 A 
ATOM     21  C   UNL     1       6.384   6.860  17.173  0.00  0.00    +0.000 A 
ATOM     22  C   UNL     1       7.025   8.102  17.084  0.00  0.00    +0.000 A 
BRANCH  17  24
ATOM     23  C   UNL     1       9.211  10.019  19.271  0.00  0.00    +0.000 C 
ATOM     24  O   UNL     1       8.748   9.604  17.993  0.00  0.00    +0.000 OA
ENDBRANCH  17  24
ENDBRANCH  16  20
ENDBRANCH  12  16
ENDBRANCH   1  14
BRANCH   1  25
ATOM     25  C   UNL     1       2.146   5.067  20.736  0.00  0.00    +0.000 C 
BRANCH  25  26
ATOM     26  C   UNL     1       1.027   4.032  20.520  0.00  0.00    +0.000 C 
BRANCH  26  27
ATOM     27  N   UNL     1       1.446   2.621  20.628  0.00  0.00    +0.000 NA
ATOM     28  C   UNL     1       1.716   2.015  19.324  0.00  0.00    +0.000 C 
ATOM     29  C   UNL     1       2.646   2.535  21.468  0.00  0.00    +0.000 C 
ENDBRANCH  26  27
ENDBRANCH  25  26
ENDBRANCH   1  25
TORSDOF 8
ENDMDL
MODEL 2
REMARK VINA RESULT:      -7.8      0.684      1.172
REMARK  Name = 
REMARK  11 active torsions:
REMARK  status: ('A' for Active; 'I' for Inactive)
REMARK    1  A    between atoms: C_1  and  O_2
REMARK    2  A    between atoms: O_2  and  C_3
REMARK    3  A    between atoms: C_6  and  C_7
REMARK    4  A    between atoms: C_7  and  C_8
REMARK    5  A    between atoms: N_10  and  C_11
REMARK    6  A    between atoms: C_11  and  C_12
REMARK    7  A    between atoms: C_11  and  C_17
REMARK    8  A    between atoms: C_12  and  C_13
REMARK    9  A    between atoms: C_13  and  N_14
REMARK   10  A    between atoms: N_14  and  C_15
REMARK   11  A    between atoms: N_14  and  C_16
REMARK                            x       y       z     vdW  Elec       q    Type
REMARK                         _______ _______ _______ _____ _____    ______ ____
ROOT
ATOM      1  C   UNL     1       2.396   5.708  19.223  0.00  0.00    +0.000 C 
ENDROOT
BRANCH   1   2
ATOM      2  C   UNL     1       2.082   7.200  19.262  0.00  0.00    +0.000 A 
ATOM      3  C   UNL     1       2.263   7.959  18.096  0.00  0.00    +0.000 A 
ATOM      4  C   UNL     1       1.809   9.277  18.018  0.00  0.00    +0.000 A 
ATOM      5  C   UNL     1       1.170   9.880  19.113  0.00  0.00    +0.000 A 
ATOM      6  C   UNL     1       0.614  11.164  19.022  0.00  0.00    +0.000 A 
ATOM      7  C   UNL     1      -0.012  11.748  20.123  0.00  0.00    +0.000 A 
ATOM      8  C   UNL     1      -0.056  11.071  21.339  0.00  0.00    +0.000 A 
ATOM      9  C   UNL     1       0.477   9.786  21.438  0.00  0.00    +0.000 A 
ATOM     10  C   UNL     1       1.066   9.164  20.323  0.00  0.00    +0.000 A 
ATOM     11  C   UNL     1       1.513   7.834  20.380  0.00  0.00    +0.000 A 
ENDBRANCH   1   2
BRANCH   1  14
ATOM     12  C   UNL     1       3.791   4.497  17.558  0.00  0.00    +0.000 C 
ATOM     13  O   UNL     1       2.824   3.922  17.059  0.00  0.00    +0.000 OA
ATOM     14  N   UNL     1       3.676   5.410  18.588  0.00  0.00    +0.000 N 
ATOM     15  H   UNL     1       4.524   5.668  19.063  0.00  0.00    +0.000 HD
BRANCH  12  16
ATOM     16  C   UNL     1       5.218   4.260  17.088  0.00  0.00    +0.000 C 
BRANCH  16  20
ATOM     17  C   UNL     1       7.995   7.314  18.400  0.00  0.00    +0.000 A 
ATOM     18  C   UNL     1       7.142   7.545  17.321  0.00  0.00    +0.000 A 
ATOM     19  C   UNL     1       6.234   6.566  16.908  0.00  0.00    +0.000 A 
ATOM     20  C   UNL     1       6.183   5.326  17.553  0.00  0.00    +0.000 A 
ATOM     21  C   UNL     1       7.029   5.105  18.648  0.00  0.00    +0.000 A 
ATOM     22  C   UNL     1       7.932   6.091  19.068  0.00  0.00    +0.000 A 
BRANCH  17  24
ATOM     23  C   UNL     1       8.488   9.626  18.220  0.00  0.00    +0.000 C 
ATOM     24  O   UNL     1       8.862   8.334  18.679  0.00  0.00    +0.000 OA
ENDBRANCH  17  24
ENDBRANCH  16  20
ENDBRANCH  12  16
ENDBRANCH   1  14
BRANCH   1  25
ATOM     25  C   UNL     1       2.271   5.067  20.630  0.00  0.00    +0.000 C 
BRANCH  25  26
ATOM     26  C   UNL     1       1.209   3.956  20.709  0.00  0.00    +0.000 C 
BRANCH  26  27
ATOM     27  N   UNL     1       1.733   2.578  20.630  0.00  0.00    +0.000 NA
ATOM     28  C   UNL     1       1.534   1.978  19.310  0.00  0.00    +0.000 C 
ATOM     29  C   UNL     1       3.164   2.585  20.955  0.00  0.00    +0.000 C 
ENDBRANCH  26  27
ENDBRANCH  25  26
ENDBRANCH   1  25
TORSDOF 8
ENDMDL
MODEL 3
REMARK VINA RESULT:      -7.5      0.799      1.077
REMARK  Name = 
REMARK  11 active torsions:
REMARK  status: ('A' for Active; 'I' for Inactive)
REMARK    1  A    between atoms: C_1  and  O_2
REMARK    2  A    between atoms: O_2  and  C_3
REMARK    3  A    between atoms: C_6  and  C_7
REMARK    4  A    between atoms: C_7  and  C_8
REMARK    5  A    between atoms: N_10  and  C_11
REMARK    6  A    between atoms: C_11  and  C_12
REMARK    7  A    between atoms: C_11  and  C_17
REMARK    8  A    between atoms: C_12  and  C_13
REMARK    9  A    between atoms: C_13  and  N_14
REMARK   10  A    between atoms: N_14  and  C_15
REMARK   11  A    between atoms: N_14  and  C_16
REMARK                            x       y       z     vdW  Elec       q    Type
REMARK                         _______ _______ _______ _____ _____    ______ ____
ROOT
ATOM      1  C   UNL     1       2.402   6.132  18.958  0.00  0.00    +0.000 C 
ENDROOT
BRANCH   1   2
ATOM      2  C   UNL     1       2.103   7.626  19.014  0.00  0.00    +0.000 A 
ATOM      3  C   UNL     1       2.325   8.403  17.866  0.00  0.00    +0.000 A 
ATOM      4  C   UNL     1       1.887   9.727  17.799  0.00  0.00    +0.000 A 
ATOM      5  C   UNL     1       1.223  10.319  18.885  0.00  0.00    +0.000 A 
ATOM      6  C   UNL     1       0.683  11.610  18.800  0.00  0.00    +0.000 A 
ATOM      7  C   UNL     1       0.032  12.182  19.893  0.00  0.00    +0.000 A 
ATOM      8  C   UNL     1      -0.055  11.484  21.095  0.00  0.00    +0.000 A 
ATOM      9  C   UNL     1       0.462  10.193  21.187  0.00  0.00    +0.000 A 
ATOM     10  C   UNL     1       1.076   9.583  20.079  0.00  0.00    +0.000 A 
ATOM     11  C   UNL     1       1.508   8.247  20.126  0.00  0.00    +0.000 A 
ENDBRANCH   1   2
BRANCH   1  14
ATOM     12  C   UNL     1       3.799   4.702  17.479  0.00  0.00    +0.000 C 
ATOM     13  O   UNL     1       2.879   3.919  17.245  0.00  0.00    +0.000 OA
ATOM     14  N   UNL     1       3.652   5.825  18.269  0.00  0.00    +0.000 N 
ATOM     15  H   UNL     1       4.496   6.284  18.568  0.00  0.00    +0.000 HD
BRANCH  12  16
ATOM     16  C   UNL     1       5.200   4.511  16.918  0.00  0.00    +0.000 C 
BRANCH  16  20
ATOM     17  C   UNL     1       7.987   7.540  18.267  0.00  0.00    +0.000 A 
ATOM     18  C   UNL     1       7.940   6.290  18.886  0.00  0.00    +0.000 A 
ATOM     19  C   UNL     1       7.053   5.307  18.440  0.00  0.00    +0.000 A 
ATOM     20  C   UNL     1       6.176   5.568  17.381  0.00  0.00    +0.000 A 
ATOM     21  C   UNL     1       6.240   6.818  16.751  0.00  0.00    +0.000 A 
ATOM     22  C   UNL     1       7.137   7.799  17.192  0.00  0.00    +0.000 A 
BRANCH  17  24
ATOM     23  C   UNL     1       8.712   9.790  18.451  0.00  0.00    +0.000 C 
ATOM     24  O   UNL     1       8.869   8.426  18.822  0.00  0.00    +0.000 OA
ENDBRANCH  17  24
ENDBRANCH  16  20
ENDBRANCH  12  16
ENDBRANCH   1  14
BRANCH   1  25
ATOM     25  C   UNL     1       2.331   5.488  20.367  0.00  0.00    +0.000 C 
BRANCH  25  26
ATOM     26  C   UNL     1       1.195   4.460  20.519  0.00  0.00    +0.000 C 
BRANCH  26  27
ATOM     27  N   UNL     1       1.608   3.047  20.420  0.00  0.00    +0.000 NA
ATOM     28  C   UNL     1       1.553   2.355  21.708  0.00  0.00    +0.000 C 
ATOM     29  C   UNL     1       0.746   2.356  19.454  0.00  0.00    +0.000 C 
ENDBRANCH  26  27
ENDBRANCH  25  26
ENDBRANCH   1  25
TORSDOF 8
ENDMDL
MODEL 4
REMARK VINA RESULT:      -7.1      1.195      1.622
REMARK  Name = 
REMARK  11 active torsions:
REMARK  status: ('A' for Active; 'I' for Inactive)
REMARK    1  A    between atoms: C_1  and  O_2
REMARK    2  A    between atoms: O_2  and  C_3
REMARK    3  A    between atoms: C_6  and  C_7
REMARK    4  A    between atoms: C_7  and  C_8
REMARK    5  A    between atoms: N_10  and  C_11
REMARK    6  A    between atoms: C_11  and  C_12
REMARK    7  A    between atoms: C_11  and  C_17
REMARK    8  A    between atoms: C_12  and  C_13
REMARK    9  A    between atoms: C_13  and  N_14
REMARK   10  A    between atoms: N_14  and  C_15
REMARK   11  A    between atoms: N_14  and  C_16
REMARK                            x       y       z     vdW  Elec       q    Type
REMARK                         _______ _______ _______ _____ _____    ______ ____
ROOT
ATOM      1  C   UNL     1       2.696   5.609  17.963  0.00  0.00    +0.000 C 
ENDROOT
BRANCH   1   2
ATOM      2  C   UNL     1       2.379   6.998  18.506  0.00  0.00    +0.000 A 
ATOM      3  C   UNL     1       2.380   8.086  17.619  0.00  0.00    +0.000 A 
ATOM      4  C   UNL     1       1.908   9.338  18.017  0.00  0.00    +0.000 A 
ATOM      5  C   UNL     1       1.431   9.543  19.321  0.00  0.00    +0.000 A 
ATOM      6  C   UNL     1       0.856  10.761  19.710  0.00  0.00    +0.000 A 
ATOM      7  C   UNL     1       0.394  10.946  21.013  0.00  0.00    +0.000 A 
ATOM      8  C   UNL     1       0.533   9.928  21.952  0.00  0.00    +0.000 A 
ATOM      9  C   UNL     1       1.087   8.706  21.574  0.00  0.00    +0.000 A 
ATOM     10  C   UNL     1       1.511   8.486  20.252  0.00  0.00    +0.000 A 
ATOM     11  C   UNL     1       1.973   7.228  19.832  0.00  0.00    +0.000 A 
ENDBRANCH   1   2
BRANCH   1  14
ATOM     12  C   UNL     1       4.517   4.393  16.784  0.00  0.00    +0.000 C 
ATOM     13  O   UNL     1       3.758   3.524  16.356  0.00  0.00    +0.000 OA
ATOM     14  N   UNL     1       4.086   5.464  17.541  0.00  0.00    +0.000 N 
ATOM     15  H   UNL     1       4.794   6.001  18.012  0.00  0.00    +0.000 HD
BRANCH  12  16
ATOM     16  C   UNL     1       6.015   4.376  16.518  0.00  0.00    +0.000 C 
BRANCH  16  20
ATOM     17  C   UNL     1       8.153   7.584  18.491  0.00  0.00    +0.000 A 
ATOM     18  C   UNL     1       7.496   7.807  17.280  0.00  0.00    +0.000 A 
ATOM     19  C   UNL     1       6.792   6.776  16.652  0.00  0.00    +0.000 A 
ATOM     20  C   UNL     1       6.755   5.495  17.213  0.00  0.00    +0.000 A 
ATOM     21  C   UNL     1       7.401   5.281  18.439  0.00  0.00    +0.000 A 
ATOM     22  C   UNL     1       8.098   6.318  19.072  0.00  0.00    +0.000 A 
BRANCH  17  24
ATOM     23  C   UNL     1       8.669   9.889  18.287  0.00  0.00    +0.000 C 
ATOM     24  O   UNL     1       8.837   8.661  18.983  0.00  0.00    +0.000 OA
ENDBRANCH  17  24
ENDBRANCH  16  20
ENDBRANCH  12  16
ENDBRANCH   1  14
BRANCH   1  25
ATOM     25  C   UNL     1       2.263   4.501  18.958  0.00  0.00    +0.000 C 
BRANCH  25  26
ATOM     26  C   UNL     1       3.407   3.996  19.856  0.00  0.00    +0.000 C 
BRANCH  26  27
ATOM     27  N   UNL     1       3.252   2.616  20.356  0.00  0.00    +0.000 NA
ATOM     28  C   UNL     1       4.538   1.956  20.584  0.00  0.00    +0.000 C 
ATOM     29  C   UNL     1       2.482   2.636  21.605  0.00  0.00    +0.000 C 
ENDBRANCH  26  27
ENDBRANCH  25  26
ENDBRANCH   1  25
TORSDOF 8
ENDMDL
MODEL 5
REMARK VINA RESULT:      -7.1      1.106      1.960
REMARK  Name = 
REMARK  11 active torsions:
REMARK  status: ('A' for Active; 'I' for Inactive)
REMARK    1  A    between atoms: C_1  and  O_2
REMARK    2  A    between atoms: O_2  and  C_3
REMARK    3  A    between atoms: C_6  and  C_7
REMARK    4  A    between atoms: C_7  and  C_8
REMARK    5  A    between atoms: N_10  and  C_11
REMARK    6  A    between atoms: C_11  and  C_12
REMARK    7  A    between atoms: C_11  and  C_17
REMARK    8  A    between atoms: C_12  and  C_13
REMARK    9  A    between atoms: C_13  and  N_14
REMARK   10  A    between atoms: N_14  and  C_15
REMARK   11  A    between atoms: N_14  and  C_16
REMARK                            x       y       z     vdW  Elec       q    Type
REMARK                         _______ _______ _______ _____ _____    ______ ____
ROOT
ATOM      1  C   UNL     1       3.222   4.855  18.764  0.00  0.00    +0.000 C 
ENDROOT
BRANCH   1   2
ATOM      2  C   UNL     1       2.485   6.139  19.126  0.00  0.00    +0.000 A 
ATOM      3  C   UNL     1       1.920   6.257  20.405  0.00  0.00    +0.000 A 
ATOM      4  C   UNL     1       1.409   7.475  20.856  0.00  0.00    +0.000 A 
ATOM      5  C   UNL     1       1.437   8.613  20.034  0.00  0.00    +0.000 A 
ATOM      6  C   UNL     1       1.026   9.869  20.503  0.00  0.00    +0.000 A 
ATOM      7  C   UNL     1       1.057  10.985  19.669  0.00  0.00    +0.000 A 
ATOM      8  C   UNL     1       1.463  10.853  18.344  0.00  0.00    +0.000 A 
ATOM      9  C   UNL     1       1.890   9.613  17.869  0.00  0.00    +0.000 A 
ATOM     10  C   UNL     1       1.914   8.489  18.713  0.00  0.00    +0.000 A 
ATOM     11  C   UNL     1       2.439   7.261  18.279  0.00  0.00    +0.000 A 
ENDBRANCH   1   2
BRANCH   1  14
ATOM     12  C   UNL     1       4.785   4.340  16.899  0.00  0.00    +0.000 C 
ATOM     13  O   UNL     1       4.056   3.466  16.432  0.00  0.00    +0.000 OA
ATOM     14  N   UNL     1       4.447   5.092  18.007  0.00  0.00    +0.000 N 
ATOM     15  H   UNL     1       5.183   5.630  18.433  0.00  0.00    +0.000 HD
BRANCH  12  16
ATOM     16  C   UNL     1       6.140   4.682  16.300  0.00  0.00    +0.000 C 
BRANCH  16  20
ATOM     17  C   UNL     1       8.182   7.843  18.444  0.00  0.00    +0.000 A 
ATOM     18  C   UNL     1       8.253   6.522  18.888  0.00  0.00    +0.000 A 
ATOM     19  C   UNL     1       7.608   5.500  18.186  0.00  0.00    +0.000 A 
ATOM     20  C   UNL     1       6.858   5.787  17.041  0.00  0.00    +0.000 A 
ATOM     21  C   UNL     1       6.804   7.112  16.590  0.00  0.00    +0.000 A 
ATOM     22  C   UNL     1       7.459   8.135  17.288  0.00  0.00    +0.000 A 
BRANCH  17  24
ATOM     23  C   UNL     1       8.950  10.070  18.717  0.00  0.00    +0.000 C 
ATOM     24  O   UNL     1       8.822   8.754  19.239  0.00  0.00    +0.000 OA
ENDBRANCH  17  24
ENDBRANCH  16  20
ENDBRANCH  12  16
ENDBRANCH   1  14
BRANCH   1  25
ATOM     25  C   UNL     1       3.462   3.969  20.014  0.00  0.00    +0.000 C 
BRANCH  25  26
ATOM     26  C   UNL     1       3.082   2.492  19.806  0.00  0.00    +0.000 C 
BRANCH  26  27
ATOM     27  N   UNL     1       1.684   2.151  20.132  0.00  0.00    +0.000 NA
ATOM     28  C   UNL     1       1.223   2.791  21.364  0.00  0.00    +0.000 C 
ATOM     29  C   UNL     1       0.815   2.548  19.018  0.00  0.00    +0.000 C 
ENDBRANCH  26  27
ENDBRANCH  25  26
ENDBRANCH   1  25
TORSDOF 8
ENDMDL
MODEL 6
REMARK VINA RESULT:      -7.0      3.427      6.419
REMARK  Name = 
REMARK  11 active torsions:
REMARK  status: ('A' for Active; 'I' for Inactive)
REMARK    1  A    between atoms: C_1  and  O_2
REMARK    2  A    between atoms: O_2  and  C_3
REMARK    3  A    between atoms: C_6  and  C_7
REMARK    4  A    between atoms: C_7  and  C_8
REMARK    5  A    between atoms: N_10  and  C_11
REMARK    6  A    between atoms: C_11  and  C_12
REMARK    7  A    between atoms: C_11  and  C_17
REMARK    8  A    between atoms: C_12  and  C_13
REMARK    9  A    between atoms: C_13  and  N_14
REMARK   10  A    between atoms: N_14  and  C_15
REMARK   11  A    between atoms: N_14  and  C_16
REMARK                            x       y       z     vdW  Elec       q    Type
REMARK                         _______ _______ _______ _____ _____    ______ ____
ROOT
ATOM      1  C   UNL     1       0.054   9.967  19.347  0.00  0.00    +0.000 C 
ENDROOT
BRANCH   1   2
ATOM      2  C   UNL     1      -1.174  10.498  18.616  0.00  0.00    +0.000 A 
ATOM      3  C   UNL     1      -1.413  10.073  17.300  0.00  0.00    +0.000 A 
ATOM      4  C   UNL     1      -2.617  10.369  16.657  0.00  0.00    +0.000 A 
ATOM      5  C   UNL     1      -3.615  11.111  17.308  0.00  0.00    +0.000 A 
ATOM      6  C   UNL     1      -4.869  11.329  16.721  0.00  0.00    +0.000 A 
ATOM      7  C   UNL     1      -5.844  12.074  17.382  0.00  0.00    +0.000 A 
ATOM      8  C   UNL     1      -5.565  12.641  18.623  0.00  0.00    +0.000 A 
ATOM      9  C   UNL     1      -4.328  12.417  19.226  0.00  0.00    +0.000 A 
ATOM     10  C   UNL     1      -3.353  11.626  18.594  0.00  0.00    +0.000 A 
ATOM     11  C   UNL     1      -2.144  11.306  19.235  0.00  0.00    +0.000 A 
ENDBRANCH   1   2
BRANCH   1  14
ATOM     12  C   UNL     1       1.948   8.423  18.885  0.00  0.00    +0.000 C 
ATOM     13  O   UNL     1       1.957   7.975  20.031  0.00  0.00    +0.000 OA
ATOM     14  N   UNL     1       1.037   9.366  18.451  0.00  0.00    +0.000 N 
ATOM     15  H   UNL     1       1.234   9.818  17.574  0.00  0.00    +0.000 HD
BRANCH  12  16
ATOM     16  C   UNL     1       2.944   7.981  17.824  0.00  0.00    +0.000 C 
BRANCH  16  20
ATOM     17  C   UNL     1       3.433   3.681  17.660  0.00  0.00    +0.000 A 
ATOM     18  C   UNL     1       2.161   4.249  17.738  0.00  0.00    +0.000 A 
ATOM     19  C   UNL     1       2.002   5.637  17.774  0.00  0.00    +0.000 A 
ATOM     20  C   UNL     1       3.118   6.481  17.759  0.00  0.00    +0.000 A 
ATOM     21  C   UNL     1       4.393   5.906  17.663  0.00  0.00    +0.000 A 
ATOM     22  C   UNL     1       4.550   4.514  17.617  0.00  0.00    +0.000 A 
BRANCH  17  24
ATOM     23  C   UNL     1       3.602   1.693  18.943  0.00  0.00    +0.000 C 
ATOM     24  O   UNL     1       3.455   2.313  17.672  0.00  0.00    +0.000 OA
ENDBRANCH  17  24
ENDBRANCH  16  20
ENDBRANCH  12  16
ENDBRANCH   1  14
BRANCH   1  25
ATOM     25  C   UNL     1       0.677  11.050  20.266  0.00  0.00    +0.000 C 
BRANCH  25  26
ATOM     26  C   UNL     1       0.606  10.704  21.764  0.00  0.00    +0.000 C 
BRANCH  26  27
ATOM     27  N   UNL     1      -0.116  11.681  22.602  0.00  0.00    +0.000 NA
ATOM     28  C   UNL     1      -0.301  12.968  21.929  0.00  0.00    +0.000 C 
ATOM     29  C   UNL     1      -1.424  11.129  22.973  0.00  0.00    +0.000 C 
ENDBRANCH  26  27
ENDBRANCH  25  26
ENDBRANCH   1  25
TORSDOF 8
ENDMDL
MODEL 7
REMARK VINA RESULT:      -6.9      3.265      7.362
REMARK  Name = 
REMARK  11 active torsions:
REMARK  status: ('A' for Active; 'I' for Inactive)
REMARK    1  A    between atoms: C_1  and  O_2
REMARK    2  A    between atoms: O_2  and  C_3
REMARK    3  A    between atoms: C_6  and  C_7
REMARK    4  A    between atoms: C_7  and  C_8
REMARK    5  A    between atoms: N_10  and  C_11
REMARK    6  A    between atoms: C_11  and  C_12
REMARK    7  A    between atoms: C_11  and  C_17
REMARK    8  A    between atoms: C_12  and  C_13
REMARK    9  A    between atoms: C_13  and  N_14
REMARK   10  A    between atoms: N_14  and  C_15
REMARK   11  A    between atoms: N_14  and  C_16
REMARK                            x       y       z     vdW  Elec       q    Type
REMARK                         _______ _______ _______ _____ _____    ______ ____
ROOT
ATOM      1  C   UNL     1       4.550   5.027  17.894  0.00  0.00    +0.000 C 
ENDROOT
BRANCH   1   2
ATOM      2  C   UNL     1       5.278   4.999  16.555  0.00  0.00    +0.000 A 
ATOM      3  C   UNL     1       6.570   5.543  16.477  0.00  0.00    +0.000 A 
ATOM      4  C   UNL     1       7.354   5.370  15.335  0.00  0.00    +0.000 A 
ATOM      5  C   UNL     1       6.865   4.657  14.230  0.00  0.00    +0.000 A 
ATOM      6  C   UNL     1       7.672   4.383  13.117  0.00  0.00    +0.000 A 
ATOM      7  C   UNL     1       7.164   3.678  12.026  0.00  0.00    +0.000 A 
ATOM      8  C   UNL     1       5.832   3.271  12.018  0.00  0.00    +0.000 A 
ATOM      9  C   UNL     1       5.023   3.523  13.126  0.00  0.00    +0.000 A 
ATOM     10  C   UNL     1       5.535   4.187  14.255  0.00  0.00    +0.000 A 
ATOM     11  C   UNL     1       4.764   4.355  15.416  0.00  0.00    +0.000 A 
ENDBRANCH   1   2
BRANCH   1  14
ATOM     12  C   UNL     1       3.222   7.129  17.871  0.00  0.00    +0.000 C 
ATOM     13  O   UNL     1       4.222   7.846  17.876  0.00  0.00    +0.000 OA
ATOM     14  N   UNL     1       3.283   5.750  17.841  0.00  0.00    +0.000 N 
ATOM     15  H   UNL     1       2.433   5.253  18.045  0.00  0.00    +0.000 HD
BRANCH  12  16
ATOM     16  C   UNL     1       1.809   7.693  17.894  0.00  0.00    +0.000 C 
BRANCH  16  20
ATOM     17  C   UNL     1       0.904   9.913  21.501  0.00  0.00    +0.000 A 
ATOM     18  C   UNL     1       1.221   8.555  21.563  0.00  0.00    +0.000 A 
ATOM     19  C   UNL     1       1.529   7.843  20.400  0.00  0.00    +0.000 A 
ATOM     20  C   UNL     1       1.500   8.472  19.151  0.00  0.00    +0.000 A 
ATOM     21  C   UNL     1       1.200   9.840  19.097  0.00  0.00    +0.000 A 
ATOM     22  C   UNL     1       0.901  10.556  20.264  0.00  0.00    +0.000 A 
BRANCH  17  24
ATOM     23  C   UNL     1      -0.564   9.967  23.363  0.00  0.00    +0.000 C 
ATOM     24  O   UNL     1       0.583  10.485  22.701  0.00  0.00    +0.000 OA
ENDBRANCH  17  24
ENDBRANCH  16  20
ENDBRANCH  12  16
ENDBRANCH   1  14
BRANCH   1  25
ATOM     25  C   UNL     1       4.391   3.600  18.481  0.00  0.00    +0.000 C 
BRANCH  25  26
ATOM     26  C   UNL     1       3.506   3.545  19.739  0.00  0.00    +0.000 C 
BRANCH  26  27
ATOM     27  N   UNL     1       2.052   3.563  19.486  0.00  0.00    +0.000 NA
ATOM     28  C   UNL     1       1.608   2.424  18.683  0.00  0.00    +0.000 C 
ATOM     29  C   UNL     1       1.337   3.569  20.767  0.00  0.00    +0.000 C 
ENDBRANCH  26  27
ENDBRANCH  25  26
ENDBRANCH   1  25
TORSDOF 8
ENDMDL
MODEL 8
REMARK VINA RESULT:      -6.9      3.257      7.911
REMARK  Name = 
REMARK  11 active torsions:
REMARK  status: ('A' for Active; 'I' for Inactive)
REMARK    1  A    between atoms: C_1  and  O_2
REMARK    2  A    between atoms: O_2  and  C_3
REMARK    3  A    between atoms: C_6  and  C_7
REMARK    4  A    between atoms: C_7  and  C_8
REMARK    5  A    between atoms: N_10  and  C_11
REMARK    6  A    between atoms: C_11  and  C_12
REMARK    7  A    between atoms: C_11  and  C_17
REMARK    8  A    between atoms: C_12  and  C_13
REMARK    9  A    between atoms: C_13  and  N_14
REMARK   10  A    between atoms: N_14  and  C_15
REMARK   11  A    between atoms: N_14  and  C_16
REMARK                            x       y       z     vdW  Elec       q    Type
REMARK                         _______ _______ _______ _____ _____    ______ ____
ROOT
ATOM      1  C   UNL     1       2.548   7.011  19.323  0.00  0.00    +0.000 C 
ENDROOT
BRANCH   1   2
ATOM      2  C   UNL     1       3.784   6.420  18.654  0.00  0.00    +0.000 A 
ATOM      3  C   UNL     1       4.639   5.606  19.414  0.00  0.00    +0.000 A 
ATOM      4  C   UNL     1       5.669   4.884  18.808  0.00  0.00    +0.000 A 
ATOM      5  C   UNL     1       5.883   4.964  17.423  0.00  0.00    +0.000 A 
ATOM      6  C   UNL     1       6.842   4.168  16.781  0.00  0.00    +0.000 A 
ATOM      7  C   UNL     1       7.043   4.267  15.405  0.00  0.00    +0.000 A 
ATOM      8  C   UNL     1       6.314   5.189  14.659  0.00  0.00    +0.000 A 
ATOM      9  C   UNL     1       5.344   5.974  15.283  0.00  0.00    +0.000 A 
ATOM     10  C   UNL     1       5.094   5.850  16.661  0.00  0.00    +0.000 A 
ATOM     11  C   UNL     1       4.051   6.557  17.281  0.00  0.00    +0.000 A 
ENDBRANCH   1   2
BRANCH   1  14
ATOM     12  C   UNL     1       1.313   9.168  19.408  0.00  0.00    +0.000 C 
ATOM     13  O   UNL     1       0.922   8.983  20.560  0.00  0.00    +0.000 OA
ATOM     14  N   UNL     1       2.137   8.285  18.739  0.00  0.00    +0.000 N 
ATOM     15  H   UNL     1       2.234   8.416  17.747  0.00  0.00    +0.000 HD
BRANCH  12  16
ATOM     16  C   UNL     1       0.928  10.398  18.601  0.00  0.00    +0.000 C 
BRANCH  16  20
ATOM     17  C   UNL     1      -3.348  10.760  18.009  0.00  0.00    +0.000 A 
ATOM     18  C   UNL     1      -2.682  11.592  18.910  0.00  0.00    +0.000 A 
ATOM     19  C   UNL     1      -1.300  11.487  19.088  0.00  0.00    +0.000 A 
ATOM     20  C   UNL     1      -0.563  10.527  18.386  0.00  0.00    +0.000 A 
ATOM     21  C   UNL     1      -1.233   9.705  17.470  0.00  0.00    +0.000 A 
ATOM     22  C   UNL     1      -2.618   9.819  17.284  0.00  0.00    +0.000 A 
BRANCH  17  24
ATOM     23  C   UNL     1      -5.177  11.933  17.061  0.00  0.00    +0.000 C 
ATOM     24  O   UNL     1      -4.703  10.935  17.956  0.00  0.00    +0.000 OA
ENDBRANCH  17  24
ENDBRANCH  16  20
ENDBRANCH  12  16
ENDBRANCH   1  14
BRANCH   1  25
ATOM     25  C   UNL     1       1.388   5.984  19.377  0.00  0.00    +0.000 C 
BRANCH  25  26
ATOM     26  C   UNL     1       1.470   5.023  20.577  0.00  0.00    +0.000 C 
BRANCH  26  27
ATOM     27  N   UNL     1       1.149   3.614  20.277  0.00  0.00    +0.000 NA
ATOM     28  C   UNL     1       1.906   3.097  19.137  0.00  0.00    +0.000 C 
ATOM     29  C   UNL     1       1.422   2.792  21.461  0.00  0.00    +0.000 C 
ENDBRANCH  26  27
ENDBRANCH  25  26
ENDBRANCH   1  25
TORSDOF 8
ENDMDL
MODEL 9
REMARK VINA RESULT:      -6.9      1.326      1.760
REMARK  Name = 
REMARK  11 active torsions:
REMARK  status: ('A' for Active; 'I' for Inactive)
REMARK    1  A    between atoms: C_1  and  O_2
REMARK    2  A    between atoms: O_2  and  C_3
REMARK    3  A    between atoms: C_6  and  C_7
REMARK    4  A    between atoms: C_7  and  C_8
REMARK    5  A    between atoms: N_10  and  C_11
REMARK    6  A    between atoms: C_11  and  C_12
REMARK    7  A    between atoms: C_11  and  C_17
REMARK    8  A    between atoms: C_12  and  C_13
REMARK    9  A    between atoms: C_13  and  N_14
REMARK   10  A    between atoms: N_14  and  C_15
REMARK   11  A    between atoms: N_14  and  C_16
REMARK                            x       y       z     vdW  Elec       q    Type
REMARK                         _______ _______ _______ _____ _____    ______ ____
ROOT
ATOM      1  C   UNL     1       1.899   5.274  19.881  0.00  0.00    +0.000 C 
ENDROOT
BRANCH   1   2
ATOM      2  C   UNL     1       1.719   6.781  20.021  0.00  0.00    +0.000 A 
ATOM      3  C   UNL     1       2.055   7.606  18.936  0.00  0.00    +0.000 A 
ATOM      4  C   UNL     1       1.728   8.963  18.937  0.00  0.00    +0.000 A 
ATOM      5  C   UNL     1       1.066   9.541  20.032  0.00  0.00    +0.000 A 
ATOM      6  C   UNL     1       0.636  10.875  20.009  0.00  0.00    +0.000 A 
ATOM      7  C   UNL     1      -0.015  11.431  21.110  0.00  0.00    +0.000 A 
ATOM      8  C   UNL     1      -0.211  10.671  22.260  0.00  0.00    +0.000 A 
ATOM      9  C   UNL     1       0.195   9.338  22.289  0.00  0.00    +0.000 A 
ATOM     10  C   UNL     1       0.807   8.748  21.169  0.00  0.00    +0.000 A 
ATOM     11  C   UNL     1       1.127   7.380  21.147  0.00  0.00    +0.000 A 
ENDBRANCH   1   2
BRANCH   1  14
ATOM     12  C   UNL     1       2.503   4.334  17.659  0.00  0.00    +0.000 C 
ATOM     13  O   UNL     1       1.329   4.152  17.336  0.00  0.00    +0.000 OA
ATOM     14  N   UNL     1       2.875   4.907  18.859  0.00  0.00    +0.000 N 
ATOM     15  H   UNL     1       3.843   4.827  19.120  0.00  0.00    +0.000 HD
BRANCH  12  16
ATOM     16  C   UNL     1       3.668   3.945  16.763  0.00  0.00    +0.000 C 
BRANCH  16  20
ATOM     17  C   UNL     1       6.998   6.704  17.013  0.00  0.00    +0.000 A 
ATOM     18  C   UNL     1       7.209   5.327  17.088  0.00  0.00    +0.000 A 
ATOM     19  C   UNL     1       6.136   4.436  16.990  0.00  0.00    +0.000 A 
ATOM     20  C   UNL     1       4.828   4.910  16.842  0.00  0.00    +0.000 A 
ATOM     21  C   UNL     1       4.624   6.294  16.750  0.00  0.00    +0.000 A 
ATOM     22  C   UNL     1       5.701   7.186  16.838  0.00  0.00    +0.000 A 
BRANCH  17  24
ATOM     23  C   UNL     1       7.943   8.747  17.757  0.00  0.00    +0.000 C 
ATOM     24  O   UNL     1       8.122   7.469  17.162  0.00  0.00    +0.000 OA
ENDBRANCH  17  24
ENDBRANCH  16  20
ENDBRANCH  12  16
ENDBRANCH   1  14
BRANCH   1  25
ATOM     25  C   UNL     1       2.201   4.610  21.250  0.00  0.00    +0.000 C 
BRANCH  25  26
ATOM     26  C   UNL     1       1.475   3.269  21.459  0.00  0.00    +0.000 C 
BRANCH  26  27
ATOM     27  N   UNL     1       2.183   2.083  20.939  0.00  0.00    +0.000 NA
ATOM     28  C   UNL     1       1.705   1.680  19.616  0.00  0.00    +0.000 C 
ATOM     29  C   UNL     1       3.622   2.367  20.877  0.00  0.00    +0.000 C 
ENDBRANCH  26  27
ENDBRANCH  25  26
ENDBRANCH   1  25
TORSDOF 8
ENDMDL
