MODEL 1
REMARK VINA RESULT:      -8.0      0.000      0.000
REMARK  Name = 
REMARK  7 active torsions:
REMARK  status: ('A' for Active; 'I' for Inactive)
REMARK    1  A    between atoms: C_2  and  O_3
REMARK    2  A    between atoms: C_2  and  C_4
REMARK    3  A    between atoms: C_4  and  C_5
REMARK    4  A    between atoms: C_5  and  N_6
REMARK    5  A    between atoms: C_11  and  N_12
REMARK    6  A    between atoms: N_12  and  S_13
REMARK    7  A    between atoms: S_13  and  C_16
REMARK                            x       y       z     vdW  Elec       q    Type
REMARK                         _______ _______ _______ _____ _____    ______ ____
ROOT
ATOM      1  N   UNL     1       1.282   9.770  19.807  0.00  0.00    +0.000 N 
ATOM      2  C   UNL     1       1.427  10.367  18.579  0.00  0.00    +0.000 A 
ATOM      3  C   UNL     1       1.942   9.436  17.709  0.00  0.00    +0.000 A 
ATOM      4  C   UNL     1       2.137   8.227  18.431  0.00  0.00    +0.000 A 
ATOM      5  C   UNL     1       2.652   6.959  18.081  0.00  0.00    +0.000 A 
ATOM      6  C   UNL     1       2.705   5.955  19.050  0.00  0.00    +0.000 A 
ATOM      7  C   UNL     1       2.262   6.194  20.347  0.00  0.00    +0.000 A 
ATOM      8  C   UNL     1       1.757   7.445  20.718  0.00  0.00    +0.000 A 
ATOM      9  C   UNL     1       1.703   8.455  19.744  0.00  0.00    +0.000 A 
ENDROOT
BRANCH   6  10
ATOM     10  N   UNL     1       3.207   4.663  18.735  0.00  0.00    +0.000 N 
ATOM     11  H   UNL     1       2.879   4.225  17.875  0.00  0.00    +0.000 HD
BRANCH  10  12
ATOM     12  S   UNL     1       4.839   4.323  19.016  0.00  0.00    +0.000 S 
ATOM     13  O   UNL     1       5.349   5.437  19.789  0.00  0.00    +0.000 OA
ATOM     14  O   UNL     1       4.974   2.965  19.496  0.00  0.00    +0.000 OA
BRANCH  12  15
ATOM     15  C   UNL     1       5.549   4.427  17.390  0.00  0.00    +0.000 A 
ATOM     16  C   UNL     1       6.905   4.736  17.231  0.00  0.00    +0.000 A 
ATOM     17  C   UNL     1       7.435   4.836  15.945  0.00  0.00    +0.000 A 
ATOM     18  C   UNL     1       6.614   4.617  14.841  0.00  0.00    +0.000 A 
ATOM     19  F   UNL     1       7.124   4.735  13.607  0.00  0.00    +0.000 F 
ATOM     20  C   UNL     1       5.272   4.283  14.995  0.00  0.00    +0.000 A 
ATOM     21  C   UNL     1       4.736   4.174  16.277  0.00  0.00    +0.000 A 
ENDBRANCH  12  15
ENDBRANCH  10  12
ENDBRANCH   6  10
BRANCH   1  22
ATOM     22  C   UNL     1       0.810  10.470  20.996  0.00  0.00    +0.000 C 
BRANCH  22  23
ATOM     23  C   UNL     1      -0.527   9.937  21.501  0.00  0.00    +0.000 C 
BRANCH  23  25
ATOM     24  O   UNL     1      -1.623  10.871  23.447  0.00  0.00    +0.000 OA
ATOM     25  C   UNL     1      -0.693  10.245  22.964  0.00  0.00    +0.000 C 
BRANCH  25  26
ATOM     26  O   UNL     1       0.312   9.744  23.719  0.00  0.00    +0.000 OA
ATOM     27  H   UNL     1       0.024   9.338  24.558  0.00  0.00    +0.000 HD
ENDBRANCH  25  26
ENDBRANCH  23  25
ENDBRANCH  22  23
ENDBRANCH   1  22
TORSDOF 7
ENDMDL
MODEL 2
REMARK VINA RESULT:      -7.6      1.909      2.819
REMARK  Name = 
REMARK  7 active torsions:
REMARK  status: ('A' for Active; 'I' for Inactive)
REMARK    1  A    between atoms: C_2  and  O_3
REMARK    2  A    between atoms: C_2  and  C_4
REMARK    3  A    between atoms: C_4  and  C_5
REMARK    4  A    between atoms: C_5  and  N_6
REMARK    5  A    between atoms: C_11  and  N_12
REMARK    6  A    between atoms: N_12  and  S_13
REMARK    7  A    between atoms: S_13  and  C_16
REMARK                            x       y       z     vdW  Elec       q    Type
REMARK                         _______ _______ _______ _____ _____    ______ ____
ROOT
ATOM      1  N   UNL     1       1.030   9.739  19.785  0.00  0.00    +0.000 N 
ATOM      2  C   UNL     1       0.733   9.613  21.120  0.00  0.00    +0.000 A 
ATOM      3  C   UNL     1       1.132   8.363  21.530  0.00  0.00    +0.000 A 
ATOM      4  C   UNL     1       1.677   7.689  20.403  0.00  0.00    +0.000 A 
ATOM      5  C   UNL     1       2.212   6.397  20.210  0.00  0.00    +0.000 A 
ATOM      6  C   UNL     1       2.682   6.036  18.945  0.00  0.00    +0.000 A 
ATOM      7  C   UNL     1       2.622   6.932  17.883  0.00  0.00    +0.000 A 
ATOM      8  C   UNL     1       2.087   8.214  18.049  0.00  0.00    +0.000 A 
ATOM      9  C   UNL     1       1.616   8.577  19.321  0.00  0.00    +0.000 A 
ENDROOT
BRANCH   6  10
ATOM     10  N   UNL     1       3.237   4.748  18.712  0.00  0.00    +0.000 N 
ATOM     11  H   UNL     1       2.906   4.232  17.897  0.00  0.00    +0.000 HD
BRANCH  10  12
ATOM     12  S   UNL     1       4.889   4.504  18.968  0.00  0.00    +0.000 S 
ATOM     13  O   UNL     1       5.357   5.674  19.684  0.00  0.00    +0.000 OA
ATOM     14  O   UNL     1       5.106   3.175  19.498  0.00  0.00    +0.000 OA
BRANCH  12  15
ATOM     15  C   UNL     1       5.558   4.578  17.323  0.00  0.00    +0.000 A 
ATOM     16  C   UNL     1       4.847   4.032  16.247  0.00  0.00    +0.000 A 
ATOM     17  C   UNL     1       5.402   4.080  14.969  0.00  0.00    +0.000 A 
ATOM     18  C   UNL     1       6.646   4.679  14.778  0.00  0.00    +0.000 A 
ATOM     19  F   UNL     1       7.183   4.704  13.550  0.00  0.00    +0.000 F 
ATOM     20  C   UNL     1       7.342   5.248  15.839  0.00  0.00    +0.000 A 
ATOM     21  C   UNL     1       6.792   5.210  17.120  0.00  0.00    +0.000 A 
ENDBRANCH  12  15
ENDBRANCH  10  12
ENDBRANCH   6  10
BRANCH   1  22
ATOM     22  C   UNL     1       0.701  10.918  18.993  0.00  0.00    +0.000 C 
BRANCH  22  23
ATOM     23  C   UNL     1      -0.701  10.855  18.398  0.00  0.00    +0.000 C 
BRANCH  23  25
ATOM     24  O   UNL     1      -0.513  13.241  18.032  0.00  0.00    +0.000 OA
ATOM     25  C   UNL     1      -1.208  12.241  18.106  0.00  0.00    +0.000 C 
BRANCH  25  26
ATOM     26  O   UNL     1      -2.549  12.277  17.923  0.00  0.00    +0.000 OA
ATOM     27  H   UNL     1      -2.956  13.147  18.091  0.00  0.00    +0.000 HD
ENDBRANCH  25  26
ENDBRANCH  23  25
ENDBRANCH  22  23
ENDBRANCH   1  22
TORSDOF 7
ENDMDL
MODEL 3
REMARK VINA RESULT:      -7.6      1.464      1.756
REMARK  Name = 
REMARK  7 active torsions:
REMARK  status: ('A' for Active; 'I' for Inactive)
REMARK    1  A    between atoms: C_2  and  O_3
REMARK    2  A    between atoms: C_2  and  C_4
REMARK    3  A    between atoms: C_4  and  C_5
REMARK    4  A    between atoms: C_5  and  N_6
REMARK    5  A    between atoms: C_11  and  N_12
REMARK    6  A    between atoms: N_12  and  S_13
REMARK    7  A    between atoms: S_13  and  C_16
REMARK                            x       y       z     vdW  Elec       q    Type
REMARK                         _______ _______ _______ _____ _____    ______ ____
ROOT
ATOM      1  N   UNL     1       1.551   8.723  20.085  0.00  0.00    +0.000 N 
ATOM      2  C   UNL     1       1.773   9.387  18.905  0.00  0.00    +0.000 A 
ATOM      3  C   UNL     1       2.045   8.452  17.934  0.00  0.00    +0.000 A 
ATOM      4  C   UNL     1       2.006   7.168  18.542  0.00  0.00    +0.000 A 
ATOM      5  C   UNL     1       2.226   5.859  18.062  0.00  0.00    +0.000 A 
ATOM      6  C   UNL     1       2.101   4.781  18.941  0.00  0.00    +0.000 A 
ATOM      7  C   UNL     1       1.768   4.988  20.276  0.00  0.00    +0.000 A 
ATOM      8  C   UNL     1       1.555   6.277  20.776  0.00  0.00    +0.000 A 
ATOM      9  C   UNL     1       1.680   7.360  19.892  0.00  0.00    +0.000 A 
ENDROOT
BRANCH   6  10
ATOM     10  N   UNL     1       2.305   3.447  18.494  0.00  0.00    +0.000 N 
ATOM     11  H   UNL     1       1.939   3.195  17.576  0.00  0.00    +0.000 HD
BRANCH  10  12
ATOM     12  S   UNL     1       3.789   2.696  18.793  0.00  0.00    +0.000 S 
ATOM     13  O   UNL     1       3.916   2.628  20.235  0.00  0.00    +0.000 OA
ATOM     14  O   UNL     1       3.900   1.504  17.982  0.00  0.00    +0.000 OA
BRANCH  12  15
ATOM     15  C   UNL     1       4.962   3.896  18.207  0.00  0.00    +0.000 A 
ATOM     16  C   UNL     1       5.660   4.702  19.114  0.00  0.00    +0.000 A 
ATOM     17  C   UNL     1       6.558   5.654  18.631  0.00  0.00    +0.000 A 
ATOM     18  C   UNL     1       6.756   5.780  17.257  0.00  0.00    +0.000 A 
ATOM     19  F   UNL     1       7.606   6.710  16.798  0.00  0.00    +0.000 F 
ATOM     20  C   UNL     1       6.086   4.962  16.354  0.00  0.00    +0.000 A 
ATOM     21  C   UNL     1       5.192   4.004  16.829  0.00  0.00    +0.000 A 
ENDBRANCH  12  15
ENDBRANCH  10  12
ENDBRANCH   6  10
BRANCH   1  22
ATOM     22  C   UNL     1       1.283   9.394  21.352  0.00  0.00    +0.000 C 
BRANCH  22  23
ATOM     23  C   UNL     1      -0.200   9.419  21.703  0.00  0.00    +0.000 C 
BRANCH  23  25
ATOM     24  O   UNL     1      -0.939  11.183  23.187  0.00  0.00    +0.000 OA
ATOM     25  C   UNL     1      -0.412  10.094  23.031  0.00  0.00    +0.000 C 
BRANCH  25  26
ATOM     26  O   UNL     1       0.046   9.357  24.069  0.00  0.00    +0.000 OA
ATOM     27  H   UNL     1       0.657   8.638  23.817  0.00  0.00    +0.000 HD
ENDBRANCH  25  26
ENDBRANCH  23  25
ENDBRANCH  22  23
ENDBRANCH   1  22
TORSDOF 7
ENDMDL
MODEL 4
REMARK VINA RESULT:      -7.5      1.098      1.497
REMARK  Name = 
REMARK  7 active torsions:
REMARK  status: ('A' for Active; 'I' for Inactive)
REMARK    1  A    between atoms: C_2  and  O_3
REMARK    2  A    between atoms: C_2  and  C_4
REMARK    3  A    between atoms: C_4  and  C_5
REMARK    4  A    between atoms: C_5  and  N_6
REMARK    5  A    between atoms: C_11  and  N_12
REMARK    6  A    between atoms: N_12  and  S_13
REMARK    7  A    between atoms: S_13  and  C_16
REMARK                            x       y       z     vdW  Elec       q    Type
REMARK                         _______ _______ _______ _____ _____    ______ ____
ROOT
ATOM      1  N   UNL     1       1.089   9.545  19.950  0.00  0.00    +0.000 N 
ATOM      2  C   UNL     1       1.324  10.236  18.788  0.00  0.00    +0.000 A 
ATOM      3  C   UNL     1       1.944   9.385  17.903  0.00  0.00    +0.000 A 
ATOM      4  C   UNL     1       2.111   8.131  18.550  0.00  0.00    +0.000 A 
ATOM      5  C   UNL     1       2.693   6.906  18.158  0.00  0.00    +0.000 A 
ATOM      6  C   UNL     1       2.690   5.833  19.053  0.00  0.00    +0.000 A 
ATOM      7  C   UNL     1       2.125   5.964  20.317  0.00  0.00    +0.000 A 
ATOM      8  C   UNL     1       1.551   7.171  20.731  0.00  0.00    +0.000 A 
ATOM      9  C   UNL     1       1.554   8.249  19.831  0.00  0.00    +0.000 A 
ENDROOT
BRANCH   6  10
ATOM     10  N   UNL     1       3.258   4.580  18.693  0.00  0.00    +0.000 N 
ATOM     11  H   UNL     1       2.949   4.156  17.818  0.00  0.00    +0.000 HD
BRANCH  10  12
ATOM     12  S   UNL     1       4.906   4.317  18.957  0.00  0.00    +0.000 S 
ATOM     13  O   UNL     1       5.371   5.455  19.725  0.00  0.00    +0.000 OA
ATOM     14  O   UNL     1       5.109   2.967  19.436  0.00  0.00    +0.000 OA
BRANCH  12  15
ATOM     15  C   UNL     1       5.594   4.454  17.324  0.00  0.00    +0.000 A 
ATOM     16  C   UNL     1       4.777   4.295  16.199  0.00  0.00    +0.000 A 
ATOM     17  C   UNL     1       5.343   4.383  14.927  0.00  0.00    +0.000 A 
ATOM     18  C   UNL     1       6.707   4.638  14.795  0.00  0.00    +0.000 A 
ATOM     19  F   UNL     1       7.249   4.700  13.570  0.00  0.00    +0.000 F 
ATOM     20  C   UNL     1       7.517   4.824  15.910  0.00  0.00    +0.000 A 
ATOM     21  C   UNL     1       6.958   4.745  17.184  0.00  0.00    +0.000 A 
ENDBRANCH  12  15
ENDBRANCH  10  12
ENDBRANCH   6  10
BRANCH   1  22
ATOM     22  C   UNL     1       0.491  10.143  21.139  0.00  0.00    +0.000 C 
BRANCH  22  23
ATOM     23  C   UNL     1      -0.675  11.069  20.809  0.00  0.00    +0.000 C 
BRANCH  23  25
ATOM     24  O   UNL     1      -1.310  13.248  21.650  0.00  0.00    +0.000 OA
ATOM     25  C   UNL     1      -0.437  12.436  21.389  0.00  0.00    +0.000 C 
BRANCH  25  26
ATOM     26  O   UNL     1       0.874  12.688  21.608  0.00  0.00    +0.000 OA
ATOM     27  H   UNL     1       1.059  13.564  21.995  0.00  0.00    +0.000 HD
ENDBRANCH  25  26
ENDBRANCH  23  25
ENDBRANCH  22  23
ENDBRANCH   1  22
TORSDOF 7
ENDMDL
MODEL 5
REMARK VINA RESULT:      -7.3      1.185      1.418
REMARK  Name = 
REMARK  7 active torsions:
REMARK  status: ('A' for Active; 'I' for Inactive)
REMARK    1  A    between atoms: C_2  and  O_3
REMARK    2  A    between atoms: C_2  and  C_4
REMARK    3  A    between atoms: C_4  and  C_5
REMARK    4  A    between atoms: C_5  and  N_6
REMARK    5  A    between atoms: C_11  and  N_12
REMARK    6  A    between atoms: N_12  and  S_13
REMARK    7  A    between atoms: S_13  and  C_16
REMARK                            x       y       z     vdW  Elec       q    Type
REMARK                         _______ _______ _______ _____ _____    ______ ____
ROOT
ATOM      1  N   UNL     1       1.147   9.579  19.729  0.00  0.00    +0.000 N 
ATOM      2  C   UNL     1       1.420  10.213  18.543  0.00  0.00    +0.000 A 
ATOM      3  C   UNL     1       2.056   9.318  17.716  0.00  0.00    +0.000 A 
ATOM      4  C   UNL     1       2.196   8.094  18.425  0.00  0.00    +0.000 A 
ATOM      5  C   UNL     1       2.779   6.848  18.107  0.00  0.00    +0.000 A 
ATOM      6  C   UNL     1       2.742   5.818  19.050  0.00  0.00    +0.000 A 
ATOM      7  C   UNL     1       2.144   6.012  20.291  0.00  0.00    +0.000 A 
ATOM      8  C   UNL     1       1.569   7.241  20.632  0.00  0.00    +0.000 A 
ATOM      9  C   UNL     1       1.605   8.276  19.683  0.00  0.00    +0.000 A 
ENDROOT
BRANCH   6  10
ATOM     10  N   UNL     1       3.310   4.546  18.765  0.00  0.00    +0.000 N 
ATOM     11  H   UNL     1       2.984   4.061  17.929  0.00  0.00    +0.000 HD
BRANCH  10  12
ATOM     12  S   UNL     1       4.965   4.309  19.010  0.00  0.00    +0.000 S 
ATOM     13  O   UNL     1       5.427   5.471  19.742  0.00  0.00    +0.000 OA
ATOM     14  O   UNL     1       5.192   2.974  19.519  0.00  0.00    +0.000 OA
BRANCH  12  15
ATOM     15  C   UNL     1       5.626   4.413  17.364  0.00  0.00    +0.000 A 
ATOM     16  C   UNL     1       6.982   4.700  17.165  0.00  0.00    +0.000 A 
ATOM     17  C   UNL     1       7.474   4.800  15.864  0.00  0.00    +0.000 A 
ATOM     18  C   UNL     1       6.616   4.604  14.784  0.00  0.00    +0.000 A 
ATOM     19  F   UNL     1       7.090   4.722  13.536  0.00  0.00    +0.000 F 
ATOM     20  C   UNL     1       5.274   4.291  14.977  0.00  0.00    +0.000 A 
ATOM     21  C   UNL     1       4.775   4.182  16.275  0.00  0.00    +0.000 A 
ENDBRANCH  12  15
ENDBRANCH  10  12
ENDBRANCH   6  10
BRANCH   1  22
ATOM     22  C   UNL     1       0.522  10.236  20.871  0.00  0.00    +0.000 C 
BRANCH  22  23
ATOM     23  C   UNL     1       0.806  11.733  20.917  0.00  0.00    +0.000 C 
BRANCH  23  25
ATOM     24  O   UNL     1      -0.556  13.729  20.777  0.00  0.00    +0.000 OA
ATOM     25  C   UNL     1      -0.467  12.513  20.734  0.00  0.00    +0.000 C 
BRANCH  25  26
ATOM     26  O   UNL     1      -1.537  11.717  20.506  0.00  0.00    +0.000 OA
ATOM     27  H   UNL     1      -2.087  11.986  19.746  0.00  0.00    +0.000 HD
ENDBRANCH  25  26
ENDBRANCH  23  25
ENDBRANCH  22  23
ENDBRANCH   1  22
TORSDOF 7
ENDMDL
MODEL 6
REMARK VINA RESULT:      -7.3      2.033      2.796
REMARK  Name = 
REMARK  7 active torsions:
REMARK  status: ('A' for Active; 'I' for Inactive)
REMARK    1  A    between atoms: C_2  and  O_3
REMARK    2  A    between atoms: C_2  and  C_4
REMARK    3  A    between atoms: C_4  and  C_5
REMARK    4  A    between atoms: C_5  and  N_6
REMARK    5  A    between atoms: C_11  and  N_12
REMARK    6  A    between atoms: N_12  and  S_13
REMARK    7  A    between atoms: S_13  and  C_16
REMARK                            x       y       z     vdW  Elec       q    Type
REMARK                         _______ _______ _______ _____ _____    ______ ____
ROOT
ATOM      1  N   UNL     1       1.148   9.749  19.574  0.00  0.00    +0.000 N 
ATOM      2  C   UNL     1       0.780   9.668  20.894  0.00  0.00    +0.000 A 
ATOM      3  C   UNL     1       1.126   8.421  21.358  0.00  0.00    +0.000 A 
ATOM      4  C   UNL     1       1.712   7.702  20.280  0.00  0.00    +0.000 A 
ATOM      5  C   UNL     1       2.225   6.393  20.151  0.00  0.00    +0.000 A 
ATOM      6  C   UNL     1       2.750   5.986  18.922  0.00  0.00    +0.000 A 
ATOM      7  C   UNL     1       2.767   6.853  17.835  0.00  0.00    +0.000 A 
ATOM      8  C   UNL     1       2.256   8.151  17.937  0.00  0.00    +0.000 A 
ATOM      9  C   UNL     1       1.729   8.561  19.173  0.00  0.00    +0.000 A 
ENDROOT
BRANCH   6  10
ATOM     10  N   UNL     1       3.284   4.679  18.754  0.00  0.00    +0.000 N 
ATOM     11  H   UNL     1       2.944   4.128  17.967  0.00  0.00    +0.000 HD
BRANCH  10  12
ATOM     12  S   UNL     1       4.934   4.423  19.019  0.00  0.00    +0.000 S 
ATOM     13  O   UNL     1       5.409   5.595  19.726  0.00  0.00    +0.000 OA
ATOM     14  O   UNL     1       5.137   3.098  19.562  0.00  0.00    +0.000 OA
BRANCH  12  15
ATOM     15  C   UNL     1       5.609   4.477  17.376  0.00  0.00    +0.000 A 
ATOM     16  C   UNL     1       6.956   4.802  17.177  0.00  0.00    +0.000 A 
ATOM     17  C   UNL     1       7.459   4.861  15.877  0.00  0.00    +0.000 A 
ATOM     18  C   UNL     1       6.620   4.585  14.799  0.00  0.00    +0.000 A 
ATOM     19  F   UNL     1       7.103   4.664  13.551  0.00  0.00    +0.000 F 
ATOM     20  C   UNL     1       5.288   4.234  14.994  0.00  0.00    +0.000 A 
ATOM     21  C   UNL     1       4.779   4.166  16.290  0.00  0.00    +0.000 A 
ENDBRANCH  12  15
ENDBRANCH  10  12
ENDBRANCH   6  10
BRANCH   1  22
ATOM     22  C   UNL     1       0.889  10.912  18.733  0.00  0.00    +0.000 C 
BRANCH  22  23
ATOM     23  C   UNL     1       2.162  11.667  18.366  0.00  0.00    +0.000 C 
BRANCH  23  25
ATOM     24  O   UNL     1       0.864  13.705  18.518  0.00  0.00    +0.000 OA
ATOM     25  C   UNL     1       1.951  13.149  18.512  0.00  0.00    +0.000 C 
BRANCH  25  26
ATOM     26  O   UNL     1       3.112  13.830  18.645  0.00  0.00    +0.000 OA
ATOM     27  H   UNL     1       3.143  14.676  18.160  0.00  0.00    +0.000 HD
ENDBRANCH  25  26
ENDBRANCH  23  25
ENDBRANCH  22  23
ENDBRANCH   1  22
TORSDOF 7
ENDMDL
MODEL 7
REMARK VINA RESULT:      -7.3      2.551      3.095
REMARK  Name = 
REMARK  7 active torsions:
REMARK  status: ('A' for Active; 'I' for Inactive)
REMARK    1  A    between atoms: C_2  and  O_3
REMARK    2  A    between atoms: C_2  and  C_4
REMARK    3  A    between atoms: C_4  and  C_5
REMARK    4  A    between atoms: C_5  and  N_6
REMARK    5  A    between atoms: C_11  and  N_12
REMARK    6  A    between atoms: N_12  and  S_13
REMARK    7  A    between atoms: S_13  and  C_16
REMARK                            x       y       z     vdW  Elec       q    Type
REMARK                         _______ _______ _______ _____ _____    ______ ____
ROOT
ATOM      1  N   UNL     1       1.807   7.954  19.923  0.00  0.00    +0.000 N 
ATOM      2  C   UNL     1       1.650   8.934  18.974  0.00  0.00    +0.000 A 
ATOM      3  C   UNL     1       2.209   8.486  17.800  0.00  0.00    +0.000 A 
ATOM      4  C   UNL     1       2.746   7.192  18.041  0.00  0.00    +0.000 A 
ATOM      5  C   UNL     1       3.448   6.267  17.237  0.00  0.00    +0.000 A 
ATOM      6  C   UNL     1       3.841   5.046  17.789  0.00  0.00    +0.000 A 
ATOM      7  C   UNL     1       3.552   4.739  19.114  0.00  0.00    +0.000 A 
ATOM      8  C   UNL     1       2.866   5.644  19.932  0.00  0.00    +0.000 A 
ATOM      9  C   UNL     1       2.470   6.871  19.377  0.00  0.00    +0.000 A 
ENDROOT
BRANCH   6  10
ATOM     10  N   UNL     1       4.542   4.084  17.010  0.00  0.00    +0.000 N 
ATOM     11  H   UNL     1       4.001   3.322  16.602  0.00  0.00    +0.000 HD
BRANCH  10  12
ATOM     12  S   UNL     1       5.762   4.604  15.963  0.00  0.00    +0.000 S 
ATOM     13  O   UNL     1       6.584   3.440  15.702  0.00  0.00    +0.000 OA
ATOM     14  O   UNL     1       5.177   5.357  14.874  0.00  0.00    +0.000 OA
BRANCH  12  15
ATOM     15  C   UNL     1       6.708   5.713  16.979  0.00  0.00    +0.000 A 
ATOM     16  C   UNL     1       6.864   7.053  16.607  0.00  0.00    +0.000 A 
ATOM     17  C   UNL     1       7.631   7.899  17.407  0.00  0.00    +0.000 A 
ATOM     18  C   UNL     1       8.219   7.404  18.569  0.00  0.00    +0.000 A 
ATOM     19  F   UNL     1       8.972   8.217  19.324  0.00  0.00    +0.000 F 
ATOM     20  C   UNL     1       8.044   6.080  18.958  0.00  0.00    +0.000 A 
ATOM     21  C   UNL     1       7.274   5.229  18.167  0.00  0.00    +0.000 A 
ENDBRANCH  12  15
ENDBRANCH  10  12
ENDBRANCH   6  10
BRANCH   1  22
ATOM     22  C   UNL     1       1.382   8.097  21.310  0.00  0.00    +0.000 C 
BRANCH  22  23
ATOM     23  C   UNL     1       0.837   9.488  21.618  0.00  0.00    +0.000 C 
BRANCH  23  25
ATOM     24  O   UNL     1      -0.090  10.224  23.730  0.00  0.00    +0.000 OA
ATOM     25  C   UNL     1      -0.094   9.435  22.799  0.00  0.00    +0.000 C 
BRANCH  25  26
ATOM     26  O   UNL     1      -0.966   8.403  22.728  0.00  0.00    +0.000 OA
ATOM     27  H   UNL     1      -0.591   7.581  22.358  0.00  0.00    +0.000 HD
ENDBRANCH  25  26
ENDBRANCH  23  25
ENDBRANCH  22  23
ENDBRANCH   1  22
TORSDOF 7
ENDMDL
MODEL 8
REMARK VINA RESULT:      -7.2      2.097      2.791
REMARK  Name = 
REMARK  7 active torsions:
REMARK  status: ('A' for Active; 'I' for Inactive)
REMARK    1  A    between atoms: C_2  and  O_3
REMARK    2  A    between atoms: C_2  and  C_4
REMARK    3  A    between atoms: C_4  and  C_5
REMARK    4  A    between atoms: C_5  and  N_6
REMARK    5  A    between atoms: C_11  and  N_12
REMARK    6  A    between atoms: N_12  and  S_13
REMARK    7  A    between atoms: S_13  and  C_16
REMARK                            x       y       z     vdW  Elec       q    Type
REMARK                         _______ _______ _______ _____ _____    ______ ____
ROOT
ATOM      1  N   UNL     1       0.810   9.692  19.470  0.00  0.00    +0.000 N 
ATOM      2  C   UNL     1       0.223   9.612  20.708  0.00  0.00    +0.000 A 
ATOM      3  C   UNL     1       0.659   8.458  21.314  0.00  0.00    +0.000 A 
ATOM      4  C   UNL     1       1.531   7.794  20.408  0.00  0.00    +0.000 A 
ATOM      5  C   UNL     1       2.247   6.578  20.464  0.00  0.00    +0.000 A 
ATOM      6  C   UNL     1       3.042   6.205  19.378  0.00  0.00    +0.000 A 
ATOM      7  C   UNL     1       3.129   7.015  18.250  0.00  0.00    +0.000 A 
ATOM      8  C   UNL     1       2.421   8.219  18.169  0.00  0.00    +0.000 A 
ATOM      9  C   UNL     1       1.623   8.594  19.261  0.00  0.00    +0.000 A 
ENDROOT
BRANCH   6  10
ATOM     10  N   UNL     1       3.785   4.993  19.399  0.00  0.00    +0.000 N 
ATOM     11  H   UNL     1       3.925   4.541  20.302  0.00  0.00    +0.000 HD
BRANCH  10  12
ATOM     12  S   UNL     1       3.542   3.857  18.172  0.00  0.00    +0.000 S 
ATOM     13  O   UNL     1       3.823   2.566  18.765  0.00  0.00    +0.000 OA
ATOM     14  O   UNL     1       2.276   4.113  17.519  0.00  0.00    +0.000 OA
BRANCH  12  15
ATOM     15  C   UNL     1       4.856   4.222  17.032  0.00  0.00    +0.000 A 
ATOM     16  C   UNL     1       6.134   4.540  17.506  0.00  0.00    +0.000 A 
ATOM     17  C   UNL     1       7.144   4.846  16.594  0.00  0.00    +0.000 A 
ATOM     18  C   UNL     1       6.871   4.820  15.228  0.00  0.00    +0.000 A 
ATOM     19  F   UNL     1       7.840   5.135  14.356  0.00  0.00    +0.000 F 
ATOM     20  C   UNL     1       5.610   4.477  14.751  0.00  0.00    +0.000 A 
ATOM     21  C   UNL     1       4.597   4.163  15.656  0.00  0.00    +0.000 A 
ENDBRANCH  12  15
ENDBRANCH  10  12
ENDBRANCH   6  10
BRANCH   1  22
ATOM     22  C   UNL     1       0.540  10.761  18.515  0.00  0.00    +0.000 C 
BRANCH  22  23
ATOM     23  C   UNL     1      -0.309  11.880  19.109  0.00  0.00    +0.000 C 
BRANCH  23  25
ATOM     24  O   UNL     1      -2.715  11.680  18.926  0.00  0.00    +0.000 OA
ATOM     25  C   UNL     1      -1.641  11.950  18.414  0.00  0.00    +0.000 C 
BRANCH  25  26
ATOM     26  O   UNL     1      -1.536  12.359  17.128  0.00  0.00    +0.000 OA
ATOM     27  H   UNL     1      -0.712  12.838  16.922  0.00  0.00    +0.000 HD
ENDBRANCH  25  26
ENDBRANCH  23  25
ENDBRANCH  22  23
ENDBRANCH   1  22
TORSDOF 7
ENDMDL
MODEL 9
REMARK VINA RESULT:      -7.2      2.503      3.287
REMARK  Name = 
REMARK  7 active torsions:
REMARK  status: ('A' for Active; 'I' for Inactive)
REMARK    1  A    between atoms: C_2  and  O_3
REMARK    2  A    between atoms: C_2  and  C_4
REMARK    3  A    between atoms: C_4  and  C_5
REMARK    4  A    between atoms: C_5  and  N_6
REMARK    5  A    between atoms: C_11  and  N_12
REMARK    6  A    between atoms: N_12  and  S_13
REMARK    7  A    between atoms: S_13  and  C_16
REMARK                            x       y       z     vdW  Elec       q    Type
REMARK                         _______ _______ _______ _____ _____    ______ ____
ROOT
ATOM      1  N   UNL     1       0.443  10.372  19.470  0.00  0.00    +0.000 N 
ATOM      2  C   UNL     1      -0.206  10.475  20.676  0.00  0.00    +0.000 A 
ATOM      3  C   UNL     1       0.116   9.371  21.429  0.00  0.00    +0.000 A 
ATOM      4  C   UNL     1       0.980   8.551  20.653  0.00  0.00    +0.000 A 
ATOM      5  C   UNL     1       1.603   7.305  20.884  0.00  0.00    +0.000 A 
ATOM      6  C   UNL     1       2.420   6.758  19.892  0.00  0.00    +0.000 A 
ATOM      7  C   UNL     1       2.618   7.425  18.688  0.00  0.00    +0.000 A 
ATOM      8  C   UNL     1       2.004   8.656  18.433  0.00  0.00    +0.000 A 
ATOM      9  C   UNL     1       1.184   9.206  19.431  0.00  0.00    +0.000 A 
ENDROOT
BRANCH   6  10
ATOM     10  N   UNL     1       3.071   5.510  20.089  0.00  0.00    +0.000 N 
ATOM     11  H   UNL     1       3.126   5.151  21.042  0.00  0.00    +0.000 HD
BRANCH  10  12
ATOM     12  S   UNL     1       2.820   4.264  18.975  0.00  0.00    +0.000 S 
ATOM     13  O   UNL     1       2.858   3.034  19.740  0.00  0.00    +0.000 OA
ATOM     14  O   UNL     1       1.681   4.583  18.142  0.00  0.00    +0.000 OA
BRANCH  12  15
ATOM     15  C   UNL     1       4.291   4.323  17.979  0.00  0.00    +0.000 A 
ATOM     16  C   UNL     1       5.510   4.714  18.544  0.00  0.00    +0.000 A 
ATOM     17  C   UNL     1       6.647   4.775  17.739  0.00  0.00    +0.000 A 
ATOM     18  C   UNL     1       6.556   4.437  16.390  0.00  0.00    +0.000 A 
ATOM     19  F   UNL     1       7.647   4.518  15.616  0.00  0.00    +0.000 F 
ATOM     20  C   UNL     1       5.352   4.021  15.831  0.00  0.00    +0.000 A 
ATOM     21  C   UNL     1       4.213   3.950  16.631  0.00  0.00    +0.000 A 
ENDBRANCH  12  15
ENDBRANCH  10  12
ENDBRANCH   6  10
BRANCH   1  22
ATOM     22  C   UNL     1       0.297  11.340  18.389  0.00  0.00    +0.000 C 
BRANCH  22  23
ATOM     23  C   UNL     1       0.819  12.723  18.763  0.00  0.00    +0.000 C 
BRANCH  23  25
ATOM     24  O   UNL     1       3.045  13.676  18.797  0.00  0.00    +0.000 OA
ATOM     25  C   UNL     1       2.251  12.876  18.328  0.00  0.00    +0.000 C 
BRANCH  25  26
ATOM     26  O   UNL     1       2.590  12.014  17.342  0.00  0.00    +0.000 OA
ATOM     27  H   UNL     1       2.793  12.438  16.486  0.00  0.00    +0.000 HD
ENDBRANCH  25  26
ENDBRANCH  23  25
ENDBRANCH  22  23
ENDBRANCH   1  22
TORSDOF 7
ENDMDL
