MODEL 1
REMARK VINA RESULT:      -7.9      0.000      0.000
REMARK  Name = 
REMARK  8 active torsions:
REMARK  status: ('A' for Active; 'I' for Inactive)
REMARK    1  A    between atoms: C_1  and  O_2
REMARK    2  A    between atoms: O_2  and  C_3
REMARK    3  A    between atoms: C_5  and  C_6
REMARK    4  A    between atoms: C_7  and  N_8
REMARK    5  A    between atoms: C_13  and  O_14
REMARK    6  A    between atoms: O_14  and  C_15
REMARK    7  A    between atoms: C_15  and  C_17
REMARK    8  A    between atoms: C_22  and  C_23
REMARK                            x       y       z     vdW  Elec       q    Type
REMARK                         _______ _______ _______ _____ _____    ______ ____
ROOT
ATOM      1  C   UNL     1       5.296   4.622  17.966  0.00  0.00    +0.000 A 
ATOM      2  C   UNL     1       5.785   4.319  16.687  0.00  0.00    +0.000 A 
ATOM      3  C   UNL     1       5.685   5.238  15.630  0.00  0.00    +0.000 A 
ATOM      4  C   UNL     1       5.049   6.462  15.855  0.00  0.00    +0.000 A 
ATOM      5  C   UNL     1       4.594   6.793  17.129  0.00  0.00    +0.000 A 
ATOM      6  C   UNL     1       4.759   5.898  18.190  0.00  0.00    +0.000 A 
ENDROOT
BRANCH   1   8
ATOM      7  C   UNL     1       4.640   2.497  18.784  0.00  0.00    +0.000 C 
ATOM      8  O   UNL     1       5.313   3.737  19.013  0.00  0.00    +0.000 OA
ENDBRANCH   1   8
BRANCH   3   9
ATOM      9  C   UNL     1       6.221   4.854  14.316  0.00  0.00    +0.000 C 
ATOM     10  C   UNL     1       5.821   3.755  13.661  0.00  0.00    +0.000 C 
BRANCH  10  11
ATOM     11  N   UNL     1       6.344   3.471  12.349  0.00  0.00    +0.000 N 
ATOM     12  O   UNL     1       7.240   4.190  11.889  0.00  0.00    +0.000 OA
ATOM     13  O   UNL     1       5.834   2.505  11.768  0.00  0.00    +0.000 OA
ENDBRANCH  10  11
ENDBRANCH   3   9
BRANCH   6  14
ATOM     14  O   UNL     1       4.248   6.231  19.464  0.00  0.00    +0.000 OA
BRANCH  14  15
ATOM     15  C   UNL     1       2.867   6.284  19.597  0.00  0.00    +0.000 C 
ATOM     16  O   UNL     1       2.173   7.284  19.493  0.00  0.00    +0.000 OA
BRANCH  15  17
ATOM     17  C   UNL     1       2.283   4.932  19.863  0.00  0.00    +0.000 A 
ATOM     18  C   UNL     1       2.361   4.488  21.200  0.00  0.00    +0.000 A 
ATOM     19  C   UNL     1       1.785   3.279  21.595  0.00  0.00    +0.000 A 
ATOM     20  C   UNL     1       1.109   2.501  20.665  0.00  0.00    +0.000 A 
ATOM     21  C   UNL     1       1.012   2.929  19.342  0.00  0.00    +0.000 A 
ATOM     22  C   UNL     1       1.593   4.142  18.918  0.00  0.00    +0.000 A 
ATOM     23  C   UNL     1       1.421   4.528  17.475  0.00  0.00    +0.000 C 
ENDBRANCH  15  17
ENDBRANCH  14  15
ENDBRANCH   6  14
TORSDOF 6
ENDMDL
MODEL 2
REMARK VINA RESULT:      -7.6      0.958      1.177
REMARK  Name = 
REMARK  8 active torsions:
REMARK  status: ('A' for Active; 'I' for Inactive)
REMARK    1  A    between atoms: C_1  and  O_2
REMARK    2  A    between atoms: O_2  and  C_3
REMARK    3  A    between atoms: C_5  and  C_6
REMARK    4  A    between atoms: C_7  and  N_8
REMARK    5  A    between atoms: C_13  and  O_14
REMARK    6  A    between atoms: O_14  and  C_15
REMARK    7  A    between atoms: C_15  and  C_17
REMARK    8  A    between atoms: C_22  and  C_23
REMARK                            x       y       z     vdW  Elec       q    Type
REMARK                         _______ _______ _______ _____ _____    ______ ____
ROOT
ATOM      1  C   UNL     1       6.303   5.006  18.070  0.00  0.00    +0.000 A 
ATOM      2  C   UNL     1       6.818   4.701  16.802  0.00  0.00    +0.000 A 
ATOM      3  C   UNL     1       6.090   4.970  15.632  0.00  0.00    +0.000 A 
ATOM      4  C   UNL     1       4.809   5.520  15.744  0.00  0.00    +0.000 A 
ATOM      5  C   UNL     1       4.301   5.866  16.994  0.00  0.00    +0.000 A 
ATOM      6  C   UNL     1       5.063   5.654  18.147  0.00  0.00    +0.000 A 
ENDROOT
BRANCH   1   8
ATOM      7  C   UNL     1       7.979   5.617  19.630  0.00  0.00    +0.000 C 
ATOM      8  O   UNL     1       6.948   4.706  19.242  0.00  0.00    +0.000 OA
ENDBRANCH   1   8
BRANCH   3   9
ATOM      9  C   UNL     1       6.691   4.625  14.337  0.00  0.00    +0.000 C 
ATOM     10  C   UNL     1       6.106   3.796  13.461  0.00  0.00    +0.000 C 
BRANCH  10  11
ATOM     11  N   UNL     1       6.723   3.548  12.183  0.00  0.00    +0.000 N 
ATOM     12  O   UNL     1       7.481   4.401  11.705  0.00  0.00    +0.000 OA
ATOM     13  O   UNL     1       6.430   2.472  11.648  0.00  0.00    +0.000 OA
ENDBRANCH  10  11
ENDBRANCH   3   9
BRANCH   6  14
ATOM     14  O   UNL     1       4.510   5.966  19.409  0.00  0.00    +0.000 OA
BRANCH  14  15
ATOM     15  C   UNL     1       3.131   6.102  19.480  0.00  0.00    +0.000 C 
ATOM     16  O   UNL     1       2.495   7.116  19.238  0.00  0.00    +0.000 OA
BRANCH  15  17
ATOM     17  C   UNL     1       2.467   4.818  19.871  0.00  0.00    +0.000 A 
ATOM     18  C   UNL     1       2.593   4.457  21.229  0.00  0.00    +0.000 A 
ATOM     19  C   UNL     1       1.955   3.324  21.738  0.00  0.00    +0.000 A 
ATOM     20  C   UNL     1       1.168   2.542  20.902  0.00  0.00    +0.000 A 
ATOM     21  C   UNL     1       1.023   2.890  19.560  0.00  0.00    +0.000 A 
ATOM     22  C   UNL     1       1.665   4.024  19.022  0.00  0.00    +0.000 A 
ATOM     23  C   UNL     1       1.435   4.328  17.568  0.00  0.00    +0.000 C 
ENDBRANCH  15  17
ENDBRANCH  14  15
ENDBRANCH   6  14
TORSDOF 6
ENDMDL
MODEL 3
REMARK VINA RESULT:      -7.4      0.552      1.672
REMARK  Name = 
REMARK  8 active torsions:
REMARK  status: ('A' for Active; 'I' for Inactive)
REMARK    1  A    between atoms: C_1  and  O_2
REMARK    2  A    between atoms: O_2  and  C_3
REMARK    3  A    between atoms: C_5  and  C_6
REMARK    4  A    between atoms: C_7  and  N_8
REMARK    5  A    between atoms: C_13  and  O_14
REMARK    6  A    between atoms: O_14  and  C_15
REMARK    7  A    between atoms: C_15  and  C_17
REMARK    8  A    between atoms: C_22  and  C_23
REMARK                            x       y       z     vdW  Elec       q    Type
REMARK                         _______ _______ _______ _____ _____    ______ ____
ROOT
ATOM      1  C   UNL     1       5.435   4.382  18.217  0.00  0.00    +0.000 A 
ATOM      2  C   UNL     1       6.003   3.998  16.994  0.00  0.00    +0.000 A 
ATOM      3  C   UNL     1       5.888   4.803  15.849  0.00  0.00    +0.000 A 
ATOM      4  C   UNL     1       5.158   5.993  15.929  0.00  0.00    +0.000 A 
ATOM      5  C   UNL     1       4.622   6.406  17.147  0.00  0.00    +0.000 A 
ATOM      6  C   UNL     1       4.801   5.629  18.295  0.00  0.00    +0.000 A 
ENDROOT
BRANCH   1   8
ATOM      7  C   UNL     1       4.669   2.416  19.297  0.00  0.00    +0.000 C 
ATOM      8  O   UNL     1       5.466   3.602  19.345  0.00  0.00    +0.000 OA
ENDBRANCH   1   8
BRANCH   3   9
ATOM      9  C   UNL     1       6.510   4.340  14.601  0.00  0.00    +0.000 C 
ATOM     10  C   UNL     1       5.797   3.935  13.540  0.00  0.00    +0.000 C 
BRANCH  10  11
ATOM     11  N   UNL     1       6.470   3.550  12.326  0.00  0.00    +0.000 N 
ATOM     12  O   UNL     1       6.171   2.477  11.787  0.00  0.00    +0.000 OA
ATOM     13  O   UNL     1       7.325   4.343  11.914  0.00  0.00    +0.000 OA
ENDBRANCH  10  11
ENDBRANCH   3   9
BRANCH   6  14
ATOM     14  O   UNL     1       4.208   6.041  19.509  0.00  0.00    +0.000 OA
BRANCH  14  15
ATOM     15  C   UNL     1       2.837   6.255  19.504  0.00  0.00    +0.000 C 
ATOM     16  O   UNL     1       2.277   7.337  19.594  0.00  0.00    +0.000 OA
BRANCH  15  17
ATOM     17  C   UNL     1       2.076   4.975  19.340  0.00  0.00    +0.000 A 
ATOM     18  C   UNL     1       1.676   4.670  18.023  0.00  0.00    +0.000 A 
ATOM     19  C   UNL     1       1.028   3.469  17.724  0.00  0.00    +0.000 A 
ATOM     20  C   UNL     1       0.784   2.548  18.734  0.00  0.00    +0.000 A 
ATOM     21  C   UNL     1       1.182   2.829  20.041  0.00  0.00    +0.000 A 
ATOM     22  C   UNL     1       1.829   4.038  20.367  0.00  0.00    +0.000 A 
ATOM     23  C   UNL     1       2.236   4.243  21.800  0.00  0.00    +0.000 C 
ENDBRANCH  15  17
ENDBRANCH  14  15
ENDBRANCH   6  14
TORSDOF 6
ENDMDL
MODEL 4
REMARK VINA RESULT:      -7.3      1.082      1.984
REMARK  Name = 
REMARK  8 active torsions:
REMARK  status: ('A' for Active; 'I' for Inactive)
REMARK    1  A    between atoms: C_1  and  O_2
REMARK    2  A    between atoms: O_2  and  C_3
REMARK    3  A    between atoms: C_5  and  C_6
REMARK    4  A    between atoms: C_7  and  N_8
REMARK    5  A    between atoms: C_13  and  O_14
REMARK    6  A    between atoms: O_14  and  C_15
REMARK    7  A    between atoms: C_15  and  C_17
REMARK    8  A    between atoms: C_22  and  C_23
REMARK                            x       y       z     vdW  Elec       q    Type
REMARK                         _______ _______ _______ _____ _____    ______ ____
ROOT
ATOM      1  C   UNL     1       5.919   6.235  17.311  0.00  0.00    +0.000 A 
ATOM      2  C   UNL     1       6.399   5.725  16.097  0.00  0.00    +0.000 A 
ATOM      3  C   UNL     1       6.051   4.438  15.655  0.00  0.00    +0.000 A 
ATOM      4  C   UNL     1       5.238   3.641  16.467  0.00  0.00    +0.000 A 
ATOM      5  C   UNL     1       4.720   4.149  17.656  0.00  0.00    +0.000 A 
ATOM      6  C   UNL     1       5.021   5.456  18.053  0.00  0.00    +0.000 A 
ENDROOT
BRANCH   1   8
ATOM      7  C   UNL     1       7.621   7.870  17.534  0.00  0.00    +0.000 C 
ATOM      8  O   UNL     1       6.280   7.459  17.814  0.00  0.00    +0.000 OA
ENDBRANCH   1   8
BRANCH   3   9
ATOM      9  C   UNL     1       6.589   3.968  14.372  0.00  0.00    +0.000 C 
ATOM     10  C   UNL     1       5.816   3.721  13.305  0.00  0.00    +0.000 C 
BRANCH  10  11
ATOM     11  N   UNL     1       6.417   3.319  12.059  0.00  0.00    +0.000 N 
ATOM     12  O   UNL     1       6.059   2.259  11.532  0.00  0.00    +0.000 OA
ATOM     13  O   UNL     1       7.275   4.087  11.606  0.00  0.00    +0.000 OA
ENDBRANCH  10  11
ENDBRANCH   3   9
BRANCH   6  14
ATOM     14  O   UNL     1       4.527   5.936  19.286  0.00  0.00    +0.000 OA
BRANCH  14  15
ATOM     15  C   UNL     1       3.154   6.114  19.392  0.00  0.00    +0.000 C 
ATOM     16  O   UNL     1       2.541   7.140  19.144  0.00  0.00    +0.000 OA
BRANCH  15  17
ATOM     17  C   UNL     1       2.465   4.859  19.833  0.00  0.00    +0.000 A 
ATOM     18  C   UNL     1       2.659   4.501  21.183  0.00  0.00    +0.000 A 
ATOM     19  C   UNL     1       2.009   3.396  21.738  0.00  0.00    +0.000 A 
ATOM     20  C   UNL     1       1.143   2.642  20.957  0.00  0.00    +0.000 A 
ATOM     21  C   UNL     1       0.931   2.988  19.623  0.00  0.00    +0.000 A 
ATOM     22  C   UNL     1       1.583   4.093  19.039  0.00  0.00    +0.000 A 
ATOM     23  C   UNL     1       1.278   4.398  17.599  0.00  0.00    +0.000 C 
ENDBRANCH  15  17
ENDBRANCH  14  15
ENDBRANCH   6  14
TORSDOF 6
ENDMDL
MODEL 5
REMARK VINA RESULT:      -7.2      3.780      7.549
REMARK  Name = 
REMARK  8 active torsions:
REMARK  status: ('A' for Active; 'I' for Inactive)
REMARK    1  A    between atoms: C_1  and  O_2
REMARK    2  A    between atoms: O_2  and  C_3
REMARK    3  A    between atoms: C_5  and  C_6
REMARK    4  A    between atoms: C_7  and  N_8
REMARK    5  A    between atoms: C_13  and  O_14
REMARK    6  A    between atoms: O_14  and  C_15
REMARK    7  A    between atoms: C_15  and  C_17
REMARK    8  A    between atoms: C_22  and  C_23
REMARK                            x       y       z     vdW  Elec       q    Type
REMARK                         _______ _______ _______ _____ _____    ______ ____
ROOT
ATOM      1  C   UNL     1       2.474   5.100  19.888  0.00  0.00    +0.000 A 
ATOM      2  C   UNL     1       1.849   6.200  20.493  0.00  0.00    +0.000 A 
ATOM      3  C   UNL     1       1.880   7.474  19.904  0.00  0.00    +0.000 A 
ATOM      4  C   UNL     1       2.583   7.650  18.708  0.00  0.00    +0.000 A 
ATOM      5  C   UNL     1       3.175   6.559  18.075  0.00  0.00    +0.000 A 
ATOM      6  C   UNL     1       3.080   5.282  18.637  0.00  0.00    +0.000 A 
ENDROOT
BRANCH   1   8
ATOM      7  C   UNL     1       1.310   3.396  21.054  0.00  0.00    +0.000 C 
ATOM      8  O   UNL     1       2.525   3.852  20.454  0.00  0.00    +0.000 OA
ENDBRANCH   1   8
BRANCH   3   9
ATOM      9  C   UNL     1       1.203   8.581  20.593  0.00  0.00    +0.000 C 
ATOM     10  C   UNL     1       0.918   8.557  21.903  0.00  0.00    +0.000 C 
BRANCH  10  11
ATOM     11  N   UNL     1       0.306   9.702  22.526  0.00  0.00    +0.000 N 
ATOM     12  O   UNL     1       0.323   9.797  23.760  0.00  0.00    +0.000 OA
ATOM     13  O   UNL     1      -0.211  10.519  21.755  0.00  0.00    +0.000 OA
ENDBRANCH  10  11
ENDBRANCH   3   9
BRANCH   6  14
ATOM     14  O   UNL     1       3.728   4.198  18.005  0.00  0.00    +0.000 OA
BRANCH  14  15
ATOM     15  C   UNL     1       5.100   4.091  18.182  0.00  0.00    +0.000 C 
ATOM     16  O   UNL     1       5.670   3.766  19.212  0.00  0.00    +0.000 OA
BRANCH  15  17
ATOM     17  C   UNL     1       5.847   4.399  16.921  0.00  0.00    +0.000 A 
ATOM     18  C   UNL     1       5.462   3.653  15.788  0.00  0.00    +0.000 A 
ATOM     19  C   UNL     1       6.027   3.898  14.535  0.00  0.00    +0.000 A 
ATOM     20  C   UNL     1       6.975   4.902  14.390  0.00  0.00    +0.000 A 
ATOM     21  C   UNL     1       7.360   5.657  15.497  0.00  0.00    +0.000 A 
ATOM     22  C   UNL     1       6.810   5.422  16.774  0.00  0.00    +0.000 A 
ATOM     23  C   UNL     1       7.275   6.299  17.903  0.00  0.00    +0.000 C 
ENDBRANCH  15  17
ENDBRANCH  14  15
ENDBRANCH   6  14
TORSDOF 6
ENDMDL
MODEL 6
REMARK VINA RESULT:      -7.1      3.832      7.423
REMARK  Name = 
REMARK  8 active torsions:
REMARK  status: ('A' for Active; 'I' for Inactive)
REMARK    1  A    between atoms: C_1  and  O_2
REMARK    2  A    between atoms: O_2  and  C_3
REMARK    3  A    between atoms: C_5  and  C_6
REMARK    4  A    between atoms: C_7  and  N_8
REMARK    5  A    between atoms: C_13  and  O_14
REMARK    6  A    between atoms: O_14  and  C_15
REMARK    7  A    between atoms: C_15  and  C_17
REMARK    8  A    between atoms: C_22  and  C_23
REMARK                            x       y       z     vdW  Elec       q    Type
REMARK                         _______ _______ _______ _____ _____    ______ ____
ROOT
ATOM      1  C   UNL     1       2.185   5.349  19.671  0.00  0.00    +0.000 A 
ATOM      2  C   UNL     1       1.795   6.345  20.578  0.00  0.00    +0.000 A 
ATOM      3  C   UNL     1       1.816   7.704  20.225  0.00  0.00    +0.000 A 
ATOM      4  C   UNL     1       2.273   8.066  18.954  0.00  0.00    +0.000 A 
ATOM      5  C   UNL     1       2.626   7.086  18.030  0.00  0.00    +0.000 A 
ATOM      6  C   UNL     1       2.536   5.732  18.369  0.00  0.00    +0.000 A 
ENDROOT
BRANCH   1   8
ATOM      7  C   UNL     1       1.119   3.506  20.713  0.00  0.00    +0.000 C 
ATOM      8  O   UNL     1       2.241   4.016  19.988  0.00  0.00    +0.000 OA
ENDBRANCH   1   8
BRANCH   3   9
ATOM      9  C   UNL     1       1.393   8.694  21.225  0.00  0.00    +0.000 C 
ATOM     10  C   UNL     1       0.165   8.705  21.763  0.00  0.00    +0.000 C 
BRANCH  10  11
ATOM     11  N   UNL     1      -0.165   9.667  22.782  0.00  0.00    +0.000 N 
ATOM     12  O   UNL     1       0.387   9.587  23.887  0.00  0.00    +0.000 OA
ATOM     13  O   UNL     1      -1.005  10.518  22.463  0.00  0.00    +0.000 OA
ENDBRANCH  10  11
ENDBRANCH   3   9
BRANCH   6  14
ATOM     14  O   UNL     1       2.945   4.755  17.435  0.00  0.00    +0.000 OA
BRANCH  14  15
ATOM     15  C   UNL     1       4.097   4.041  17.729  0.00  0.00    +0.000 C 
ATOM     16  O   UNL     1       4.180   2.828  17.851  0.00  0.00    +0.000 OA
BRANCH  15  17
ATOM     17  C   UNL     1       5.289   4.938  17.860  0.00  0.00    +0.000 A 
ATOM     18  C   UNL     1       5.897   4.959  19.133  0.00  0.00    +0.000 A 
ATOM     19  C   UNL     1       7.061   5.696  19.365  0.00  0.00    +0.000 A 
ATOM     20  C   UNL     1       7.644   6.409  18.327  0.00  0.00    +0.000 A 
ATOM     21  C   UNL     1       7.063   6.390  17.059  0.00  0.00    +0.000 A 
ATOM     22  C   UNL     1       5.883   5.662  16.803  0.00  0.00    +0.000 A 
ATOM     23  C   UNL     1       5.341   5.689  15.402  0.00  0.00    +0.000 C 
ENDBRANCH  15  17
ENDBRANCH  14  15
ENDBRANCH   6  14
TORSDOF 6
ENDMDL
MODEL 7
REMARK VINA RESULT:      -7.1      3.942      7.387
REMARK  Name = 
REMARK  8 active torsions:
REMARK  status: ('A' for Active; 'I' for Inactive)
REMARK    1  A    between atoms: C_1  and  O_2
REMARK    2  A    between atoms: O_2  and  C_3
REMARK    3  A    between atoms: C_5  and  C_6
REMARK    4  A    between atoms: C_7  and  N_8
REMARK    5  A    between atoms: C_13  and  O_14
REMARK    6  A    between atoms: O_14  and  C_15
REMARK    7  A    between atoms: C_15  and  C_17
REMARK    8  A    between atoms: C_22  and  C_23
REMARK                            x       y       z     vdW  Elec       q    Type
REMARK                         _______ _______ _______ _____ _____    ______ ____
ROOT
ATOM      1  C   UNL     1       2.251   5.047  20.415  0.00  0.00    +0.000 A 
ATOM      2  C   UNL     1       1.641   6.203  20.922  0.00  0.00    +0.000 A 
ATOM      3  C   UNL     1       1.648   7.409  20.203  0.00  0.00    +0.000 A 
ATOM      4  C   UNL     1       2.313   7.460  18.974  0.00  0.00    +0.000 A 
ATOM      5  C   UNL     1       2.890   6.310  18.440  0.00  0.00    +0.000 A 
ATOM      6  C   UNL     1       2.818   5.099  19.134  0.00  0.00    +0.000 A 
ENDROOT
BRANCH   1   8
ATOM      7  C   UNL     1       1.206   2.989  20.952  0.00  0.00    +0.000 C 
ATOM      8  O   UNL     1       2.325   3.865  21.106  0.00  0.00    +0.000 OA
ENDBRANCH   1   8
BRANCH   3   9
ATOM      9  C   UNL     1       0.987   8.581  20.794  0.00  0.00    +0.000 C 
ATOM     10  C   UNL     1       1.209   8.984  22.053  0.00  0.00    +0.000 C 
BRANCH  10  11
ATOM     11  N   UNL     1       0.573  10.177  22.549  0.00  0.00    +0.000 N 
ATOM     12  O   UNL     1       0.651  11.220  21.888  0.00  0.00    +0.000 OA
ATOM     13  O   UNL     1      -0.011  10.060  23.633  0.00  0.00    +0.000 OA
ENDBRANCH  10  11
ENDBRANCH   3   9
BRANCH   6  14
ATOM     14  O   UNL     1       3.451   3.955  18.599  0.00  0.00    +0.000 OA
BRANCH  14  15
ATOM     15  C   UNL     1       4.761   3.716  18.989  0.00  0.00    +0.000 C 
ATOM     16  O   UNL     1       5.138   2.826  19.735  0.00  0.00    +0.000 OA
BRANCH  15  17
ATOM     17  C   UNL     1       5.713   4.683  18.356  0.00  0.00    +0.000 A 
ATOM     18  C   UNL     1       6.522   5.415  19.250  0.00  0.00    +0.000 A 
ATOM     19  C   UNL     1       7.504   6.292  18.784  0.00  0.00    +0.000 A 
ATOM     20  C   UNL     1       7.705   6.439  17.419  0.00  0.00    +0.000 A 
ATOM     21  C   UNL     1       6.923   5.715  16.520  0.00  0.00    +0.000 A 
ATOM     22  C   UNL     1       5.919   4.831  16.966  0.00  0.00    +0.000 A 
ATOM     23  C   UNL     1       5.139   4.081  15.923  0.00  0.00    +0.000 C 
ENDBRANCH  15  17
ENDBRANCH  14  15
ENDBRANCH   6  14
TORSDOF 6
ENDMDL
MODEL 8
REMARK VINA RESULT:      -7.0      3.797      7.294
REMARK  Name = 
REMARK  8 active torsions:
REMARK  status: ('A' for Active; 'I' for Inactive)
REMARK    1  A    between atoms: C_1  and  O_2
REMARK    2  A    between atoms: O_2  and  C_3
REMARK    3  A    between atoms: C_5  and  C_6
REMARK    4  A    between atoms: C_7  and  N_8
REMARK    5  A    between atoms: C_13  and  O_14
REMARK    6  A    between atoms: O_14  and  C_15
REMARK    7  A    between atoms: C_15  and  C_17
REMARK    8  A    between atoms: C_22  and  C_23
REMARK                            x       y       z     vdW  Elec       q    Type
REMARK                         _______ _______ _______ _____ _____    ______ ____
ROOT
ATOM      1  C   UNL     1       2.243   5.047  20.333  0.00  0.00    +0.000 A 
ATOM      2  C   UNL     1       1.720   6.221  20.894  0.00  0.00    +0.000 A 
ATOM      3  C   UNL     1       1.781   7.447  20.212  0.00  0.00    +0.000 A 
ATOM      4  C   UNL     1       2.412   7.497  18.965  0.00  0.00    +0.000 A 
ATOM      5  C   UNL     1       2.900   6.332  18.378  0.00  0.00    +0.000 A 
ATOM      6  C   UNL     1       2.773   5.105  19.037  0.00  0.00    +0.000 A 
ENDROOT
BRANCH   1   8
ATOM      7  C   UNL     1       1.064   3.067  20.890  0.00  0.00    +0.000 C 
ATOM      8  O   UNL     1       2.263   3.840  20.985  0.00  0.00    +0.000 OA
ENDBRANCH   1   8
BRANCH   3   9
ATOM      9  C   UNL     1       1.212   8.638  20.859  0.00  0.00    +0.000 C 
ATOM     10  C   UNL     1       0.918   9.760  20.187  0.00  0.00    +0.000 C 
BRANCH  10  11
ATOM     11  N   UNL     1       0.307  10.869  20.873  0.00  0.00    +0.000 N 
ATOM     12  O   UNL     1       1.030  11.727  21.395  0.00  0.00    +0.000 OA
ATOM     13  O   UNL     1      -0.930  10.870  20.892  0.00  0.00    +0.000 OA
ENDBRANCH  10  11
ENDBRANCH   3   9
BRANCH   6  14
ATOM     14  O   UNL     1       3.318   3.943  18.448  0.00  0.00    +0.000 OA
BRANCH  14  15
ATOM     15  C   UNL     1       4.667   3.697  18.663  0.00  0.00    +0.000 C 
ATOM     16  O   UNL     1       5.148   3.127  19.629  0.00  0.00    +0.000 OA
BRANCH  15  17
ATOM     17  C   UNL     1       5.509   4.196  17.530  0.00  0.00    +0.000 A 
ATOM     18  C   UNL     1       5.115   3.769  16.245  0.00  0.00    +0.000 A 
ATOM     19  C   UNL     1       5.771   4.225  15.099  0.00  0.00    +0.000 A 
ATOM     20  C   UNL     1       6.819   5.128  15.218  0.00  0.00    +0.000 A 
ATOM     21  C   UNL     1       7.215   5.570  16.480  0.00  0.00    +0.000 A 
ATOM     22  C   UNL     1       6.574   5.116  17.651  0.00  0.00    +0.000 A 
ATOM     23  C   UNL     1       7.060   5.663  18.964  0.00  0.00    +0.000 C 
ENDBRANCH  15  17
ENDBRANCH  14  15
ENDBRANCH   6  14
TORSDOF 6
ENDMDL
MODEL 9
REMARK VINA RESULT:      -6.9      1.857      2.878
REMARK  Name = 
REMARK  8 active torsions:
REMARK  status: ('A' for Active; 'I' for Inactive)
REMARK    1  A    between atoms: C_1  and  O_2
REMARK    2  A    between atoms: O_2  and  C_3
REMARK    3  A    between atoms: C_5  and  C_6
REMARK    4  A    between atoms: C_7  and  N_8
REMARK    5  A    between atoms: C_13  and  O_14
REMARK    6  A    between atoms: O_14  and  C_15
REMARK    7  A    between atoms: C_15  and  C_17
REMARK    8  A    between atoms: C_22  and  C_23
REMARK                            x       y       z     vdW  Elec       q    Type
REMARK                         _______ _______ _______ _____ _____    ______ ____
ROOT
ATOM      1  C   UNL     1       5.201   4.619  18.143  0.00  0.00    +0.000 A 
ATOM      2  C   UNL     1       5.825   4.230  16.949  0.00  0.00    +0.000 A 
ATOM      3  C   UNL     1       5.780   5.039  15.803  0.00  0.00    +0.000 A 
ATOM      4  C   UNL     1       5.063   6.238  15.848  0.00  0.00    +0.000 A 
ATOM      5  C   UNL     1       4.472   6.658  17.038  0.00  0.00    +0.000 A 
ATOM      6  C   UNL     1       4.580   5.875  18.192  0.00  0.00    +0.000 A 
ENDROOT
BRANCH   1   8
ATOM      7  C   UNL     1       4.287   2.709  19.207  0.00  0.00    +0.000 C 
ATOM      8  O   UNL     1       5.163   3.837  19.269  0.00  0.00    +0.000 OA
ENDBRANCH   1   8
BRANCH   3   9
ATOM      9  C   UNL     1       6.458   4.569  14.587  0.00  0.00    +0.000 C 
ATOM     10  C   UNL     1       5.810   3.971  13.577  0.00  0.00    +0.000 C 
BRANCH  10  11
ATOM     11  N   UNL     1       6.527   3.589  12.388  0.00  0.00    +0.000 N 
ATOM     12  O   UNL     1       7.414   4.335  11.954  0.00  0.00    +0.000 OA
ATOM     13  O   UNL     1       6.182   2.517  11.877  0.00  0.00    +0.000 OA
ENDBRANCH  10  11
ENDBRANCH   3   9
BRANCH   6  14
ATOM     14  O   UNL     1       3.932   6.293  19.375  0.00  0.00    +0.000 OA
BRANCH  14  15
ATOM     15  C   UNL     1       2.548   6.197  19.406  0.00  0.00    +0.000 C 
ATOM     16  O   UNL     1       1.889   5.210  19.119  0.00  0.00    +0.000 OA
BRANCH  15  17
ATOM     17  C   UNL     1       1.914   7.470  19.876  0.00  0.00    +0.000 A 
ATOM     18  C   UNL     1       1.616   7.529  21.253  0.00  0.00    +0.000 A 
ATOM     19  C   UNL     1       1.094   8.689  21.830  0.00  0.00    +0.000 A 
ATOM     20  C   UNL     1       0.876   9.812  21.044  0.00  0.00    +0.000 A 
ATOM     21  C   UNL     1       1.175   9.775  19.682  0.00  0.00    +0.000 A 
ATOM     22  C   UNL     1       1.694   8.613  19.076  0.00  0.00    +0.000 A 
ATOM     23  C   UNL     1       2.001   8.675  17.606  0.00  0.00    +0.000 C 
ENDBRANCH  15  17
ENDBRANCH  14  15
ENDBRANCH   6  14
TORSDOF 6
ENDMDL
