MODEL 1
REMARK VINA RESULT:      -8.6      0.000      0.000
REMARK  Name = 
REMARK  10 active torsions:
REMARK  status: ('A' for Active; 'I' for Inactive)
REMARK    1  A    between atoms: C_1  and  O_2
REMARK    2  A    between atoms: O_2  and  C_3
REMARK    3  A    between atoms: C_6  and  C_7
REMARK    4  A    between atoms: C_7  and  C_8
REMARK    5  A    between atoms: C_8  and  N_9
REMARK    6  A    between atoms: C_10  and  C_12
REMARK    7  A    between atoms: C_12  and  C_13
REMARK    8  A    between atoms: N_16  and  C_17
REMARK    9  A    between atoms: C_17  and  C_18
REMARK   10  A    between atoms: C_18  and  C_19
REMARK                            x       y       z     vdW  Elec       q    Type
REMARK                         _______ _______ _______ _____ _____    ______ ____
ROOT
ATOM      1  C   UNL     1       6.618   4.647  17.246  0.00  0.00    +0.000 C 
ATOM      2  S   UNL     1       7.017   5.510  18.805  0.00  0.00    +0.000 S 
ATOM      3  C   UNL     1       7.634   6.866  17.901  0.00  0.00    +0.000 C 
ATOM      4  N   UNL     1       8.272   7.810  18.641  0.00  0.00    +0.000 N 
ATOM      5  N   UNL     1       7.425   6.868  16.633  0.00  0.00    +0.000 NA
ATOM      6  C   UNL     1       6.761   5.740  16.196  0.00  0.00    +0.000 C 
ATOM      7  O   UNL     1       6.335   5.615  15.054  0.00  0.00    +0.000 OA
ATOM      8  H   UNL     1       8.214   7.680  19.644  0.00  0.00    +0.000 HD
ENDROOT
BRANCH   1   9
ATOM      9  C   UNL     1       5.228   4.030  17.204  0.00  0.00    +0.000 C 
BRANCH   9  11
ATOM     10  N   UNL     1       3.460   5.602  17.763  0.00  0.00    +0.000 N 
ATOM     11  C   UNL     1       4.321   4.638  18.246  0.00  0.00    +0.000 C 
ATOM     12  O   UNL     1       4.386   4.316  19.427  0.00  0.00    +0.000 OA
ATOM     13  H   UNL     1       3.637   5.982  16.842  0.00  0.00    +0.000 HD
BRANCH  10  14
ATOM     14  C   UNL     1       2.651   6.376  18.690  0.00  0.00    +0.000 C 
BRANCH  14  15
ATOM     15  C   UNL     1       2.268   7.750  18.138  0.00  0.00    +0.000 C 
BRANCH  15  19
ATOM     16  C   UNL     1       0.638  10.326  21.204  0.00  0.00    +0.000 A 
ATOM     17  C   UNL     1       1.017   9.016  21.509  0.00  0.00    +0.000 A 
ATOM     18  C   UNL     1       1.556   8.187  20.523  0.00  0.00    +0.000 A 
ATOM     19  C   UNL     1       1.713   8.652  19.212  0.00  0.00    +0.000 A 
ATOM     20  C   UNL     1       1.305   9.957  18.908  0.00  0.00    +0.000 A 
ATOM     21  C   UNL     1       0.771  10.790  19.899  0.00  0.00    +0.000 A 
BRANCH  16  23
ATOM     22  C   UNL     1      -0.713  10.298  23.144  0.00  0.00    +0.000 C 
ATOM     23  O   UNL     1       0.114  11.036  22.252  0.00  0.00    +0.000 OA
ENDBRANCH  16  23
ENDBRANCH  15  19
ENDBRANCH  14  15
ENDBRANCH  10  14
ENDBRANCH   9  11
ENDBRANCH   1   9
BRANCH   4  24
ATOM     24  C   UNL     1       8.396   9.183  18.176  0.00  0.00    +0.000 C 
BRANCH  24  25
ATOM     25  C   UNL     1       9.171  10.036  19.187  0.00  0.00    +0.000 C 
BRANCH  25  26
ATOM     26  C   UNL     1       9.880  11.186  18.513  0.00  0.00    +0.000 A 
ATOM     27  C   UNL     1      11.279  11.271  18.522  0.00  0.00    +0.000 A 
ATOM     28  C   UNL     1      11.924  12.366  17.944  0.00  0.00    +0.000 A 
ATOM     29  C   UNL     1      11.180  13.385  17.353  0.00  0.00    +0.000 A 
ATOM     30  C   UNL     1       9.789  13.307  17.334  0.00  0.00    +0.000 A 
ATOM     31  C   UNL     1       9.141  12.214  17.911  0.00  0.00    +0.000 A 
ENDBRANCH  25  26
ENDBRANCH  24  25
ENDBRANCH   4  24
TORSDOF 9
ENDMDL
MODEL 2
REMARK VINA RESULT:      -8.0      1.763      1.928
REMARK  Name = 
REMARK  10 active torsions:
REMARK  status: ('A' for Active; 'I' for Inactive)
REMARK    1  A    between atoms: C_1  and  O_2
REMARK    2  A    between atoms: O_2  and  C_3
REMARK    3  A    between atoms: C_6  and  C_7
REMARK    4  A    between atoms: C_7  and  C_8
REMARK    5  A    between atoms: C_8  and  N_9
REMARK    6  A    between atoms: C_10  and  C_12
REMARK    7  A    between atoms: C_12  and  C_13
REMARK    8  A    between atoms: N_16  and  C_17
REMARK    9  A    between atoms: C_17  and  C_18
REMARK   10  A    between atoms: C_18  and  C_19
REMARK                            x       y       z     vdW  Elec       q    Type
REMARK                         _______ _______ _______ _____ _____    ______ ____
ROOT
ATOM      1  C   UNL     1       6.095   5.219  17.318  0.00  0.00    +0.000 C 
ATOM      2  S   UNL     1       7.131   5.690  18.746  0.00  0.00    +0.000 S 
ATOM      3  C   UNL     1       7.530   7.196  17.966  0.00  0.00    +0.000 C 
ATOM      4  N   UNL     1       8.498   7.925  18.580  0.00  0.00    +0.000 N 
ATOM      5  N   UNL     1       6.876   7.494  16.901  0.00  0.00    +0.000 NA
ATOM      6  C   UNL     1       5.973   6.517  16.534  0.00  0.00    +0.000 C 
ATOM      7  O   UNL     1       5.149   6.670  15.640  0.00  0.00    +0.000 OA
ATOM      8  H   UNL     1       8.795   7.571  19.482  0.00  0.00    +0.000 HD
ENDROOT
BRANCH   1   9
ATOM      9  C   UNL     1       4.724   4.673  17.686  0.00  0.00    +0.000 C 
BRANCH   9  11
ATOM     10  N   UNL     1       3.057   6.439  17.791  0.00  0.00    +0.000 N 
ATOM     11  C   UNL     1       3.939   5.661  18.513  0.00  0.00    +0.000 C 
ATOM     12  O   UNL     1       4.112   5.775  19.722  0.00  0.00    +0.000 OA
ATOM     13  H   UNL     1       3.152   6.457  16.783  0.00  0.00    +0.000 HD
BRANCH  10  14
ATOM     14  C   UNL     1       2.362   7.536  18.443  0.00  0.00    +0.000 C 
BRANCH  14  15
ATOM     15  C   UNL     1       2.600   8.881  17.755  0.00  0.00    +0.000 C 
BRANCH  15  19
ATOM     16  C   UNL     1      -0.436  11.795  18.747  0.00  0.00    +0.000 A 
ATOM     17  C   UNL     1      -0.797  10.519  18.308  0.00  0.00    +0.000 A 
ATOM     18  C   UNL     1       0.182   9.572  18.000  0.00  0.00    +0.000 A 
ATOM     19  C   UNL     1       1.540   9.892  18.115  0.00  0.00    +0.000 A 
ATOM     20  C   UNL     1       1.894  11.182  18.529  0.00  0.00    +0.000 A 
ATOM     21  C   UNL     1       0.911  12.128  18.844  0.00  0.00    +0.000 A 
BRANCH  16  23
ATOM     22  C   UNL     1      -2.723  12.003  19.312  0.00  0.00    +0.000 C 
ATOM     23  O   UNL     1      -1.486  12.636  19.007  0.00  0.00    +0.000 OA
ENDBRANCH  16  23
ENDBRANCH  15  19
ENDBRANCH  14  15
ENDBRANCH  10  14
ENDBRANCH   9  11
ENDBRANCH   1   9
BRANCH   4  24
ATOM     24  C   UNL     1       8.602   9.364  18.386  0.00  0.00    +0.000 C 
BRANCH  24  25
ATOM     25  C   UNL     1       9.290  10.029  19.584  0.00  0.00    +0.000 C 
BRANCH  25  26
ATOM     26  C   UNL     1      10.147  11.195  19.153  0.00  0.00    +0.000 A 
ATOM     27  C   UNL     1      10.737  12.041  20.102  0.00  0.00    +0.000 A 
ATOM     28  C   UNL     1      11.482  13.149  19.694  0.00  0.00    +0.000 A 
ATOM     29  C   UNL     1      11.645  13.422  18.336  0.00  0.00    +0.000 A 
ATOM     30  C   UNL     1      11.067  12.583  17.385  0.00  0.00    +0.000 A 
ATOM     31  C   UNL     1      10.321  11.475  17.790  0.00  0.00    +0.000 A 
ENDBRANCH  25  26
ENDBRANCH  24  25
ENDBRANCH   4  24
TORSDOF 9
ENDMDL
MODEL 3
REMARK VINA RESULT:      -8.0      0.883      1.537
REMARK  Name = 
REMARK  10 active torsions:
REMARK  status: ('A' for Active; 'I' for Inactive)
REMARK    1  A    between atoms: C_1  and  O_2
REMARK    2  A    between atoms: O_2  and  C_3
REMARK    3  A    between atoms: C_6  and  C_7
REMARK    4  A    between atoms: C_7  and  C_8
REMARK    5  A    between atoms: C_8  and  N_9
REMARK    6  A    between atoms: C_10  and  C_12
REMARK    7  A    between atoms: C_12  and  C_13
REMARK    8  A    between atoms: N_16  and  C_17
REMARK    9  A    between atoms: C_17  and  C_18
REMARK   10  A    between atoms: C_18  and  C_19
REMARK                            x       y       z     vdW  Elec       q    Type
REMARK                         _______ _______ _______ _____ _____    ______ ____
ROOT
ATOM      1  C   UNL     1       6.216   4.907  17.258  0.00  0.00    +0.000 C 
ATOM      2  S   UNL     1       6.916   5.611  18.790  0.00  0.00    +0.000 S 
ATOM      3  C   UNL     1       7.522   6.976  17.891  0.00  0.00    +0.000 C 
ATOM      4  N   UNL     1       8.346   7.803  18.585  0.00  0.00    +0.000 N 
ATOM      5  N   UNL     1       7.134   7.092  16.672  0.00  0.00    +0.000 NA
ATOM      6  C   UNL     1       6.310   6.061  16.270  0.00  0.00    +0.000 C 
ATOM      7  O   UNL     1       5.714   6.060  15.199  0.00  0.00    +0.000 OA
ATOM      8  H   UNL     1       8.422   7.602  19.575  0.00  0.00    +0.000 HD
ENDROOT
BRANCH   1   9
ATOM      9  C   UNL     1       4.783   4.415  17.386  0.00  0.00    +0.000 C 
BRANCH   9  11
ATOM     10  N   UNL     1       3.847   6.644  17.636  0.00  0.00    +0.000 N 
ATOM     11  C   UNL     1       3.936   5.379  18.180  0.00  0.00    +0.000 C 
ATOM     12  O   UNL     1       3.410   5.057  19.240  0.00  0.00    +0.000 OA
ATOM     13  H   UNL     1       4.501   6.896  16.906  0.00  0.00    +0.000 HD
BRANCH  10  14
ATOM     14  C   UNL     1       3.197   7.707  18.385  0.00  0.00    +0.000 C 
BRANCH  14  15
ATOM     15  C   UNL     1       1.942   8.239  17.692  0.00  0.00    +0.000 C 
BRANCH  15  19
ATOM     16  C   UNL     1      -0.468  10.623  20.376  0.00  0.00    +0.000 A 
ATOM     17  C   UNL     1      -0.523  10.837  18.996  0.00  0.00    +0.000 A 
ATOM     18  C   UNL     1       0.245  10.059  18.127  0.00  0.00    +0.000 A 
ATOM     19  C   UNL     1       1.090   9.061  18.626  0.00  0.00    +0.000 A 
ATOM     20  C   UNL     1       1.161   8.871  20.011  0.00  0.00    +0.000 A 
ATOM     21  C   UNL     1       0.385   9.647  20.882  0.00  0.00    +0.000 A 
BRANCH  16  23
ATOM     22  C   UNL     1      -0.706  11.881  22.364  0.00  0.00    +0.000 C 
ATOM     23  O   UNL     1      -1.258  11.455  21.124  0.00  0.00    +0.000 OA
ENDBRANCH  16  23
ENDBRANCH  15  19
ENDBRANCH  14  15
ENDBRANCH  10  14
ENDBRANCH   9  11
ENDBRANCH   1   9
BRANCH   4  24
ATOM     24  C   UNL     1       8.531   9.193  18.194  0.00  0.00    +0.000 C 
BRANCH  24  25
ATOM     25  C   UNL     1       9.212   9.990  19.313  0.00  0.00    +0.000 C 
BRANCH  25  26
ATOM     26  C   UNL     1       9.930  11.203  18.770  0.00  0.00    +0.000 A 
ATOM     27  C   UNL     1       9.283  12.089  17.897  0.00  0.00    +0.000 A 
ATOM     28  C   UNL     1       9.970  13.177  17.357  0.00  0.00    +0.000 A 
ATOM     29  C   UNL     1      11.309  13.391  17.683  0.00  0.00    +0.000 A 
ATOM     30  C   UNL     1      11.960  12.519  18.553  0.00  0.00    +0.000 A 
ATOM     31  C   UNL     1      11.275  11.430  19.094  0.00  0.00    +0.000 A 
ENDBRANCH  25  26
ENDBRANCH  24  25
ENDBRANCH   4  24
TORSDOF 9
ENDMDL
MODEL 4
REMARK VINA RESULT:      -8.0      4.808      5.901
REMARK  Name = 
REMARK  10 active torsions:
REMARK  status: ('A' for Active; 'I' for Inactive)
REMARK    1  A    between atoms: C_1  and  O_2
REMARK    2  A    between atoms: O_2  and  C_3
REMARK    3  A    between atoms: C_6  and  C_7
REMARK    4  A    between atoms: C_7  and  C_8
REMARK    5  A    between atoms: C_8  and  N_9
REMARK    6  A    between atoms: C_10  and  C_12
REMARK    7  A    between atoms: C_12  and  C_13
REMARK    8  A    between atoms: N_16  and  C_17
REMARK    9  A    between atoms: C_17  and  C_18
REMARK   10  A    between atoms: C_18  and  C_19
REMARK                            x       y       z     vdW  Elec       q    Type
REMARK                         _______ _______ _______ _____ _____    ______ ____
ROOT
ATOM      1  C   UNL     1       2.262   2.250  18.630  0.00  0.00    +0.000 C 
ATOM      2  S   UNL     1       4.038   2.259  19.056  0.00  0.00    +0.000 S 
ATOM      3  C   UNL     1       4.341   3.410  17.783  0.00  0.00    +0.000 C 
ATOM      4  N   UNL     1       5.653   3.656  17.528  0.00  0.00    +0.000 N 
ATOM      5  N   UNL     1       3.316   3.932  17.210  0.00  0.00    +0.000 NA
ATOM      6  C   UNL     1       2.121   3.444  17.698  0.00  0.00    +0.000 C 
ATOM      7  O   UNL     1       1.032   3.917  17.395  0.00  0.00    +0.000 OA
ATOM      8  H   UNL     1       6.303   3.235  18.181  0.00  0.00    +0.000 HD
ENDROOT
BRANCH   1   9
ATOM      9  C   UNL     1       1.326   2.377  19.823  0.00  0.00    +0.000 C 
BRANCH   9  11
ATOM     10  N   UNL     1       1.120   4.764  20.237  0.00  0.00    +0.000 N 
ATOM     11  C   UNL     1       1.672   3.576  20.672  0.00  0.00    +0.000 C 
ATOM     12  O   UNL     1       2.416   3.489  21.643  0.00  0.00    +0.000 OA
ATOM     13  H   UNL     1       0.730   4.794  19.303  0.00  0.00    +0.000 HD
BRANCH  10  14
ATOM     14  C   UNL     1       1.506   6.014  20.870  0.00  0.00    +0.000 C 
BRANCH  14  15
ATOM     15  C   UNL     1       2.381   6.888  19.971  0.00  0.00    +0.000 C 
BRANCH  15  19
ATOM     16  C   UNL     1       0.497  10.690  19.136  0.00  0.00    +0.000 A 
ATOM     17  C   UNL     1       0.398  10.115  20.405  0.00  0.00    +0.000 A 
ATOM     18  C   UNL     1       1.017   8.894  20.681  0.00  0.00    +0.000 A 
ATOM     19  C   UNL     1       1.735   8.222  19.685  0.00  0.00    +0.000 A 
ATOM     20  C   UNL     1       1.807   8.790  18.407  0.00  0.00    +0.000 A 
ATOM     21  C   UNL     1       1.192  10.019  18.134  0.00  0.00    +0.000 A 
BRANCH  16  23
ATOM     22  C   UNL     1      -1.335  11.844  18.185  0.00  0.00    +0.000 C 
ATOM     23  O   UNL     1      -0.160  11.882  18.987  0.00  0.00    +0.000 OA
ENDBRANCH  16  23
ENDBRANCH  15  19
ENDBRANCH  14  15
ENDBRANCH  10  14
ENDBRANCH   9  11
ENDBRANCH   1   9
BRANCH   4  24
ATOM     24  C   UNL     1       6.084   4.893  16.896  0.00  0.00    +0.000 C 
BRANCH  24  25
ATOM     25  C   UNL     1       5.246   5.191  15.647  0.00  0.00    +0.000 C 
BRANCH  25  26
ATOM     26  C   UNL     1       5.941   4.725  14.390  0.00  0.00    +0.000 A 
ATOM     27  C   UNL     1       7.197   5.237  14.033  0.00  0.00    +0.000 A 
ATOM     28  C   UNL     1       7.808   4.843  12.842  0.00  0.00    +0.000 A 
ATOM     29  C   UNL     1       7.172   3.934  11.997  0.00  0.00    +0.000 A 
ATOM     30  C   UNL     1       5.927   3.416  12.345  0.00  0.00    +0.000 A 
ATOM     31  C   UNL     1       5.313   3.809  13.535  0.00  0.00    +0.000 A 
ENDBRANCH  25  26
ENDBRANCH  24  25
ENDBRANCH   4  24
TORSDOF 9
ENDMDL
MODEL 5
REMARK VINA RESULT:      -7.8      1.693      2.728
REMARK  Name = 
REMARK  10 active torsions:
REMARK  status: ('A' for Active; 'I' for Inactive)
REMARK    1  A    between atoms: C_1  and  O_2
REMARK    2  A    between atoms: O_2  and  C_3
REMARK    3  A    between atoms: C_6  and  C_7
REMARK    4  A    between atoms: C_7  and  C_8
REMARK    5  A    between atoms: C_8  and  N_9
REMARK    6  A    between atoms: C_10  and  C_12
REMARK    7  A    between atoms: C_12  and  C_13
REMARK    8  A    between atoms: N_16  and  C_17
REMARK    9  A    between atoms: C_17  and  C_18
REMARK   10  A    between atoms: C_18  and  C_19
REMARK                            x       y       z     vdW  Elec       q    Type
REMARK                         _______ _______ _______ _____ _____    ______ ____
ROOT
ATOM      1  C   UNL     1       6.508   4.626  17.258  0.00  0.00    +0.000 C 
ATOM      2  S   UNL     1       6.639   5.676  18.746  0.00  0.00    +0.000 S 
ATOM      3  C   UNL     1       7.586   6.833  17.852  0.00  0.00    +0.000 C 
ATOM      4  N   UNL     1       8.140   7.824  18.598  0.00  0.00    +0.000 N 
ATOM      5  N   UNL     1       7.668   6.664  16.581  0.00  0.00    +0.000 NA
ATOM      6  C   UNL     1       7.001   5.539  16.144  0.00  0.00    +0.000 C 
ATOM      7  O   UNL     1       6.831   5.279  14.958  0.00  0.00    +0.000 OA
ATOM      8  H   UNL     1       7.846   7.848  19.567  0.00  0.00    +0.000 HD
ENDROOT
BRANCH   1   9
ATOM      9  C   UNL     1       5.104   4.118  16.965  0.00  0.00    +0.000 C 
BRANCH   9  11
ATOM     10  N   UNL     1       3.426   2.573  17.806  0.00  0.00    +0.000 N 
ATOM     11  C   UNL     1       4.567   3.289  18.106  0.00  0.00    +0.000 C 
ATOM     12  O   UNL     1       5.092   3.295  19.214  0.00  0.00    +0.000 OA
ATOM     13  H   UNL     1       2.921   2.813  16.961  0.00  0.00    +0.000 HD
BRANCH  10  14
ATOM     14  C   UNL     1       2.719   1.866  18.860  0.00  0.00    +0.000 C 
BRANCH  14  15
ATOM     15  C   UNL     1       1.445   2.584  19.305  0.00  0.00    +0.000 C 
BRANCH  15  19
ATOM     16  C   UNL     1       1.997   6.861  19.633  0.00  0.00    +0.000 A 
ATOM     17  C   UNL     1       1.811   6.081  20.778  0.00  0.00    +0.000 A 
ATOM     18  C   UNL     1       1.646   4.698  20.675  0.00  0.00    +0.000 A 
ATOM     19  C   UNL     1       1.652   4.074  19.422  0.00  0.00    +0.000 A 
ATOM     20  C   UNL     1       1.810   4.865  18.278  0.00  0.00    +0.000 A 
ATOM     21  C   UNL     1       1.983   6.251  18.383  0.00  0.00    +0.000 A 
BRANCH  16  23
ATOM     22  C   UNL     1       1.312   9.054  19.076  0.00  0.00    +0.000 C 
ATOM     23  O   UNL     1       2.137   8.203  19.864  0.00  0.00    +0.000 OA
ENDBRANCH  16  23
ENDBRANCH  15  19
ENDBRANCH  14  15
ENDBRANCH  10  14
ENDBRANCH   9  11
ENDBRANCH   1   9
BRANCH   4  24
ATOM     24  C   UNL     1       8.514   9.100  18.006  0.00  0.00    +0.000 C 
BRANCH  24  25
ATOM     25  C   UNL     1       9.068  10.055  19.071  0.00  0.00    +0.000 C 
BRANCH  25  26
ATOM     26  C   UNL     1       9.614  11.319  18.450  0.00  0.00    +0.000 A 
ATOM     27  C   UNL     1      10.899  11.347  17.892  0.00  0.00    +0.000 A 
ATOM     28  C   UNL     1      11.417  12.533  17.369  0.00  0.00    +0.000 A 
ATOM     29  C   UNL     1      10.657  13.702  17.399  0.00  0.00    +0.000 A 
ATOM     30  C   UNL     1       9.376  13.683  17.947  0.00  0.00    +0.000 A 
ATOM     31  C   UNL     1       8.856  12.498  18.471  0.00  0.00    +0.000 A 
ENDBRANCH  25  26
ENDBRANCH  24  25
ENDBRANCH   4  24
TORSDOF 9
ENDMDL
MODEL 6
REMARK VINA RESULT:      -7.8      3.528      5.010
REMARK  Name = 
REMARK  10 active torsions:
REMARK  status: ('A' for Active; 'I' for Inactive)
REMARK    1  A    between atoms: C_1  and  O_2
REMARK    2  A    between atoms: O_2  and  C_3
REMARK    3  A    between atoms: C_6  and  C_7
REMARK    4  A    between atoms: C_7  and  C_8
REMARK    5  A    between atoms: C_8  and  N_9
REMARK    6  A    between atoms: C_10  and  C_12
REMARK    7  A    between atoms: C_12  and  C_13
REMARK    8  A    between atoms: N_16  and  C_17
REMARK    9  A    between atoms: C_17  and  C_18
REMARK   10  A    between atoms: C_18  and  C_19
REMARK                            x       y       z     vdW  Elec       q    Type
REMARK                         _______ _______ _______ _____ _____    ______ ____
ROOT
ATOM      1  C   UNL     1       1.810   2.452  19.022  0.00  0.00    +0.000 C 
ATOM      2  S   UNL     1       3.627   2.353  19.176  0.00  0.00    +0.000 S 
ATOM      3  C   UNL     1       3.804   3.050  17.589  0.00  0.00    +0.000 C 
ATOM      4  N   UNL     1       5.069   3.045  17.094  0.00  0.00    +0.000 N 
ATOM      5  N   UNL     1       2.743   3.518  17.034  0.00  0.00    +0.000 NA
ATOM      6  C   UNL     1       1.612   3.344  17.805  0.00  0.00    +0.000 C 
ATOM      7  O   UNL     1       0.529   3.847  17.528  0.00  0.00    +0.000 OA
ATOM      8  H   UNL     1       5.783   2.745  17.746  0.00  0.00    +0.000 HD
ENDROOT
BRANCH   1   9
ATOM      9  C   UNL     1       1.104   3.028  20.240  0.00  0.00    +0.000 C 
BRANCH   9  11
ATOM     10  N   UNL     1       1.566   5.398  19.965  0.00  0.00    +0.000 N 
ATOM     11  C   UNL     1       1.789   4.277  20.738  0.00  0.00    +0.000 C 
ATOM     12  O   UNL     1       2.513   4.267  21.728  0.00  0.00    +0.000 OA
ATOM     13  H   UNL     1       1.169   5.270  19.043  0.00  0.00    +0.000 HD
BRANCH  10  14
ATOM     14  C   UNL     1       2.298   6.623  20.244  0.00  0.00    +0.000 C 
BRANCH  14  15
ATOM     15  C   UNL     1       1.534   7.572  21.168  0.00  0.00    +0.000 C 
BRANCH  15  19
ATOM     16  C   UNL     1      -0.185  10.905  19.016  0.00  0.00    +0.000 A 
ATOM     17  C   UNL     1       0.831  10.139  18.439  0.00  0.00    +0.000 A 
ATOM     18  C   UNL     1       1.378   9.054  19.127  0.00  0.00    +0.000 A 
ATOM     19  C   UNL     1       0.925   8.725  20.410  0.00  0.00    +0.000 A 
ATOM     20  C   UNL     1      -0.074   9.514  20.993  0.00  0.00    +0.000 A 
ATOM     21  C   UNL     1      -0.627  10.598  20.299  0.00  0.00    +0.000 A 
BRANCH  16  23
ATOM     22  C   UNL     1      -1.961  11.824  17.753  0.00  0.00    +0.000 C 
ATOM     23  O   UNL     1      -0.632  11.947  18.247  0.00  0.00    +0.000 OA
ENDBRANCH  16  23
ENDBRANCH  15  19
ENDBRANCH  14  15
ENDBRANCH  10  14
ENDBRANCH   9  11
ENDBRANCH   1   9
BRANCH   4  24
ATOM     24  C   UNL     1       5.487   3.989  16.069  0.00  0.00    +0.000 C 
BRANCH  24  25
ATOM     25  C   UNL     1       5.163   5.429  16.487  0.00  0.00    +0.000 C 
BRANCH  25  26
ATOM     26  C   UNL     1       6.298   6.047  17.268  0.00  0.00    +0.000 A 
ATOM     27  C   UNL     1       6.852   5.386  18.373  0.00  0.00    +0.000 A 
ATOM     28  C   UNL     1       7.864   5.989  19.123  0.00  0.00    +0.000 A 
ATOM     29  C   UNL     1       8.331   7.256  18.776  0.00  0.00    +0.000 A 
ATOM     30  C   UNL     1       7.791   7.918  17.676  0.00  0.00    +0.000 A 
ATOM     31  C   UNL     1       6.779   7.318  16.925  0.00  0.00    +0.000 A 
ENDBRANCH  25  26
ENDBRANCH  24  25
ENDBRANCH   4  24
TORSDOF 9
ENDMDL
MODEL 7
REMARK VINA RESULT:      -7.7      1.307      1.997
REMARK  Name = 
REMARK  10 active torsions:
REMARK  status: ('A' for Active; 'I' for Inactive)
REMARK    1  A    between atoms: C_1  and  O_2
REMARK    2  A    between atoms: O_2  and  C_3
REMARK    3  A    between atoms: C_6  and  C_7
REMARK    4  A    between atoms: C_7  and  C_8
REMARK    5  A    between atoms: C_8  and  N_9
REMARK    6  A    between atoms: C_10  and  C_12
REMARK    7  A    between atoms: C_12  and  C_13
REMARK    8  A    between atoms: N_16  and  C_17
REMARK    9  A    between atoms: C_17  and  C_18
REMARK   10  A    between atoms: C_18  and  C_19
REMARK                            x       y       z     vdW  Elec       q    Type
REMARK                         _______ _______ _______ _____ _____    ______ ____
ROOT
ATOM      1  C   UNL     1       6.480   4.541  16.376  0.00  0.00    +0.000 C 
ATOM      2  S   UNL     1       7.464   4.882  17.876  0.00  0.00    +0.000 S 
ATOM      3  C   UNL     1       7.404   6.589  17.531  0.00  0.00    +0.000 C 
ATOM      4  N   UNL     1       8.196   7.364  18.318  0.00  0.00    +0.000 N 
ATOM      5  N   UNL     1       6.618   6.969  16.588  0.00  0.00    +0.000 NA
ATOM      6  C   UNL     1       5.971   5.917  15.973  0.00  0.00    +0.000 C 
ATOM      7  O   UNL     1       5.071   6.072  15.155  0.00  0.00    +0.000 OA
ATOM      8  H   UNL     1       8.640   6.880  19.089  0.00  0.00    +0.000 HD
ENDROOT
BRANCH   1   9
ATOM      9  C   UNL     1       5.325   3.573  16.585  0.00  0.00    +0.000 C 
BRANCH   9  11
ATOM     10  N   UNL     1       3.414   4.760  17.505  0.00  0.00    +0.000 N 
ATOM     11  C   UNL     1       4.496   3.952  17.788  0.00  0.00    +0.000 C 
ATOM     12  O   UNL     1       4.798   3.594  18.921  0.00  0.00    +0.000 OA
ATOM     13  H   UNL     1       3.377   5.208  16.598  0.00  0.00    +0.000 HD
BRANCH  10  14
ATOM     14  C   UNL     1       2.633   5.326  18.592  0.00  0.00    +0.000 C 
BRANCH  14  15
ATOM     15  C   UNL     1       3.258   6.595  19.172  0.00  0.00    +0.000 C 
BRANCH  15  19
ATOM     16  C   UNL     1       0.459   9.888  19.335  0.00  0.00    +0.000 A 
ATOM     17  C   UNL     1       1.113   9.573  18.141  0.00  0.00    +0.000 A 
ATOM     18  C   UNL     1       2.007   8.502  18.083  0.00  0.00    +0.000 A 
ATOM     19  C   UNL     1       2.271   7.735  19.224  0.00  0.00    +0.000 A 
ATOM     20  C   UNL     1       1.634   8.073  20.424  0.00  0.00    +0.000 A 
ATOM     21  C   UNL     1       0.731   9.144  20.479  0.00  0.00    +0.000 A 
BRANCH  16  23
ATOM     22  C   UNL     1      -1.561  10.778  18.489  0.00  0.00    +0.000 C 
ATOM     23  O   UNL     1      -0.384  10.964  19.267  0.00  0.00    +0.000 OA
ENDBRANCH  16  23
ENDBRANCH  15  19
ENDBRANCH  14  15
ENDBRANCH  10  14
ENDBRANCH   9  11
ENDBRANCH   1   9
BRANCH   4  24
ATOM     24  C   UNL     1       7.913   8.777  18.521  0.00  0.00    +0.000 C 
BRANCH  24  25
ATOM     25  C   UNL     1       8.886   9.650  17.719  0.00  0.00    +0.000 C 
BRANCH  25  26
ATOM     26  C   UNL     1       9.433  10.781  18.556  0.00  0.00    +0.000 A 
ATOM     27  C   UNL     1       9.891  11.962  17.955  0.00  0.00    +0.000 A 
ATOM     28  C   UNL     1      10.446  12.981  18.731  0.00  0.00    +0.000 A 
ATOM     29  C   UNL     1      10.549  12.830  20.113  0.00  0.00    +0.000 A 
ATOM     30  C   UNL     1      10.092  11.663  20.721  0.00  0.00    +0.000 A 
ATOM     31  C   UNL     1       9.537  10.642  19.947  0.00  0.00    +0.000 A 
ENDBRANCH  25  26
ENDBRANCH  24  25
ENDBRANCH   4  24
TORSDOF 9
ENDMDL
MODEL 8
REMARK VINA RESULT:      -7.6      3.677      5.158
REMARK  Name = 
REMARK  10 active torsions:
REMARK  status: ('A' for Active; 'I' for Inactive)
REMARK    1  A    between atoms: C_1  and  O_2
REMARK    2  A    between atoms: O_2  and  C_3
REMARK    3  A    between atoms: C_6  and  C_7
REMARK    4  A    between atoms: C_7  and  C_8
REMARK    5  A    between atoms: C_8  and  N_9
REMARK    6  A    between atoms: C_10  and  C_12
REMARK    7  A    between atoms: C_12  and  C_13
REMARK    8  A    between atoms: N_16  and  C_17
REMARK    9  A    between atoms: C_17  and  C_18
REMARK   10  A    between atoms: C_18  and  C_19
REMARK                            x       y       z     vdW  Elec       q    Type
REMARK                         _______ _______ _______ _____ _____    ______ ____
ROOT
ATOM      1  C   UNL     1       2.497   2.059  19.774  0.00  0.00    +0.000 C 
ATOM      2  S   UNL     1       4.200   2.705  19.654  0.00  0.00    +0.000 S 
ATOM      3  C   UNL     1       3.995   2.940  17.940  0.00  0.00    +0.000 C 
ATOM      4  N   UNL     1       5.125   3.276  17.264  0.00  0.00    +0.000 N 
ATOM      5  N   UNL     1       2.809   2.793  17.468  0.00  0.00    +0.000 NA
ATOM      6  C   UNL     1       1.889   2.427  18.428  0.00  0.00    +0.000 C 
ATOM      7  O   UNL     1       0.683   2.382  18.217  0.00  0.00    +0.000 OA
ATOM      8  H   UNL     1       5.932   3.467  17.847  0.00  0.00    +0.000 HD
ENDROOT
BRANCH   1   9
ATOM      9  C   UNL     1       1.680   2.642  20.918  0.00  0.00    +0.000 C 
BRANCH   9  11
ATOM     10  N   UNL     1       2.414   4.959  20.939  0.00  0.00    +0.000 N 
ATOM     11  C   UNL     1       1.364   4.099  20.687  0.00  0.00    +0.000 C 
ATOM     12  O   UNL     1       0.249   4.472  20.340  0.00  0.00    +0.000 OA
ATOM     13  H   UNL     1       3.210   4.602  21.452  0.00  0.00    +0.000 HD
BRANCH  10  14
ATOM     14  C   UNL     1       2.192   6.395  20.911  0.00  0.00    +0.000 C 
BRANCH  14  15
ATOM     15  C   UNL     1       2.451   7.007  19.533  0.00  0.00    +0.000 C 
BRANCH  15  19
ATOM     16  C   UNL     1       0.349  10.751  19.017  0.00  0.00    +0.000 A 
ATOM     17  C   UNL     1       0.391  10.130  20.268  0.00  0.00    +0.000 A 
ATOM     18  C   UNL     1       1.081   8.927  20.440  0.00  0.00    +0.000 A 
ATOM     19  C   UNL     1       1.730   8.321  19.358  0.00  0.00    +0.000 A 
ATOM     20  C   UNL     1       1.660   8.934  18.102  0.00  0.00    +0.000 A 
ATOM     21  C   UNL     1       0.973  10.144  17.932  0.00  0.00    +0.000 A 
BRANCH  16  23
ATOM     22  C   UNL     1      -1.386  11.981  17.984  0.00  0.00    +0.000 C 
ATOM     23  O   UNL     1      -0.366  11.918  18.975  0.00  0.00    +0.000 OA
ENDBRANCH  16  23
ENDBRANCH  15  19
ENDBRANCH  14  15
ENDBRANCH  10  14
ENDBRANCH   9  11
ENDBRANCH   1   9
BRANCH   4  24
ATOM     24  C   UNL     1       5.067   3.979  15.992  0.00  0.00    +0.000 C 
BRANCH  24  25
ATOM     25  C   UNL     1       6.439   4.556  15.623  0.00  0.00    +0.000 C 
BRANCH  25  26
ATOM     26  C   UNL     1       6.998   5.409  16.736  0.00  0.00    +0.000 A 
ATOM     27  C   UNL     1       7.049   6.804  16.614  0.00  0.00    +0.000 A 
ATOM     28  C   UNL     1       7.618   7.581  17.625  0.00  0.00    +0.000 A 
ATOM     29  C   UNL     1       8.140   6.973  18.766  0.00  0.00    +0.000 A 
ATOM     30  C   UNL     1       8.089   5.587  18.899  0.00  0.00    +0.000 A 
ATOM     31  C   UNL     1       7.522   4.807  17.889  0.00  0.00    +0.000 A 
ENDBRANCH  25  26
ENDBRANCH  24  25
ENDBRANCH   4  24
TORSDOF 9
ENDMDL
MODEL 9
REMARK VINA RESULT:      -7.6      3.446      9.521
REMARK  Name = 
REMARK  10 active torsions:
REMARK  status: ('A' for Active; 'I' for Inactive)
REMARK    1  A    between atoms: C_1  and  O_2
REMARK    2  A    between atoms: O_2  and  C_3
REMARK    3  A    between atoms: C_6  and  C_7
REMARK    4  A    between atoms: C_7  and  C_8
REMARK    5  A    between atoms: C_8  and  N_9
REMARK    6  A    between atoms: C_10  and  C_12
REMARK    7  A    between atoms: C_12  and  C_13
REMARK    8  A    between atoms: N_16  and  C_17
REMARK    9  A    between atoms: C_17  and  C_18
REMARK   10  A    between atoms: C_18  and  C_19
REMARK                            x       y       z     vdW  Elec       q    Type
REMARK                         _______ _______ _______ _____ _____    ______ ____
ROOT
ATOM      1  C   UNL     1       6.655   6.832  18.109  0.00  0.00    +0.000 C 
ATOM      2  S   UNL     1       6.722   5.209  18.945  0.00  0.00    +0.000 S 
ATOM      3  C   UNL     1       5.421   4.633  17.939  0.00  0.00    +0.000 C 
ATOM      4  N   UNL     1       4.914   3.422  18.290  0.00  0.00    +0.000 N 
ATOM      5  N   UNL     1       5.065   5.381  16.958  0.00  0.00    +0.000 NA
ATOM      6  C   UNL     1       5.775   6.562  16.897  0.00  0.00    +0.000 C 
ATOM      7  O   UNL     1       5.696   7.344  15.956  0.00  0.00    +0.000 OA
ATOM      8  H   UNL     1       5.424   2.939  19.020  0.00  0.00    +0.000 HD
ENDROOT
BRANCH   1   9
ATOM      9  C   UNL     1       8.010   7.381  17.687  0.00  0.00    +0.000 C 
BRANCH   9  11
ATOM     10  N   UNL     1       9.071   9.122  19.012  0.00  0.00    +0.000 N 
ATOM     11  C   UNL     1       8.144   8.845  18.028  0.00  0.00    +0.000 C 
ATOM     12  O   UNL     1       7.449   9.700  17.490  0.00  0.00    +0.000 OA
ATOM     13  H   UNL     1       9.416   8.352  19.571  0.00  0.00    +0.000 HD
BRANCH  10  14
ATOM     14  C   UNL     1       9.178  10.470  19.543  0.00  0.00    +0.000 C 
BRANCH  14  15
ATOM     15  C   UNL     1      10.626  10.901  19.778  0.00  0.00    +0.000 C 
BRANCH  15  19
ATOM     16  C   UNL     1      11.588  14.472  17.539  0.00  0.00    +0.000 A 
ATOM     17  C   UNL     1      11.629  14.481  18.935  0.00  0.00    +0.000 A 
ATOM     18  C   UNL     1      11.332  13.324  19.660  0.00  0.00    +0.000 A 
ATOM     19  C   UNL     1      10.976  12.143  18.998  0.00  0.00    +0.000 A 
ATOM     20  C   UNL     1      10.910  12.150  17.599  0.00  0.00    +0.000 A 
ATOM     21  C   UNL     1      11.215  13.309  16.873  0.00  0.00    +0.000 A 
BRANCH  16  23
ATOM     22  C   UNL     1      10.864  16.655  16.986  0.00  0.00    +0.000 C 
ATOM     23  O   UNL     1      11.889  15.669  16.944  0.00  0.00    +0.000 OA
ENDBRANCH  16  23
ENDBRANCH  15  19
ENDBRANCH  14  15
ENDBRANCH  10  14
ENDBRANCH   9  11
ENDBRANCH   1   9
BRANCH   4  24
ATOM     24  C   UNL     1       4.216   2.584  17.327  0.00  0.00    +0.000 C 
BRANCH  24  25
ATOM     25  C   UNL     1       2.707   2.851  17.362  0.00  0.00    +0.000 C 
BRANCH  25  26
ATOM     26  C   UNL     1       2.230   3.153  18.762  0.00  0.00    +0.000 A 
ATOM     27  C   UNL     1       2.148   2.138  19.727  0.00  0.00    +0.000 A 
ATOM     28  C   UNL     1       1.654   2.415  21.003  0.00  0.00    +0.000 A 
ATOM     29  C   UNL     1       1.238   3.705  21.328  0.00  0.00    +0.000 A 
ATOM     30  C   UNL     1       1.321   4.721  20.378  0.00  0.00    +0.000 A 
ATOM     31  C   UNL     1       1.813   4.448  19.101  0.00  0.00    +0.000 A 
ENDBRANCH  25  26
ENDBRANCH  24  25
ENDBRANCH   4  24
TORSDOF 9
ENDMDL
