MODEL 1
REMARK VINA RESULT:      -7.0      0.000      0.000
REMARK  Name = 
REMARK  2 active torsions:
REMARK  status: ('A' for Active; 'I' for Inactive)
REMARK    1  A    between atoms: N_1  and  C_2
REMARK    2  A    between atoms: C_19  and  C_20
REMARK                            x       y       z     vdW  Elec       q    Type
REMARK                         _______ _______ _______ _____ _____    ______ ____
ROOT
ATOM      1  C   UNL     1       2.504  14.976  18.478  0.00  0.00    +0.000 A 
ATOM      2  N   UNL     1       2.396  16.313  18.427  0.00  0.00    +0.000 NA
ATOM      3  C   UNL     1       1.159  16.787  18.528  0.00  0.00    +0.000 A 
ATOM      4  N   UNL     1       0.064  16.048  18.713  0.00  0.00    +0.000 NA
ATOM      5  C   UNL     1       0.205  14.705  18.779  0.00  0.00    +0.000 A 
ATOM      6  C   UNL     1       1.427  14.075  18.597  0.00  0.00    +0.000 A 
ATOM      7  N   UNL     1       1.756  12.704  18.711  0.00  0.00    +0.000 NA
ATOM      8  C   UNL     1       0.932  11.700  18.687  0.00  0.00    +0.000 C 
ATOM      9  C   UNL     1       1.526  10.328  18.941  0.00  0.00    +0.000 A 
ATOM     10  C   UNL     1       2.042   9.488  17.955  0.00  0.00    +0.000 A 
ATOM     11  C   UNL     1       2.163   8.102  18.217  0.00  0.00    +0.000 A 
ATOM     12  C   UNL     1       1.885   7.577  19.488  0.00  0.00    +0.000 A 
ATOM     13  C   UNL     1       1.361   8.392  20.469  0.00  0.00    +0.000 A 
ATOM     14  C   UNL     1       1.031   9.696  20.101  0.00  0.00    +0.000 A 
ATOM     15  C   UNL     1      -0.326  10.190  20.511  0.00  0.00    +0.000 C 
ATOM     16  C   UNL     1      -1.045  10.333  19.137  0.00  0.00    +0.000 C 
ATOM     17  C   UNL     1      -0.600  11.688  18.499  0.00  0.00    +0.000 C 
ATOM     18  C   UNL     1      -1.537  12.853  18.932  0.00  0.00    +0.000 C 
ATOM     19  N   UNL     1      -0.956  14.139  19.204  0.00  0.00    +0.000 N 
ATOM     20  H   UNL     1      -1.649  14.882  19.261  0.00  0.00    +0.000 HD
ENDROOT
BRANCH  18  21
ATOM     21  C   UNL     1      -2.453  12.516  20.129  0.00  0.00    +0.000 A 
ATOM     22  C   UNL     1      -3.829  12.306  19.929  0.00  0.00    +0.000 A 
ATOM     23  C   UNL     1      -4.736  12.562  20.961  0.00  0.00    +0.000 A 
ATOM     24  C   UNL     1      -4.272  12.967  22.210  0.00  0.00    +0.000 A 
ATOM     25  C   UNL     1      -2.904  12.994  22.467  0.00  0.00    +0.000 A 
ATOM     26  C   UNL     1      -1.991  12.715  21.444  0.00  0.00    +0.000 A 
ENDBRANCH  18  21
BRANCH   1  27
ATOM     27  N   UNL     1       3.822  14.495  18.409  0.00  0.00    +0.000 N 
ATOM     28  H   UNL     1       4.133  14.310  19.361  0.00  0.00    +0.000 HD
ATOM     29  H   UNL     1       3.848  13.690  17.790  0.00  0.00    +0.000 HD
ENDBRANCH   1  27
TORSDOF 2
ENDMDL
MODEL 2
REMARK VINA RESULT:      -7.0      1.368      5.192
REMARK  Name = 
REMARK  2 active torsions:
REMARK  status: ('A' for Active; 'I' for Inactive)
REMARK    1  A    between atoms: N_1  and  C_2
REMARK    2  A    between atoms: C_19  and  C_20
REMARK                            x       y       z     vdW  Elec       q    Type
REMARK                         _______ _______ _______ _____ _____    ______ ____
ROOT
ATOM      1  C   UNL     1       0.832  15.330  18.955  0.00  0.00    +0.000 A 
ATOM      2  N   UNL     1       2.040  15.903  19.068  0.00  0.00    +0.000 NA
ATOM      3  C   UNL     1       3.013  15.099  19.485  0.00  0.00    +0.000 A 
ATOM      4  N   UNL     1       2.878  13.798  19.746  0.00  0.00    +0.000 NA
ATOM      5  C   UNL     1       1.653  13.243  19.605  0.00  0.00    +0.000 A 
ATOM      6  C   UNL     1       0.533  13.988  19.266  0.00  0.00    +0.000 A 
ATOM      7  N   UNL     1      -0.788  13.555  19.005  0.00  0.00    +0.000 NA
ATOM      8  C   UNL     1      -1.316  12.417  19.343  0.00  0.00    +0.000 C 
ATOM      9  C   UNL     1      -2.723  12.148  18.846  0.00  0.00    +0.000 A 
ATOM     10  C   UNL     1      -3.889  12.502  19.525  0.00  0.00    +0.000 A 
ATOM     11  C   UNL     1      -5.102  11.843  19.211  0.00  0.00    +0.000 A 
ATOM     12  C   UNL     1      -5.177  10.925  18.153  0.00  0.00    +0.000 A 
ATOM     13  C   UNL     1      -4.031  10.554  17.483  0.00  0.00    +0.000 A 
ATOM     14  C   UNL     1      -2.822  11.043  17.975  0.00  0.00    +0.000 A 
ATOM     15  C   UNL     1      -1.715  10.045  18.158  0.00  0.00    +0.000 C 
ATOM     16  C   UNL     1      -1.565  10.012  19.708  0.00  0.00    +0.000 C 
ATOM     17  C   UNL     1      -0.702  11.243  20.135  0.00  0.00    +0.000 C 
ATOM     18  C   UNL     1       0.816  10.898  20.139  0.00  0.00    +0.000 C 
ATOM     19  N   UNL     1       1.748  11.889  19.677  0.00  0.00    +0.000 N 
ATOM     20  H   UNL     1       2.712  11.668  19.918  0.00  0.00    +0.000 HD
ENDROOT
BRANCH  18  21
ATOM     21  C   UNL     1       1.166   9.582  19.409  0.00  0.00    +0.000 A 
ATOM     22  C   UNL     1       1.367   8.399  20.142  0.00  0.00    +0.000 A 
ATOM     23  C   UNL     1       2.199   7.395  19.641  0.00  0.00    +0.000 A 
ATOM     24  C   UNL     1       2.781   7.537  18.383  0.00  0.00    +0.000 A 
ATOM     25  C   UNL     1       2.436   8.618  17.576  0.00  0.00    +0.000 A 
ATOM     26  C   UNL     1       1.584   9.615  18.065  0.00  0.00    +0.000 A 
ENDBRANCH  18  21
BRANCH   1  27
ATOM     27  N   UNL     1      -0.175  16.184  18.475  0.00  0.00    +0.000 N 
ATOM     28  H   UNL     1      -0.080  17.076  18.958  0.00  0.00    +0.000 HD
ATOM     29  H   UNL     1      -0.107  16.239  17.463  0.00  0.00    +0.000 HD
ENDBRANCH   1  27
TORSDOF 2
ENDMDL
MODEL 3
REMARK VINA RESULT:      -6.6      4.173      8.320
REMARK  Name = 
REMARK  2 active torsions:
REMARK  status: ('A' for Active; 'I' for Inactive)
REMARK    1  A    between atoms: N_1  and  C_2
REMARK    2  A    between atoms: C_19  and  C_20
REMARK                            x       y       z     vdW  Elec       q    Type
REMARK                         _______ _______ _______ _____ _____    ______ ____
ROOT
ATOM      1  C   UNL     1      -7.074  13.524  23.472  0.00  0.00    +0.000 A 
ATOM      2  N   UNL     1      -7.896  12.631  22.898  0.00  0.00    +0.000 NA
ATOM      3  C   UNL     1      -7.351  11.898  21.933  0.00  0.00    +0.000 A 
ATOM      4  N   UNL     1      -6.076  11.960  21.545  0.00  0.00    +0.000 NA
ATOM      5  C   UNL     1      -5.267  12.856  22.155  0.00  0.00    +0.000 A 
ATOM      6  C   UNL     1      -5.730  13.746  23.112  0.00  0.00    +0.000 A 
ATOM      7  N   UNL     1      -5.009  14.680  23.892  0.00  0.00    +0.000 NA
ATOM      8  C   UNL     1      -3.818  15.140  23.654  0.00  0.00    +0.000 C 
ATOM      9  C   UNL     1      -3.220  16.053  24.707  0.00  0.00    +0.000 A 
ATOM     10  C   UNL     1      -3.376  17.438  24.742  0.00  0.00    +0.000 A 
ATOM     11  C   UNL     1      -2.454  18.222  25.477  0.00  0.00    +0.000 A 
ATOM     12  C   UNL     1      -1.457  17.625  26.262  0.00  0.00    +0.000 A 
ATOM     13  C   UNL     1      -1.281  16.258  26.227  0.00  0.00    +0.000 A 
ATOM     14  C   UNL     1      -2.051  15.543  25.310  0.00  0.00    +0.000 A 
ATOM     15  C   UNL     1      -1.326  14.550  24.449  0.00  0.00    +0.000 C 
ATOM     16  C   UNL     1      -1.452  15.196  23.037  0.00  0.00    +0.000 C 
ATOM     17  C   UNL     1      -2.868  14.848  22.474  0.00  0.00    +0.000 C 
ATOM     18  C   UNL     1      -2.850  13.507  21.685  0.00  0.00    +0.000 C 
ATOM     19  N   UNL     1      -3.973  12.620  21.810  0.00  0.00    +0.000 N 
ATOM     20  H   UNL     1      -3.980  11.887  21.103  0.00  0.00    +0.000 HD
ENDROOT
BRANCH  18  21
ATOM     21  C   UNL     1      -1.582  12.655  21.914  0.00  0.00    +0.000 A 
ATOM     22  C   UNL     1      -0.551  12.648  20.958  0.00  0.00    +0.000 A 
ATOM     23  C   UNL     1       0.285  11.536  20.833  0.00  0.00    +0.000 A 
ATOM     24  C   UNL     1       0.138  10.455  21.700  0.00  0.00    +0.000 A 
ATOM     25  C   UNL     1      -0.753  10.537  22.767  0.00  0.00    +0.000 A 
ATOM     26  C   UNL     1      -1.576  11.659  22.910  0.00  0.00    +0.000 A 
ENDBRANCH  18  21
BRANCH   1  27
ATOM     27  N   UNL     1      -7.656  14.263  24.516  0.00  0.00    +0.000 N 
ATOM     28  H   UNL     1      -8.063  13.601  25.174  0.00  0.00    +0.000 HD
ATOM     29  H   UNL     1      -6.954  14.881  24.914  0.00  0.00    +0.000 HD
ENDBRANCH   1  27
TORSDOF 2
ENDMDL
MODEL 4
REMARK VINA RESULT:      -6.5      6.752      9.872
REMARK  Name = 
REMARK  2 active torsions:
REMARK  status: ('A' for Active; 'I' for Inactive)
REMARK    1  A    between atoms: N_1  and  C_2
REMARK    2  A    between atoms: C_19  and  C_20
REMARK                            x       y       z     vdW  Elec       q    Type
REMARK                         _______ _______ _______ _____ _____    ______ ____
ROOT
ATOM      1  C   UNL     1       4.209  15.044  19.966  0.00  0.00    +0.000 A 
ATOM      2  N   UNL     1       3.632  15.277  18.776  0.00  0.00    +0.000 NA
ATOM      3  C   UNL     1       4.464  15.319  17.741  0.00  0.00    +0.000 A 
ATOM      4  N   UNL     1       5.780  15.111  17.801  0.00  0.00    +0.000 NA
ATOM      5  C   UNL     1       6.331  14.860  19.010  0.00  0.00    +0.000 A 
ATOM      6  C   UNL     1       5.592  14.878  20.183  0.00  0.00    +0.000 A 
ATOM      7  N   UNL     1       5.993  14.564  21.503  0.00  0.00    +0.000 NA
ATOM      8  C   UNL     1       7.210  14.510  21.955  0.00  0.00    +0.000 C 
ATOM      9  C   UNL     1       7.382  14.040  23.386  0.00  0.00    +0.000 A 
ATOM     10  C   UNL     1       7.366  14.872  24.505  0.00  0.00    +0.000 A 
ATOM     11  C   UNL     1       7.954  14.423  25.713  0.00  0.00    +0.000 A 
ATOM     12  C   UNL     1       8.446  13.115  25.837  0.00  0.00    +0.000 A 
ATOM     13  C   UNL     1       8.481  12.285  24.737  0.00  0.00    +0.000 A 
ATOM     14  C   UNL     1       8.116  12.842  23.512  0.00  0.00    +0.000 A 
ATOM     15  C   UNL     1       9.038  12.589  22.354  0.00  0.00    +0.000 C 
ATOM     16  C   UNL     1       9.602  14.015  22.075  0.00  0.00    +0.000 C 
ATOM     17  C   UNL     1       8.543  14.794  21.230  0.00  0.00    +0.000 C 
ATOM     18  C   UNL     1       8.765  14.580  19.705  0.00  0.00    +0.000 C 
ATOM     19  N   UNL     1       7.615  14.441  18.855  0.00  0.00    +0.000 N 
ATOM     20  H   UNL     1       7.842  14.527  17.866  0.00  0.00    +0.000 HD
ENDROOT
BRANCH  18  21
ATOM     21  C   UNL     1       9.716  13.411  19.363  0.00  0.00    +0.000 A 
ATOM     22  C   UNL     1      11.101  13.631  19.265  0.00  0.00    +0.000 A 
ATOM     23  C   UNL     1      11.886  12.816  18.446  0.00  0.00    +0.000 A 
ATOM     24  C   UNL     1      11.307  11.743  17.772  0.00  0.00    +0.000 A 
ATOM     25  C   UNL     1       9.977  11.409  18.013  0.00  0.00    +0.000 A 
ATOM     26  C   UNL     1       9.192  12.208  18.851  0.00  0.00    +0.000 A 
ENDBRANCH  18  21
BRANCH   1  27
ATOM     27  N   UNL     1       3.311  14.963  21.043  0.00  0.00    +0.000 N 
ATOM     28  H   UNL     1       3.859  14.862  21.896  0.00  0.00    +0.000 HD
ATOM     29  H   UNL     1       2.699  15.774  21.025  0.00  0.00    +0.000 HD
ENDBRANCH   1  27
TORSDOF 2
ENDMDL
MODEL 5
REMARK VINA RESULT:      -6.5      2.050      6.117
REMARK  Name = 
REMARK  2 active torsions:
REMARK  status: ('A' for Active; 'I' for Inactive)
REMARK    1  A    between atoms: N_1  and  C_2
REMARK    2  A    between atoms: C_19  and  C_20
REMARK                            x       y       z     vdW  Elec       q    Type
REMARK                         _______ _______ _______ _____ _____    ______ ____
ROOT
ATOM      1  C   UNL     1       0.706   9.283  20.403  0.00  0.00    +0.000 A 
ATOM      2  N   UNL     1       1.477   8.625  19.523  0.00  0.00    +0.000 NA
ATOM      3  C   UNL     1       1.790   9.303  18.424  0.00  0.00    +0.000 A 
ATOM      4  N   UNL     1       1.435  10.564  18.171  0.00  0.00    +0.000 NA
ATOM      5  C   UNL     1       0.673  11.208  19.084  0.00  0.00    +0.000 A 
ATOM      6  C   UNL     1       0.200  10.587  20.230  0.00  0.00    +0.000 A 
ATOM      7  N   UNL     1      -0.532  11.133  21.310  0.00  0.00    +0.000 NA
ATOM      8  C   UNL     1      -1.202  12.246  21.314  0.00  0.00    +0.000 C 
ATOM      9  C   UNL     1      -1.811  12.666  22.637  0.00  0.00    +0.000 A 
ATOM     10  C   UNL     1      -3.080  12.298  23.082  0.00  0.00    +0.000 A 
ATOM     11  C   UNL     1      -3.714  13.068  24.088  0.00  0.00    +0.000 A 
ATOM     12  C   UNL     1      -3.043  14.121  24.726  0.00  0.00    +0.000 A 
ATOM     13  C   UNL     1      -1.793  14.506  24.288  0.00  0.00    +0.000 A 
ATOM     14  C   UNL     1      -1.303  13.881  23.142  0.00  0.00    +0.000 A 
ATOM     15  C   UNL     1      -0.739  14.775  22.075  0.00  0.00    +0.000 C 
ATOM     16  C   UNL     1      -1.771  14.592  20.923  0.00  0.00    +0.000 C 
ATOM     17  C   UNL     1      -1.427  13.263  20.176  0.00  0.00    +0.000 C 
ATOM     18  C   UNL     1      -0.416  13.509  19.018  0.00  0.00    +0.000 C 
ATOM     19  N   UNL     1       0.610  12.532  18.782  0.00  0.00    +0.000 N 
ATOM     20  H   UNL     1       1.078  12.659  17.886  0.00  0.00    +0.000 HD
ENDROOT
BRANCH  18  21
ATOM     21  C   UNL     1       0.282  14.886  19.071  0.00  0.00    +0.000 A 
ATOM     22  C   UNL     1      -0.368  16.029  18.575  0.00  0.00    +0.000 A 
ATOM     23  C   UNL     1       0.376  17.107  18.090  0.00  0.00    +0.000 A 
ATOM     24  C   UNL     1       1.767  17.077  18.156  0.00  0.00    +0.000 A 
ATOM     25  C   UNL     1       2.409  16.033  18.816  0.00  0.00    +0.000 A 
ATOM     26  C   UNL     1       1.666  14.961  19.324  0.00  0.00    +0.000 A 
ENDBRANCH  18  21
BRANCH   1  27
ATOM     27  N   UNL     1       0.417   8.565  21.576  0.00  0.00    +0.000 N 
ATOM     28  H   UNL     1      -0.424   8.967  21.986  0.00  0.00    +0.000 HD
ATOM     29  H   UNL     1       0.348   7.577  21.349  0.00  0.00    +0.000 HD
ENDBRANCH   1  27
TORSDOF 2
ENDMDL
MODEL 6
REMARK VINA RESULT:      -6.4      2.058      5.517
REMARK  Name = 
REMARK  2 active torsions:
REMARK  status: ('A' for Active; 'I' for Inactive)
REMARK    1  A    between atoms: N_1  and  C_2
REMARK    2  A    between atoms: C_19  and  C_20
REMARK                            x       y       z     vdW  Elec       q    Type
REMARK                         _______ _______ _______ _____ _____    ______ ____
ROOT
ATOM      1  C   UNL     1       1.297  10.352  19.112  0.00  0.00    +0.000 A 
ATOM      2  N   UNL     1       1.247   9.070  19.505  0.00  0.00    +0.000 NA
ATOM      3  C   UNL     1       0.767   8.869  20.728  0.00  0.00    +0.000 A 
ATOM      4  N   UNL     1       0.309   9.823  21.542  0.00  0.00    +0.000 NA
ATOM      5  C   UNL     1       0.355  11.104  21.112  0.00  0.00    +0.000 A 
ATOM      6  C   UNL     1       0.916  11.461  19.895  0.00  0.00    +0.000 A 
ATOM      7  N   UNL     1       0.973  12.728  19.270  0.00  0.00    +0.000 NA
ATOM      8  C   UNL     1       0.808  13.885  19.837  0.00  0.00    +0.000 C 
ATOM      9  C   UNL     1       0.807  15.095  18.923  0.00  0.00    +0.000 A 
ATOM     10  C   UNL     1       1.941  15.818  18.558  0.00  0.00    +0.000 A 
ATOM     11  C   UNL     1       1.796  17.143  18.079  0.00  0.00    +0.000 A 
ATOM     12  C   UNL     1       0.528  17.699  17.856  0.00  0.00    +0.000 A 
ATOM     13  C   UNL     1      -0.603  17.002  18.225  0.00  0.00    +0.000 A 
ATOM     14  C   UNL     1      -0.413  15.804  18.912  0.00  0.00    +0.000 A 
ATOM     15  C   UNL     1      -1.224  15.605  20.159  0.00  0.00    +0.000 C 
ATOM     16  C   UNL     1      -0.127  15.637  21.264  0.00  0.00    +0.000 C 
ATOM     17  C   UNL     1       0.543  14.226  21.318  0.00  0.00    +0.000 C 
ATOM     18  C   UNL     1      -0.202  13.282  22.307  0.00  0.00    +0.000 C 
ATOM     19  N   UNL     1      -0.359  11.899  21.952  0.00  0.00    +0.000 N 
ATOM     20  H   UNL     1      -0.652  11.320  22.736  0.00  0.00    +0.000 HD
ENDROOT
BRANCH  18  21
ATOM     21  C   UNL     1      -1.595  13.792  22.740  0.00  0.00    +0.000 A 
ATOM     22  C   UNL     1      -1.735  14.562  23.907  0.00  0.00    +0.000 A 
ATOM     23  C   UNL     1      -2.940  14.553  24.615  0.00  0.00    +0.000 A 
ATOM     24  C   UNL     1      -4.026  13.828  24.128  0.00  0.00    +0.000 A 
ATOM     25  C   UNL     1      -3.951  13.220  22.878  0.00  0.00    +0.000 A 
ATOM     26  C   UNL     1      -2.754  13.246  22.155  0.00  0.00    +0.000 A 
ENDBRANCH  18  21
BRANCH   1  27
ATOM     27  N   UNL     1       1.770  10.542  17.803  0.00  0.00    +0.000 N 
ATOM     28  H   UNL     1       2.336   9.732  17.558  0.00  0.00    +0.000 HD
ATOM     29  H   UNL     1       0.979  10.709  17.187  0.00  0.00    +0.000 HD
ENDBRANCH   1  27
TORSDOF 2
ENDMDL
MODEL 7
REMARK VINA RESULT:      -6.3      3.023      5.124
REMARK  Name = 
REMARK  2 active torsions:
REMARK  status: ('A' for Active; 'I' for Inactive)
REMARK    1  A    between atoms: N_1  and  C_2
REMARK    2  A    between atoms: C_19  and  C_20
REMARK                            x       y       z     vdW  Elec       q    Type
REMARK                         _______ _______ _______ _____ _____    ______ ____
ROOT
ATOM      1  C   UNL     1      -5.199  11.746  17.755  0.00  0.00    +0.000 A 
ATOM      2  N   UNL     1      -6.507  12.021  17.870  0.00  0.00    +0.000 NA
ATOM      3  C   UNL     1      -6.886  12.496  19.052  0.00  0.00    +0.000 A 
ATOM      4  N   UNL     1      -6.071  12.747  20.078  0.00  0.00    +0.000 NA
ATOM      5  C   UNL     1      -4.754  12.477  19.927  0.00  0.00    +0.000 A 
ATOM      6  C   UNL     1      -4.241  11.893  18.779  0.00  0.00    +0.000 A 
ATOM      7  N   UNL     1      -2.896  11.621  18.434  0.00  0.00    +0.000 NA
ATOM      8  C   UNL     1      -1.883  11.555  19.244  0.00  0.00    +0.000 C 
ATOM      9  C   UNL     1      -0.520  11.357  18.610  0.00  0.00    +0.000 A 
ATOM     10  C   UNL     1       0.057  10.119  18.331  0.00  0.00    +0.000 A 
ATOM     11  C   UNL     1       1.460  10.030  18.155  0.00  0.00    +0.000 A 
ATOM     12  C   UNL     1       2.263  11.179  18.140  0.00  0.00    +0.000 A 
ATOM     13  C   UNL     1       1.710  12.409  18.427  0.00  0.00    +0.000 A 
ATOM     14  C   UNL     1       0.375  12.425  18.830  0.00  0.00    +0.000 A 
ATOM     15  C   UNL     1       0.051  13.225  20.059  0.00  0.00    +0.000 C 
ATOM     16  C   UNL     1      -0.354  12.110  21.070  0.00  0.00    +0.000 C 
ATOM     17  C   UNL     1      -1.836  11.712  20.778  0.00  0.00    +0.000 C 
ATOM     18  C   UNL     1      -2.831  12.590  21.592  0.00  0.00    +0.000 C 
ATOM     19  N   UNL     1      -4.052  13.009  20.963  0.00  0.00    +0.000 N 
ATOM     20  H   UNL     1      -4.730  13.383  21.625  0.00  0.00    +0.000 HD
ENDROOT
BRANCH  18  21
ATOM     21  C   UNL     1      -2.194  13.853  22.215  0.00  0.00    +0.000 A 
ATOM     22  C   UNL     1      -1.590  13.789  23.482  0.00  0.00    +0.000 A 
ATOM     23  C   UNL     1      -1.529  14.927  24.290  0.00  0.00    +0.000 A 
ATOM     24  C   UNL     1      -2.011  16.144  23.814  0.00  0.00    +0.000 A 
ATOM     25  C   UNL     1      -2.436  16.254  22.493  0.00  0.00    +0.000 A 
ATOM     26  C   UNL     1      -2.478  15.121  21.672  0.00  0.00    +0.000 A 
ENDBRANCH  18  21
BRANCH   1  27
ATOM     27  N   UNL     1      -4.810  11.282  16.488  0.00  0.00    +0.000 N 
ATOM     28  H   UNL     1      -3.793  11.229  16.476  0.00  0.00    +0.000 HD
ATOM     29  H   UNL     1      -5.282  10.403  16.298  0.00  0.00    +0.000 HD
ENDBRANCH   1  27
TORSDOF 2
ENDMDL
MODEL 8
REMARK VINA RESULT:      -6.3      2.851      6.892
REMARK  Name = 
REMARK  2 active torsions:
REMARK  status: ('A' for Active; 'I' for Inactive)
REMARK    1  A    between atoms: N_1  and  C_2
REMARK    2  A    between atoms: C_19  and  C_20
REMARK                            x       y       z     vdW  Elec       q    Type
REMARK                         _______ _______ _______ _____ _____    ______ ____
ROOT
ATOM      1  C   UNL     1       0.069   9.773  22.297  0.00  0.00    +0.000 A 
ATOM      2  N   UNL     1       0.626   8.786  21.578  0.00  0.00    +0.000 NA
ATOM      3  C   UNL     1       1.021   9.129  20.356  0.00  0.00    +0.000 A 
ATOM      4  N   UNL     1       0.939  10.354  19.835  0.00  0.00    +0.000 NA
ATOM      5  C   UNL     1       0.389  11.333  20.590  0.00  0.00    +0.000 A 
ATOM      6  C   UNL     1      -0.146  11.091  21.847  0.00  0.00    +0.000 A 
ATOM      7  N   UNL     1      -0.679  12.004  22.786  0.00  0.00    +0.000 NA
ATOM      8  C   UNL     1      -1.086  13.215  22.551  0.00  0.00    +0.000 C 
ATOM      9  C   UNL     1      -1.514  14.033  23.754  0.00  0.00    +0.000 A 
ATOM     10  C   UNL     1      -2.807  14.065  24.275  0.00  0.00    +0.000 A 
ATOM     11  C   UNL     1      -3.199  15.153  25.093  0.00  0.00    +0.000 A 
ATOM     12  C   UNL     1      -2.278  16.137  25.482  0.00  0.00    +0.000 A 
ATOM     13  C   UNL     1      -1.001  16.126  24.963  0.00  0.00    +0.000 A 
ATOM     14  C   UNL     1      -0.724  15.179  23.978  0.00  0.00    +0.000 A 
ATOM     15  C   UNL     1      -0.036  15.675  22.740  0.00  0.00    +0.000 C 
ATOM     16  C   UNL     1      -1.145  15.492  21.661  0.00  0.00    +0.000 C 
ATOM     17  C   UNL     1      -1.143  13.993  21.219  0.00  0.00    +0.000 C 
ATOM     18  C   UNL     1      -0.168  13.753  20.030  0.00  0.00    +0.000 C 
ATOM     19  N   UNL     1       0.603  12.542  20.007  0.00  0.00    +0.000 N 
ATOM     20  H   UNL     1       1.037  12.366  19.103  0.00  0.00    +0.000 HD
ENDROOT
BRANCH  18  21
ATOM     21  C   UNL     1       0.818  14.915  19.778  0.00  0.00    +0.000 A 
ATOM     22  C   UNL     1       0.461  15.974  18.925  0.00  0.00    +0.000 A 
ATOM     23  C   UNL     1       1.448  16.692  18.244  0.00  0.00    +0.000 A 
ATOM     24  C   UNL     1       2.793  16.399  18.459  0.00  0.00    +0.000 A 
ATOM     25  C   UNL     1       3.156  15.482  19.441  0.00  0.00    +0.000 A 
ATOM     26  C   UNL     1       2.172  14.777  20.142  0.00  0.00    +0.000 A 
ENDBRANCH  18  21
BRANCH   1  27
ATOM     27  N   UNL     1      -0.306   9.403  23.600  0.00  0.00    +0.000 N 
ATOM     28  H   UNL     1      -1.087   9.996  23.877  0.00  0.00    +0.000 HD
ATOM     29  H   UNL     1      -0.503   8.407  23.617  0.00  0.00    +0.000 HD
ENDBRANCH   1  27
TORSDOF 2
ENDMDL
MODEL 9
REMARK VINA RESULT:      -6.3      3.271      6.649
REMARK  Name = 
REMARK  2 active torsions:
REMARK  status: ('A' for Active; 'I' for Inactive)
REMARK    1  A    between atoms: N_1  and  C_2
REMARK    2  A    between atoms: C_19  and  C_20
REMARK                            x       y       z     vdW  Elec       q    Type
REMARK                         _______ _______ _______ _____ _____    ______ ____
ROOT
ATOM      1  C   UNL     1      -4.477  11.412  16.983  0.00  0.00    +0.000 A 
ATOM      2  N   UNL     1      -4.259  10.715  15.857  0.00  0.00    +0.000 NA
ATOM      3  C   UNL     1      -3.047  10.182  15.746  0.00  0.00    +0.000 A 
ATOM      4  N   UNL     1      -2.085  10.257  16.667  0.00  0.00    +0.000 NA
ATOM      5  C   UNL     1      -2.339  10.950  17.800  0.00  0.00    +0.000 A 
ATOM      6  C   UNL     1      -3.530  11.633  18.003  0.00  0.00    +0.000 A 
ATOM      7  N   UNL     1      -3.979  12.331  19.148  0.00  0.00    +0.000 NA
ATOM      8  C   UNL     1      -3.251  12.764  20.132  0.00  0.00    +0.000 C 
ATOM      9  C   UNL     1      -3.991  13.388  21.300  0.00  0.00    +0.000 A 
ATOM     10  C   UNL     1      -4.325  14.738  21.401  0.00  0.00    +0.000 A 
ATOM     11  C   UNL     1      -4.610  15.289  22.675  0.00  0.00    +0.000 A 
ATOM     12  C   UNL     1      -4.676  14.479  23.818  0.00  0.00    +0.000 A 
ATOM     13  C   UNL     1      -4.335  13.145  23.736  0.00  0.00    +0.000 A 
ATOM     14  C   UNL     1      -3.830  12.694  22.517  0.00  0.00    +0.000 A 
ATOM     15  C   UNL     1      -2.573  11.875  22.569  0.00  0.00    +0.000 C 
ATOM     16  C   UNL     1      -1.544  12.822  21.882  0.00  0.00    +0.000 C 
ATOM     17  C   UNL     1      -1.724  12.686  20.336  0.00  0.00    +0.000 C 
ATOM     18  C   UNL     1      -0.828  11.552  19.758  0.00  0.00    +0.000 C 
ATOM     19  N   UNL     1      -1.356  10.724  18.711  0.00  0.00    +0.000 N 
ATOM     20  H   UNL     1      -0.641  10.166  18.248  0.00  0.00    +0.000 HD
ENDROOT
BRANCH  18  21
ATOM     21  C   UNL     1      -0.244  10.601  20.827  0.00  0.00    +0.000 A 
ATOM     22  C   UNL     1       1.070  10.782  21.293  0.00  0.00    +0.000 A 
ATOM     23  C   UNL     1       1.799   9.693  21.778  0.00  0.00    +0.000 A 
ATOM     24  C   UNL     1       1.202   8.437  21.860  0.00  0.00    +0.000 A 
ATOM     25  C   UNL     1      -0.154   8.293  21.579  0.00  0.00    +0.000 A 
ATOM     26  C   UNL     1      -0.894   9.386  21.114  0.00  0.00    +0.000 A 
ENDBRANCH  18  21
BRANCH   1  27
ATOM     27  N   UNL     1      -5.776  11.936  17.102  0.00  0.00    +0.000 N 
ATOM     28  H   UNL     1      -6.424  11.241  16.735  0.00  0.00    +0.000 HD
ATOM     29  H   UNL     1      -5.938  12.198  18.070  0.00  0.00    +0.000 HD
ENDBRANCH   1  27
TORSDOF 2
ENDMDL
