MODEL 1
REMARK VINA RESULT:      -7.9      0.000      0.000
REMARK  Name = 
REMARK  11 active torsions:
REMARK  status: ('A' for Active; 'I' for Inactive)
REMARK    1  A    between atoms: C_1  and  O_2
REMARK    2  A    between atoms: O_2  and  C_3
REMARK    3  A    between atoms: C_8  and  O_9
REMARK    4  A    between atoms: O_9  and  C_10
REMARK    5  A    between atoms: C_10  and  C_11
REMARK    6  A    between atoms: C_10  and  C_12
REMARK    7  A    between atoms: N_15  and  C_16
REMARK    8  A    between atoms: C_16  and  C_17
REMARK    9  A    between atoms: C_17  and  N_18
REMARK   10  A    between atoms: N_18  and  C_19
REMARK   11  A    between atoms: N_18  and  C_20
REMARK                            x       y       z     vdW  Elec       q    Type
REMARK                         _______ _______ _______ _____ _____    ______ ____
ROOT
ATOM      1  C   UNL     1       2.126   6.144  20.192  0.00  0.00    +0.000 A 
ATOM      2  C   UNL     1       1.564   7.184  20.943  0.00  0.00    +0.000 A 
ATOM      3  C   UNL     1       1.275   8.463  20.418  0.00  0.00    +0.000 A 
ATOM      4  C   UNL     1       1.703   8.712  19.131  0.00  0.00    +0.000 A 
ATOM      5  C   UNL     1       2.374   7.711  18.388  0.00  0.00    +0.000 A 
ATOM      6  C   UNL     1       2.603   6.426  18.915  0.00  0.00    +0.000 A 
ATOM      7  C   UNL     1       1.442  10.038  18.538  0.00  0.00    +0.000 A 
ATOM      8  O   UNL     1       1.897  10.256  17.411  0.00  0.00    +0.000 OA
ATOM      9  N   UNL     1       0.690  10.998  19.265  0.00  0.00    +0.000 N 
ATOM     10  C   UNL     1       0.194  10.759  20.621  0.00  0.00    +0.000 A 
ATOM     11  C   UNL     1      -0.608  11.708  21.434  0.00  0.00    +0.000 A 
ATOM     12  C   UNL     1      -0.977  13.078  21.188  0.00  0.00    +0.000 A 
ATOM     13  C   UNL     1      -1.765  13.795  22.088  0.00  0.00    +0.000 A 
ATOM     14  C   UNL     1      -2.228  13.240  23.243  0.00  0.00    +0.000 A 
ATOM     15  C   UNL     1      -1.915  11.959  23.571  0.00  0.00    +0.000 A 
ATOM     16  C   UNL     1      -1.108  11.224  22.698  0.00  0.00    +0.000 A 
ATOM     17  C   UNL     1      -0.808   9.967  23.164  0.00  0.00    +0.000 A 
ATOM     18  C   UNL     1      -0.012   9.124  22.425  0.00  0.00    +0.000 A 
ATOM     19  C   UNL     1       0.498   9.472  21.164  0.00  0.00    +0.000 A 
ATOM     20  O   UNL     1      -2.966  14.086  24.002  0.00  0.00    +0.000 OA
ATOM     21  C   UNL     1      -2.805  15.301  23.252  0.00  0.00    +0.000 C 
ATOM     22  O   UNL     1      -2.157  15.096  21.973  0.00  0.00    +0.000 OA
ENDROOT
BRANCH   1  24
ATOM     23  C   UNL     1       1.037   4.047  20.470  0.00  0.00    +0.000 C 
ATOM     24  O   UNL     1       2.185   4.869  20.693  0.00  0.00    +0.000 OA
ENDBRANCH   1  24
BRANCH   6  25
ATOM     25  O   UNL     1       3.233   5.567  18.052  0.00  0.00    +0.000 OA
BRANCH  25  26
ATOM     26  C   UNL     1       4.608   5.796  17.707  0.00  0.00    +0.000 C 
ATOM     27  C   UNL     1       5.479   5.398  18.893  0.00  0.00    +0.000 C 
ATOM     28  C   UNL     1       4.943   4.930  16.495  0.00  0.00    +0.000 C 
ENDBRANCH  25  26
ENDBRANCH   6  25
BRANCH   9  29
ATOM     29  C   UNL     1       0.424  12.223  18.507  0.00  0.00    +0.000 C 
BRANCH  29  30
ATOM     30  C   UNL     1      -0.921  12.178  17.739  0.00  0.00    +0.000 C 
BRANCH  30  31
ATOM     31  N   UNL     1      -1.808  11.049  18.109  0.00  0.00    +0.000 NA
ATOM     32  C   UNL     1      -3.128  11.559  18.505  0.00  0.00    +0.000 C 
ATOM     33  C   UNL     1      -1.977  10.105  17.000  0.00  0.00    +0.000 C 
ENDBRANCH  30  31
ENDBRANCH  29  30
ENDBRANCH   9  29
TORSDOF 6
ENDMDL
MODEL 2
REMARK VINA RESULT:      -7.8      1.156      2.011
REMARK  Name = 
REMARK  11 active torsions:
REMARK  status: ('A' for Active; 'I' for Inactive)
REMARK    1  A    between atoms: C_1  and  O_2
REMARK    2  A    between atoms: O_2  and  C_3
REMARK    3  A    between atoms: C_8  and  O_9
REMARK    4  A    between atoms: O_9  and  C_10
REMARK    5  A    between atoms: C_10  and  C_11
REMARK    6  A    between atoms: C_10  and  C_12
REMARK    7  A    between atoms: N_15  and  C_16
REMARK    8  A    between atoms: C_16  and  C_17
REMARK    9  A    between atoms: C_17  and  N_18
REMARK   10  A    between atoms: N_18  and  C_19
REMARK   11  A    between atoms: N_18  and  C_20
REMARK                            x       y       z     vdW  Elec       q    Type
REMARK                         _______ _______ _______ _____ _____    ______ ____
ROOT
ATOM      1  C   UNL     1       2.244   5.868  20.032  0.00  0.00    +0.000 A 
ATOM      2  C   UNL     1       1.690   6.904  20.793  0.00  0.00    +0.000 A 
ATOM      3  C   UNL     1       1.452   8.204  20.294  0.00  0.00    +0.000 A 
ATOM      4  C   UNL     1       1.922   8.473  19.026  0.00  0.00    +0.000 A 
ATOM      5  C   UNL     1       2.586   7.472  18.276  0.00  0.00    +0.000 A 
ATOM      6  C   UNL     1       2.765   6.168  18.776  0.00  0.00    +0.000 A 
ATOM      7  C   UNL     1       1.716   9.820  18.460  0.00  0.00    +0.000 A 
ATOM      8  O   UNL     1       2.209  10.052  17.352  0.00  0.00    +0.000 OA
ATOM      9  N   UNL     1       0.970  10.783  19.190  0.00  0.00    +0.000 N 
ATOM     10  C   UNL     1       0.430  10.524  20.525  0.00  0.00    +0.000 A 
ATOM     11  C   UNL     1      -0.369  11.475  21.340  0.00  0.00    +0.000 A 
ATOM     12  C   UNL     1      -0.692  12.861  21.119  0.00  0.00    +0.000 A 
ATOM     13  C   UNL     1      -1.486  13.578  22.015  0.00  0.00    +0.000 A 
ATOM     14  C   UNL     1      -1.996  13.008  23.142  0.00  0.00    +0.000 A 
ATOM     15  C   UNL     1      -1.729  11.710  23.446  0.00  0.00    +0.000 A 
ATOM     16  C   UNL     1      -0.918  10.974  22.577  0.00  0.00    +0.000 A 
ATOM     17  C   UNL     1      -0.666   9.698  23.018  0.00  0.00    +0.000 A 
ATOM     18  C   UNL     1       0.127   8.851  22.280  0.00  0.00    +0.000 A 
ATOM     19  C   UNL     1       0.682   9.216  21.043  0.00  0.00    +0.000 A 
ATOM     20  O   UNL     1      -2.732  13.854  23.902  0.00  0.00    +0.000 OA
ATOM     21  C   UNL     1      -2.516  15.083  23.188  0.00  0.00    +0.000 C 
ATOM     22  O   UNL     1      -1.838  14.891  21.923  0.00  0.00    +0.000 OA
ENDROOT
BRANCH   1  24
ATOM     23  C   UNL     1       1.015   3.868  20.425  0.00  0.00    +0.000 C 
ATOM     24  O   UNL     1       2.253   4.580  20.501  0.00  0.00    +0.000 OA
ENDBRANCH   1  24
BRANCH   6  25
ATOM     25  O   UNL     1       3.395   5.314  17.909  0.00  0.00    +0.000 OA
BRANCH  25  26
ATOM     26  C   UNL     1       4.796   5.483  17.646  0.00  0.00    +0.000 C 
ATOM     27  C   UNL     1       5.575   5.122  18.906  0.00  0.00    +0.000 C 
ATOM     28  C   UNL     1       5.180   4.543  16.505  0.00  0.00    +0.000 C 
ENDBRANCH  25  26
ENDBRANCH   6  25
BRANCH   9  29
ATOM     29  C   UNL     1       0.760  12.033  18.457  0.00  0.00    +0.000 C 
BRANCH  29  30
ATOM     30  C   UNL     1       2.035  12.909  18.375  0.00  0.00    +0.000 C 
BRANCH  30  31
ATOM     31  N   UNL     1       2.046  14.073  19.294  0.00  0.00    +0.000 NA
ATOM     32  C   UNL     1       2.854  13.765  20.482  0.00  0.00    +0.000 C 
ATOM     33  C   UNL     1       2.591  15.270  18.647  0.00  0.00    +0.000 C 
ENDBRANCH  30  31
ENDBRANCH  29  30
ENDBRANCH   9  29
TORSDOF 6
ENDMDL
MODEL 3
REMARK VINA RESULT:      -7.3      0.876      1.055
REMARK  Name = 
REMARK  11 active torsions:
REMARK  status: ('A' for Active; 'I' for Inactive)
REMARK    1  A    between atoms: C_1  and  O_2
REMARK    2  A    between atoms: O_2  and  C_3
REMARK    3  A    between atoms: C_8  and  O_9
REMARK    4  A    between atoms: O_9  and  C_10
REMARK    5  A    between atoms: C_10  and  C_11
REMARK    6  A    between atoms: C_10  and  C_12
REMARK    7  A    between atoms: N_15  and  C_16
REMARK    8  A    between atoms: C_16  and  C_17
REMARK    9  A    between atoms: C_17  and  N_18
REMARK   10  A    between atoms: N_18  and  C_19
REMARK   11  A    between atoms: N_18  and  C_20
REMARK                            x       y       z     vdW  Elec       q    Type
REMARK                         _______ _______ _______ _____ _____    ______ ____
ROOT
ATOM      1  C   UNL     1       2.433   6.215  20.196  0.00  0.00    +0.000 A 
ATOM      2  C   UNL     1       1.789   7.219  20.930  0.00  0.00    +0.000 A 
ATOM      3  C   UNL     1       1.333   8.432  20.369  0.00  0.00    +0.000 A 
ATOM      4  C   UNL     1       1.672   8.669  19.054  0.00  0.00    +0.000 A 
ATOM      5  C   UNL     1       2.420   7.717  18.320  0.00  0.00    +0.000 A 
ATOM      6  C   UNL     1       2.818   6.490  18.886  0.00  0.00    +0.000 A 
ATOM      7  C   UNL     1       1.237   9.929  18.421  0.00  0.00    +0.000 A 
ATOM      8  O   UNL     1       1.614  10.144  17.266  0.00  0.00    +0.000 OA
ATOM      9  N   UNL     1       0.413  10.831  19.144  0.00  0.00    +0.000 N 
ATOM     10  C   UNL     1       0.007  10.600  20.531  0.00  0.00    +0.000 A 
ATOM     11  C   UNL     1      -0.862  11.489  21.343  0.00  0.00    +0.000 A 
ATOM     12  C   UNL     1      -1.395  12.797  21.061  0.00  0.00    +0.000 A 
ATOM     13  C   UNL     1      -2.220  13.461  21.969  0.00  0.00    +0.000 A 
ATOM     14  C   UNL     1      -2.564  12.911  23.166  0.00  0.00    +0.000 A 
ATOM     15  C   UNL     1      -2.093  11.689  23.530  0.00  0.00    +0.000 A 
ATOM     16  C   UNL     1      -1.247  11.010  22.650  0.00  0.00    +0.000 A 
ATOM     17  C   UNL     1      -0.785   9.817  23.150  0.00  0.00    +0.000 A 
ATOM     18  C   UNL     1       0.068   9.036  22.408  0.00  0.00    +0.000 A 
ATOM     19  C   UNL     1       0.480   9.381  21.110  0.00  0.00    +0.000 A 
ATOM     20  O   UNL     1      -3.360  13.702  23.926  0.00  0.00    +0.000 OA
ATOM     21  C   UNL     1      -3.372  14.892  23.120  0.00  0.00    +0.000 C 
ATOM     22  O   UNL     1      -2.762  14.703  21.821  0.00  0.00    +0.000 OA
ENDROOT
BRANCH   1  24
ATOM     23  C   UNL     1       1.499   4.226  21.107  0.00  0.00    +0.000 C 
ATOM     24  O   UNL     1       2.658   4.979  20.744  0.00  0.00    +0.000 OA
ENDBRANCH   1  24
BRANCH   6  25
ATOM     25  O   UNL     1       3.503   5.670  18.029  0.00  0.00    +0.000 OA
BRANCH  25  26
ATOM     26  C   UNL     1       3.144   4.282  17.943  0.00  0.00    +0.000 C 
ATOM     27  C   UNL     1       1.708   4.180  17.443  0.00  0.00    +0.000 C 
ATOM     28  C   UNL     1       4.093   3.608  16.954  0.00  0.00    +0.000 C 
ENDBRANCH  25  26
ENDBRANCH   6  25
BRANCH   9  29
ATOM     29  C   UNL     1      -0.025  11.982  18.352  0.00  0.00    +0.000 C 
BRANCH  29  30
ATOM     30  C   UNL     1      -1.515  11.901  17.938  0.00  0.00    +0.000 C 
BRANCH  30  31
ATOM     31  N   UNL     1      -1.877  10.690  17.162  0.00  0.00    +0.000 NA
ATOM     32  C   UNL     1      -2.730   9.811  17.974  0.00  0.00    +0.000 C 
ATOM     33  C   UNL     1      -2.588  11.030  15.925  0.00  0.00    +0.000 C 
ENDBRANCH  30  31
ENDBRANCH  29  30
ENDBRANCH   9  29
TORSDOF 6
ENDMDL
MODEL 4
REMARK VINA RESULT:      -7.2      1.516      2.195
REMARK  Name = 
REMARK  11 active torsions:
REMARK  status: ('A' for Active; 'I' for Inactive)
REMARK    1  A    between atoms: C_1  and  O_2
REMARK    2  A    between atoms: O_2  and  C_3
REMARK    3  A    between atoms: C_8  and  O_9
REMARK    4  A    between atoms: O_9  and  C_10
REMARK    5  A    between atoms: C_10  and  C_11
REMARK    6  A    between atoms: C_10  and  C_12
REMARK    7  A    between atoms: N_15  and  C_16
REMARK    8  A    between atoms: C_16  and  C_17
REMARK    9  A    between atoms: C_17  and  N_18
REMARK   10  A    between atoms: N_18  and  C_19
REMARK   11  A    between atoms: N_18  and  C_20
REMARK                            x       y       z     vdW  Elec       q    Type
REMARK                         _______ _______ _______ _____ _____    ______ ____
ROOT
ATOM      1  C   UNL     1       2.405   5.440  20.185  0.00  0.00    +0.000 A 
ATOM      2  C   UNL     1       1.839   6.503  20.899  0.00  0.00    +0.000 A 
ATOM      3  C   UNL     1       1.628   7.789  20.355  0.00  0.00    +0.000 A 
ATOM      4  C   UNL     1       2.138   8.017  19.095  0.00  0.00    +0.000 A 
ATOM      5  C   UNL     1       2.814   6.989  18.394  0.00  0.00    +0.000 A 
ATOM      6  C   UNL     1       2.966   5.698  18.937  0.00  0.00    +0.000 A 
ATOM      7  C   UNL     1       1.961   9.349  18.484  0.00  0.00    +0.000 A 
ATOM      8  O   UNL     1       2.489   9.544  17.385  0.00  0.00    +0.000 OA
ATOM      9  N   UNL     1       1.204  10.339  19.164  0.00  0.00    +0.000 N 
ATOM     10  C   UNL     1       0.622  10.124  20.489  0.00  0.00    +0.000 A 
ATOM     11  C   UNL     1      -0.192  11.105  21.251  0.00  0.00    +0.000 A 
ATOM     12  C   UNL     1      -0.496  12.487  20.982  0.00  0.00    +0.000 A 
ATOM     13  C   UNL     1      -1.308  13.236  21.832  0.00  0.00    +0.000 A 
ATOM     14  C   UNL     1      -1.857  12.703  22.959  0.00  0.00    +0.000 A 
ATOM     15  C   UNL     1      -1.611  11.413  23.309  0.00  0.00    +0.000 A 
ATOM     16  C   UNL     1      -0.782  10.645  22.486  0.00  0.00    +0.000 A 
ATOM     17  C   UNL     1      -0.555   9.380  22.971  0.00  0.00    +0.000 A 
ATOM     18  C   UNL     1       0.251   8.505  22.282  0.00  0.00    +0.000 A 
ATOM     19  C   UNL     1       0.846   8.829  21.052  0.00  0.00    +0.000 A 
ATOM     20  O   UNL     1      -2.606  13.578  23.673  0.00  0.00    +0.000 OA
ATOM     21  C   UNL     1      -2.358  14.784  22.930  0.00  0.00    +0.000 C 
ATOM     22  O   UNL     1      -1.645  14.549  21.692  0.00  0.00    +0.000 OA
ENDROOT
BRANCH   1  24
ATOM     23  C   UNL     1       1.103   3.556  20.832  0.00  0.00    +0.000 C 
ATOM     24  O   UNL     1       2.388   4.166  20.691  0.00  0.00    +0.000 OA
ENDBRANCH   1  24
BRANCH   6  25
ATOM     25  O   UNL     1       3.613   4.814  18.114  0.00  0.00    +0.000 OA
BRANCH  25  26
ATOM     26  C   UNL     1       2.843   3.928  17.286  0.00  0.00    +0.000 C 
ATOM     27  C   UNL     1       3.062   2.498  17.768  0.00  0.00    +0.000 C 
ATOM     28  C   UNL     1       1.371   4.309  17.426  0.00  0.00    +0.000 C 
ENDBRANCH  25  26
ENDBRANCH   6  25
BRANCH   9  29
ATOM     29  C   UNL     1       1.027  11.569  18.389  0.00  0.00    +0.000 C 
BRANCH  29  30
ATOM     30  C   UNL     1       2.133  12.619  18.659  0.00  0.00    +0.000 C 
BRANCH  30  31
ATOM     31  N   UNL     1       1.891  13.945  18.041  0.00  0.00    +0.000 NA
ATOM     32  C   UNL     1       0.934  14.708  18.853  0.00  0.00    +0.000 C 
ATOM     33  C   UNL     1       3.130  14.720  17.915  0.00  0.00    +0.000 C 
ENDBRANCH  30  31
ENDBRANCH  29  30
ENDBRANCH   9  29
TORSDOF 6
ENDMDL
MODEL 5
REMARK VINA RESULT:      -6.6      2.197      4.352
REMARK  Name = 
REMARK  11 active torsions:
REMARK  status: ('A' for Active; 'I' for Inactive)
REMARK    1  A    between atoms: C_1  and  O_2
REMARK    2  A    between atoms: O_2  and  C_3
REMARK    3  A    between atoms: C_8  and  O_9
REMARK    4  A    between atoms: O_9  and  C_10
REMARK    5  A    between atoms: C_10  and  C_11
REMARK    6  A    between atoms: C_10  and  C_12
REMARK    7  A    between atoms: N_15  and  C_16
REMARK    8  A    between atoms: C_16  and  C_17
REMARK    9  A    between atoms: C_17  and  N_18
REMARK   10  A    between atoms: N_18  and  C_19
REMARK   11  A    between atoms: N_18  and  C_20
REMARK                            x       y       z     vdW  Elec       q    Type
REMARK                         _______ _______ _______ _____ _____    ______ ____
ROOT
ATOM      1  C   UNL     1       2.629   6.848  18.845  0.00  0.00    +0.000 A 
ATOM      2  C   UNL     1       2.327   8.186  18.566  0.00  0.00    +0.000 A 
ATOM      3  C   UNL     1       1.640   9.038  19.460  0.00  0.00    +0.000 A 
ATOM      4  C   UNL     1       1.137   8.456  20.603  0.00  0.00    +0.000 A 
ATOM      5  C   UNL     1       1.333   7.076  20.856  0.00  0.00    +0.000 A 
ATOM      6  C   UNL     1       2.067   6.259  19.975  0.00  0.00    +0.000 A 
ATOM      7  C   UNL     1       0.396   9.295  21.565  0.00  0.00    +0.000 A 
ATOM      8  O   UNL     1      -0.103   8.733  22.543  0.00  0.00    +0.000 OA
ATOM      9  N   UNL     1       0.286  10.693  21.339  0.00  0.00    +0.000 N 
ATOM     10  C   UNL     1       0.833  11.352  20.152  0.00  0.00    +0.000 A 
ATOM     11  C   UNL     1       0.770  12.806  19.858  0.00  0.00    +0.000 A 
ATOM     12  C   UNL     1       0.082  13.874  20.537  0.00  0.00    +0.000 A 
ATOM     13  C   UNL     1       0.171  15.195  20.097  0.00  0.00    +0.000 A 
ATOM     14  C   UNL     1       0.909  15.545  19.008  0.00  0.00    +0.000 A 
ATOM     15  C   UNL     1       1.577  14.603  18.290  0.00  0.00    +0.000 A 
ATOM     16  C   UNL     1       1.488  13.269  18.694  0.00  0.00    +0.000 A 
ATOM     17  C   UNL     1       2.150  12.402  17.859  0.00  0.00    +0.000 A 
ATOM     18  C   UNL     1       2.147  11.051  18.114  0.00  0.00    +0.000 A 
ATOM     19  C   UNL     1       1.515  10.492  19.236  0.00  0.00    +0.000 A 
ATOM     20  O   UNL     1       0.869  16.868  18.718  0.00  0.00    +0.000 OA
ATOM     21  C   UNL     1      -0.102  17.306  19.684  0.00  0.00    +0.000 C 
ATOM     22  O   UNL     1      -0.450  16.279  20.644  0.00  0.00    +0.000 OA
ENDROOT
BRANCH   1  24
ATOM     23  C   UNL     1       4.422   6.900  17.282  0.00  0.00    +0.000 C 
ATOM     24  O   UNL     1       3.478   6.137  18.037  0.00  0.00    +0.000 OA
ENDBRANCH   1  24
BRANCH   6  25
ATOM     25  O   UNL     1       2.192   4.957  20.386  0.00  0.00    +0.000 OA
BRANCH  25  26
ATOM     26  C   UNL     1       1.109   4.040  20.163  0.00  0.00    +0.000 C 
ATOM     27  C   UNL     1       1.222   3.488  18.747  0.00  0.00    +0.000 C 
ATOM     28  C   UNL     1       1.233   2.907  21.180  0.00  0.00    +0.000 C 
ENDBRANCH  25  26
ENDBRANCH   6  25
BRANCH   9  29
ATOM     29  C   UNL     1      -0.383  11.406  22.428  0.00  0.00    +0.000 C 
BRANCH  29  30
ATOM     30  C   UNL     1      -1.889  11.649  22.158  0.00  0.00    +0.000 C 
BRANCH  30  31
ATOM     31  N   UNL     1      -2.601  12.382  23.233  0.00  0.00    +0.000 NA
ATOM     32  C   UNL     1      -1.861  13.603  23.580  0.00  0.00    +0.000 C 
ATOM     33  C   UNL     1      -3.962  12.749  22.831  0.00  0.00    +0.000 C 
ENDBRANCH  30  31
ENDBRANCH  29  30
ENDBRANCH   9  29
TORSDOF 6
ENDMDL
MODEL 6
REMARK VINA RESULT:      -6.3      1.039      1.251
REMARK  Name = 
REMARK  11 active torsions:
REMARK  status: ('A' for Active; 'I' for Inactive)
REMARK    1  A    between atoms: C_1  and  O_2
REMARK    2  A    between atoms: O_2  and  C_3
REMARK    3  A    between atoms: C_8  and  O_9
REMARK    4  A    between atoms: O_9  and  C_10
REMARK    5  A    between atoms: C_10  and  C_11
REMARK    6  A    between atoms: C_10  and  C_12
REMARK    7  A    between atoms: N_15  and  C_16
REMARK    8  A    between atoms: C_16  and  C_17
REMARK    9  A    between atoms: C_17  and  N_18
REMARK   10  A    between atoms: N_18  and  C_19
REMARK   11  A    between atoms: N_18  and  C_20
REMARK                            x       y       z     vdW  Elec       q    Type
REMARK                         _______ _______ _______ _____ _____    ______ ____
ROOT
ATOM      1  C   UNL     1       2.484   6.655  20.183  0.00  0.00    +0.000 A 
ATOM      2  C   UNL     1       1.830   7.662  20.901  0.00  0.00    +0.000 A 
ATOM      3  C   UNL     1       1.098   8.709  20.297  0.00  0.00    +0.000 A 
ATOM      4  C   UNL     1       1.161   8.790  18.922  0.00  0.00    +0.000 A 
ATOM      5  C   UNL     1       1.909   7.846  18.177  0.00  0.00    +0.000 A 
ATOM      6  C   UNL     1       2.587   6.781  18.800  0.00  0.00    +0.000 A 
ATOM      7  C   UNL     1       0.429   9.874  18.238  0.00  0.00    +0.000 A 
ATOM      8  O   UNL     1       0.561   9.964  17.014  0.00  0.00    +0.000 OA
ATOM      9  N   UNL     1      -0.387  10.757  18.993  0.00  0.00    +0.000 N 
ATOM     10  C   UNL     1      -0.503  10.682  20.450  0.00  0.00    +0.000 A 
ATOM     11  C   UNL     1      -1.346  11.560  21.302  0.00  0.00    +0.000 A 
ATOM     12  C   UNL     1      -2.119  12.729  20.972  0.00  0.00    +0.000 A 
ATOM     13  C   UNL     1      -2.866  13.406  21.935  0.00  0.00    +0.000 A 
ATOM     14  C   UNL     1      -2.906  12.999  23.234  0.00  0.00    +0.000 A 
ATOM     15  C   UNL     1      -2.193  11.917  23.646  0.00  0.00    +0.000 A 
ATOM     16  C   UNL     1      -1.417  11.233  22.706  0.00  0.00    +0.000 A 
ATOM     17  C   UNL     1      -0.694  10.199  23.248  0.00  0.00    +0.000 A 
ATOM     18  C   UNL     1       0.129   9.435  22.454  0.00  0.00    +0.000 A 
ATOM     19  C   UNL     1       0.248   9.636  21.069  0.00  0.00    +0.000 A 
ATOM     20  O   UNL     1      -3.671  13.782  24.033  0.00  0.00    +0.000 OA
ATOM     21  C   UNL     1      -4.010  14.828  23.106  0.00  0.00    +0.000 C 
ATOM     22  O   UNL     1      -3.614  14.530  21.746  0.00  0.00    +0.000 OA
ENDROOT
BRANCH   1  24
ATOM     23  C   UNL     1       2.114   4.436  20.957  0.00  0.00    +0.000 C 
ATOM     24  O   UNL     1       2.993   5.554  20.822  0.00  0.00    +0.000 OA
ENDBRANCH   1  24
BRANCH   6  25
ATOM     25  O   UNL     1       3.232   5.939  17.932  0.00  0.00    +0.000 OA
BRANCH  25  26
ATOM     26  C   UNL     1       4.667   5.958  17.866  0.00  0.00    +0.000 C 
ATOM     27  C   UNL     1       5.177   4.525  17.971  0.00  0.00    +0.000 C 
ATOM     28  C   UNL     1       5.071   6.562  16.524  0.00  0.00    +0.000 C 
ENDBRANCH  25  26
ENDBRANCH   6  25
BRANCH   9  29
ATOM     29  C   UNL     1      -1.131  11.710  18.167  0.00  0.00    +0.000 C 
BRANCH  29  30
ATOM     30  C   UNL     1      -2.614  11.309  17.968  0.00  0.00    +0.000 C 
BRANCH  30  31
ATOM     31  N   UNL     1      -3.087  11.364  16.563  0.00  0.00    +0.000 NA
ATOM     32  C   UNL     1      -2.658  10.157  15.843  0.00  0.00    +0.000 C 
ATOM     33  C   UNL     1      -4.547  11.470  16.485  0.00  0.00    +0.000 C 
ENDBRANCH  30  31
ENDBRANCH  29  30
ENDBRANCH   9  29
TORSDOF 6
ENDMDL
MODEL 7
REMARK VINA RESULT:      -6.2      1.339      1.700
REMARK  Name = 
REMARK  11 active torsions:
REMARK  status: ('A' for Active; 'I' for Inactive)
REMARK    1  A    between atoms: C_1  and  O_2
REMARK    2  A    between atoms: O_2  and  C_3
REMARK    3  A    between atoms: C_8  and  O_9
REMARK    4  A    between atoms: O_9  and  C_10
REMARK    5  A    between atoms: C_10  and  C_11
REMARK    6  A    between atoms: C_10  and  C_12
REMARK    7  A    between atoms: N_15  and  C_16
REMARK    8  A    between atoms: C_16  and  C_17
REMARK    9  A    between atoms: C_17  and  N_18
REMARK   10  A    between atoms: N_18  and  C_19
REMARK   11  A    between atoms: N_18  and  C_20
REMARK                            x       y       z     vdW  Elec       q    Type
REMARK                         _______ _______ _______ _____ _____    ______ ____
ROOT
ATOM      1  C   UNL     1       2.794   5.095  20.143  0.00  0.00    +0.000 A 
ATOM      2  C   UNL     1       2.218   6.154  20.856  0.00  0.00    +0.000 A 
ATOM      3  C   UNL     1       1.832   7.379  20.268  0.00  0.00    +0.000 A 
ATOM      4  C   UNL     1       2.174   7.562  18.945  0.00  0.00    +0.000 A 
ATOM      5  C   UNL     1       2.857   6.549  18.230  0.00  0.00    +0.000 A 
ATOM      6  C   UNL     1       3.184   5.315  18.824  0.00  0.00    +0.000 A 
ATOM      7  C   UNL     1       1.811   8.831  18.284  0.00  0.00    +0.000 A 
ATOM      8  O   UNL     1       2.191   8.994  17.122  0.00  0.00    +0.000 OA
ATOM      9  N   UNL     1       1.048   9.798  18.991  0.00  0.00    +0.000 N 
ATOM     10  C   UNL     1       0.641   9.626  20.385  0.00  0.00    +0.000 A 
ATOM     11  C   UNL     1      -0.166  10.585  21.181  0.00  0.00    +0.000 A 
ATOM     12  C   UNL     1      -0.622  11.916  20.870  0.00  0.00    +0.000 A 
ATOM     13  C   UNL     1      -1.397  12.651  21.766  0.00  0.00    +0.000 A 
ATOM     14  C   UNL     1      -1.765  12.152  22.979  0.00  0.00    +0.000 A 
ATOM     15  C   UNL     1      -1.366  10.913  23.370  0.00  0.00    +0.000 A 
ATOM     16  C   UNL     1      -0.570  10.163  22.501  0.00  0.00    +0.000 A 
ATOM     17  C   UNL     1      -0.177   8.956  23.028  0.00  0.00    +0.000 A 
ATOM     18  C   UNL     1       0.622   8.107  22.300  0.00  0.00    +0.000 A 
ATOM     19  C   UNL     1       1.043   8.395  20.991  0.00  0.00    +0.000 A 
ATOM     20  O   UNL     1      -2.505  13.008  23.724  0.00  0.00    +0.000 OA
ATOM     21  C   UNL     1      -2.452  14.177  22.889  0.00  0.00    +0.000 C 
ATOM     22  O   UNL     1      -1.865  13.919  21.591  0.00  0.00    +0.000 OA
ENDROOT
BRANCH   1  24
ATOM     23  C   UNL     1       1.899   3.432  21.589  0.00  0.00    +0.000 C 
ATOM     24  O   UNL     1       2.948   3.862  20.720  0.00  0.00    +0.000 OA
ENDBRANCH   1  24
BRANCH   6  25
ATOM     25  O   UNL     1       3.812   4.433  17.983  0.00  0.00    +0.000 OA
BRANCH  25  26
ATOM     26  C   UNL     1       3.033   3.450  17.284  0.00  0.00    +0.000 C 
ATOM     27  C   UNL     1       3.368   2.074  17.847  0.00  0.00    +0.000 C 
ATOM     28  C   UNL     1       1.557   3.766  17.513  0.00  0.00    +0.000 C 
ENDBRANCH  25  26
ENDBRANCH   6  25
BRANCH   9  29
ATOM     29  C   UNL     1       0.675  10.954  18.172  0.00  0.00    +0.000 C 
BRANCH  29  30
ATOM     30  C   UNL     1      -0.713  10.798  17.503  0.00  0.00    +0.000 C 
BRANCH  30  31
ATOM     31  N   UNL     1      -1.550  12.022  17.523  0.00  0.00    +0.000 NA
ATOM     32  C   UNL     1      -2.764  11.785  18.315  0.00  0.00    +0.000 C 
ATOM     33  C   UNL     1      -0.828  13.165  18.092  0.00  0.00    +0.000 C 
ENDBRANCH  30  31
ENDBRANCH  29  30
ENDBRANCH   9  29
TORSDOF 6
ENDMDL
MODEL 8
REMARK VINA RESULT:      -6.2      1.895      8.371
REMARK  Name = 
REMARK  11 active torsions:
REMARK  status: ('A' for Active; 'I' for Inactive)
REMARK    1  A    between atoms: C_1  and  O_2
REMARK    2  A    between atoms: O_2  and  C_3
REMARK    3  A    between atoms: C_8  and  O_9
REMARK    4  A    between atoms: O_9  and  C_10
REMARK    5  A    between atoms: C_10  and  C_11
REMARK    6  A    between atoms: C_10  and  C_12
REMARK    7  A    between atoms: N_15  and  C_16
REMARK    8  A    between atoms: C_16  and  C_17
REMARK    9  A    between atoms: C_17  and  N_18
REMARK   10  A    between atoms: N_18  and  C_19
REMARK   11  A    between atoms: N_18  and  C_20
REMARK                            x       y       z     vdW  Elec       q    Type
REMARK                         _______ _______ _______ _____ _____    ______ ____
ROOT
ATOM      1  C   UNL     1      -2.996  13.260  23.640  0.00  0.00    +0.000 A 
ATOM      2  C   UNL     1      -2.384  12.127  23.090  0.00  0.00    +0.000 A 
ATOM      3  C   UNL     1      -1.583  12.155  21.926  0.00  0.00    +0.000 A 
ATOM      4  C   UNL     1      -1.530  13.351  21.243  0.00  0.00    +0.000 A 
ATOM      5  C   UNL     1      -2.232  14.485  21.719  0.00  0.00    +0.000 A 
ATOM      6  C   UNL     1      -2.981  14.447  22.911  0.00  0.00    +0.000 A 
ATOM      7  C   UNL     1      -0.722  13.433  20.011  0.00  0.00    +0.000 A 
ATOM      8  O   UNL     1      -0.750  14.496  19.383  0.00  0.00    +0.000 OA
ATOM      9  N   UNL     1       0.046  12.312  19.598  0.00  0.00    +0.000 N 
ATOM     10  C   UNL     1       0.038  11.036  20.314  0.00  0.00    +0.000 A 
ATOM     11  C   UNL     1       0.824   9.830  19.950  0.00  0.00    +0.000 A 
ATOM     12  C   UNL     1       1.645   9.554  18.799  0.00  0.00    +0.000 A 
ATOM     13  C   UNL     1       2.323   8.343  18.659  0.00  0.00    +0.000 A 
ATOM     14  C   UNL     1       2.247   7.361  19.598  0.00  0.00    +0.000 A 
ATOM     15  C   UNL     1       1.480   7.521  20.710  0.00  0.00    +0.000 A 
ATOM     16  C   UNL     1       0.772   8.715  20.865  0.00  0.00    +0.000 A 
ATOM     17  C   UNL     1      -0.015   8.738  21.992  0.00  0.00    +0.000 A 
ATOM     18  C   UNL     1      -0.784   9.841  22.280  0.00  0.00    +0.000 A 
ATOM     19  C   UNL     1      -0.783  10.997  21.483  0.00  0.00    +0.000 A 
ATOM     20  O   UNL     1       2.958   6.249  19.291  0.00  0.00    +0.000 OA
ATOM     21  C   UNL     1       3.394   6.590  17.965  0.00  0.00    +0.000 C 
ATOM     22  O   UNL     1       3.107   7.964  17.609  0.00  0.00    +0.000 OA
ENDROOT
BRANCH   1  24
ATOM     23  C   UNL     1      -4.731  12.375  25.007  0.00  0.00    +0.000 C 
ATOM     24  O   UNL     1      -3.579  13.211  24.880  0.00  0.00    +0.000 OA
ENDBRANCH   1  24
BRANCH   6  25
ATOM     25  O   UNL     1      -3.568  15.639  23.246  0.00  0.00    +0.000 OA
BRANCH  25  26
ATOM     26  C   UNL     1      -3.208  16.281  24.479  0.00  0.00    +0.000 C 
ATOM     27  C   UNL     1      -1.748  16.712  24.395  0.00  0.00    +0.000 C 
ATOM     28  C   UNL     1      -4.107  17.503  24.656  0.00  0.00    +0.000 C 
ENDBRANCH  25  26
ENDBRANCH   6  25
BRANCH   9  29
ATOM     29  C   UNL     1       0.875  12.578  18.421  0.00  0.00    +0.000 C 
BRANCH  29  30
ATOM     30  C   UNL     1       2.318  13.010  18.782  0.00  0.00    +0.000 C 
BRANCH  30  31
ATOM     31  N   UNL     1       2.541  14.476  18.794  0.00  0.00    +0.000 NA
ATOM     32  C   UNL     1       2.745  14.940  20.173  0.00  0.00    +0.000 C 
ATOM     33  C   UNL     1       3.707  14.855  17.989  0.00  0.00    +0.000 C 
ENDBRANCH  30  31
ENDBRANCH  29  30
ENDBRANCH   9  29
TORSDOF 6
ENDMDL
MODEL 9
REMARK VINA RESULT:      -6.1      1.040      1.247
REMARK  Name = 
REMARK  11 active torsions:
REMARK  status: ('A' for Active; 'I' for Inactive)
REMARK    1  A    between atoms: C_1  and  O_2
REMARK    2  A    between atoms: O_2  and  C_3
REMARK    3  A    between atoms: C_8  and  O_9
REMARK    4  A    between atoms: O_9  and  C_10
REMARK    5  A    between atoms: C_10  and  C_11
REMARK    6  A    between atoms: C_10  and  C_12
REMARK    7  A    between atoms: N_15  and  C_16
REMARK    8  A    between atoms: C_16  and  C_17
REMARK    9  A    between atoms: C_17  and  N_18
REMARK   10  A    between atoms: N_18  and  C_19
REMARK   11  A    between atoms: N_18  and  C_20
REMARK                            x       y       z     vdW  Elec       q    Type
REMARK                         _______ _______ _______ _____ _____    ______ ____
ROOT
ATOM      1  C   UNL     1       2.281   5.363  19.766  0.00  0.00    +0.000 A 
ATOM      2  C   UNL     1       1.755   6.370  20.584  0.00  0.00    +0.000 A 
ATOM      3  C   UNL     1       1.589   7.710  20.169  0.00  0.00    +0.000 A 
ATOM      4  C   UNL     1       2.103   8.042  18.934  0.00  0.00    +0.000 A 
ATOM      5  C   UNL     1       2.740   7.064  18.132  0.00  0.00    +0.000 A 
ATOM      6  C   UNL     1       2.847   5.722  18.545  0.00  0.00    +0.000 A 
ATOM      7  C   UNL     1       1.973   9.433  18.458  0.00  0.00    +0.000 A 
ATOM      8  O   UNL     1       2.504   9.716  17.380  0.00  0.00    +0.000 OA
ATOM      9  N   UNL     1       1.253  10.378  19.236  0.00  0.00    +0.000 N 
ATOM     10  C   UNL     1       0.667  10.055  20.537  0.00  0.00    +0.000 A 
ATOM     11  C   UNL     1      -0.108  10.985  21.397  0.00  0.00    +0.000 A 
ATOM     12  C   UNL     1      -0.363  12.396  21.265  0.00  0.00    +0.000 A 
ATOM     13  C   UNL     1      -1.146  13.087  22.190  0.00  0.00    +0.000 A 
ATOM     14  C   UNL     1      -1.710  12.467  23.263  0.00  0.00    +0.000 A 
ATOM     15  C   UNL     1      -1.509  11.140  23.483  0.00  0.00    +0.000 A 
ATOM     16  C   UNL     1      -0.711  10.428  22.584  0.00  0.00    +0.000 A 
ATOM     17  C   UNL     1      -0.528   9.114  22.942  0.00  0.00    +0.000 A 
ATOM     18  C   UNL     1       0.244   8.283  22.165  0.00  0.00    +0.000 A 
ATOM     19  C   UNL     1       0.847   8.704  20.969  0.00  0.00    +0.000 A 
ATOM     20  O   UNL     1      -2.426  13.293  24.063  0.00  0.00    +0.000 OA
ATOM     21  C   UNL     1      -2.136  14.556  23.439  0.00  0.00    +0.000 C 
ATOM     22  O   UNL     1      -1.435  14.419  22.180  0.00  0.00    +0.000 OA
ENDROOT
BRANCH   1  24
ATOM     23  C   UNL     1       2.124   3.795  21.549  0.00  0.00    +0.000 C 
ATOM     24  O   UNL     1       2.220   4.047  20.145  0.00  0.00    +0.000 OA
ENDBRANCH   1  24
BRANCH   6  25
ATOM     25  O   UNL     1       3.460   4.900  17.636  0.00  0.00    +0.000 OA
BRANCH  25  26
ATOM     26  C   UNL     1       4.817   5.164  17.248  0.00  0.00    +0.000 C 
ATOM     27  C   UNL     1       5.740   4.729  18.380  0.00  0.00    +0.000 C 
ATOM     28  C   UNL     1       5.115   4.356  15.987  0.00  0.00    +0.000 C 
ENDBRANCH  25  26
ENDBRANCH   6  25
BRANCH   9  29
ATOM     29  C   UNL     1       1.118  11.683  18.585  0.00  0.00    +0.000 C 
BRANCH  29  30
ATOM     30  C   UNL     1      -0.092  11.756  17.621  0.00  0.00    +0.000 C 
BRANCH  30  31
ATOM     31  N   UNL     1      -1.019  12.885  17.877  0.00  0.00    +0.000 NA
ATOM     32  C   UNL     1      -2.154  12.427  18.688  0.00  0.00    +0.000 C 
ATOM     33  C   UNL     1      -0.352  13.989  18.575  0.00  0.00    +0.000 C 
ENDBRANCH  30  31
ENDBRANCH  29  30
ENDBRANCH   9  29
TORSDOF 6
ENDMDL
