MODEL 1
REMARK VINA RESULT:      -7.5      0.000      0.000
REMARK  Name = 
REMARK  12 active torsions:
REMARK  status: ('A' for Active; 'I' for Inactive)
REMARK    1  A    between atoms: C_1  and  C_2
REMARK    2  A    between atoms: C_2  and  C_3
REMARK    3  A    between atoms: C_3  and  C_4
REMARK    4  A    between atoms: C_4  and  C_5
REMARK    5  A    between atoms: C_5  and  C_6
REMARK    6  A    between atoms: C_6  and  O_7
REMARK    7  A    between atoms: O_7  and  C_8
REMARK    8  A    between atoms: C_8  and  C_10
REMARK    9  A    between atoms: C_10  and  C_11
REMARK   10  A    between atoms: C_11  and  C_12
REMARK   11  A    between atoms: C_12  and  C_13
REMARK   12  A    between atoms: C_14  and  C_15
REMARK                            x       y       z     vdW  Elec       q    Type
REMARK                         _______ _______ _______ _____ _____    ______ ____
ROOT
ATOM      1  C   UNL     1       3.679   5.776  17.619  0.00  0.00    +0.000 C 
ATOM      2  C   UNL     1       2.958   6.636  18.377  0.00  0.00    +0.000 C 
ATOM      3  C   UNL     1       2.763   8.125  18.230  0.00  0.00    +0.000 C 
ATOM      4  C   UNL     1       2.251   6.183  19.613  0.00  0.00    +0.000 C 
ATOM      5  O   UNL     1       1.770   6.973  20.402  0.00  0.00    +0.000 OA
ATOM      6  C   UNL     1       2.176   4.749  19.892  0.00  0.00    +0.000 A 
ATOM      7  C   UNL     1       1.462   4.339  21.023  0.00  0.00    +0.000 A 
ATOM      8  C   UNL     1       1.339   2.987  21.310  0.00  0.00    +0.000 A 
ATOM      9  C   UNL     1       1.934   2.050  20.466  0.00  0.00    +0.000 A 
ATOM     10  C   UNL     1       2.666   2.468  19.348  0.00  0.00    +0.000 A 
ATOM     11  C   UNL     1       2.797   3.831  19.059  0.00  0.00    +0.000 A 
ATOM     12  C   UNL     1       3.604   4.297  17.917  0.00  0.00    +0.000 C 
ATOM     13  O   UNL     1       4.193   3.473  17.211  0.00  0.00    +0.000 OA
ENDROOT
BRANCH   1  14
ATOM     14  C   UNL     1       4.694   6.127  16.525  0.00  0.00    +0.000 C 
BRANCH  14  15
ATOM     15  C   UNL     1       5.948   6.915  16.935  0.00  0.00    +0.000 C 
BRANCH  15  16
ATOM     16  C   UNL     1       7.266   6.363  16.334  0.00  0.00    +0.000 C 
BRANCH  16  17
ATOM     17  C   UNL     1       7.295   4.843  16.333  0.00  0.00    +0.000 C 
ATOM     18  O   UNL     1       7.950   4.178  17.130  0.00  0.00    +0.000 OA
BRANCH  17  19
ATOM     19  O   UNL     1       6.597   4.326  15.280  0.00  0.00    +0.000 OA
BRANCH  19  20
ATOM     20  C   UNL     1       7.071   4.756  13.989  0.00  0.00    +0.000 C 
BRANCH  20  21
ATOM     21  C   UNL     1       6.775   3.746  12.884  0.00  0.00    +0.000 C 
BRANCH  21  22
ATOM     22  C   UNL     1       5.263   3.556  12.705  0.00  0.00    +0.000 C 
BRANCH  22  23
ATOM     23  C   UNL     1       4.808   3.874  11.277  0.00  0.00    +0.000 C 
BRANCH  23  25
ATOM     24  C   UNL     1       2.918   3.723   9.615  0.00  0.00    +0.000 C 
ATOM     25  C   UNL     1       3.438   3.264  10.969  0.00  0.00    +0.000 C 
ENDBRANCH  23  25
ENDBRANCH  22  23
ENDBRANCH  21  22
ENDBRANCH  20  21
ENDBRANCH  19  20
ENDBRANCH  17  19
ENDBRANCH  16  17
ENDBRANCH  15  16
ENDBRANCH  14  15
ENDBRANCH   1  14
TORSDOF 10
ENDMDL
MODEL 2
REMARK VINA RESULT:      -7.2      2.804      5.531
REMARK  Name = 
REMARK  12 active torsions:
REMARK  status: ('A' for Active; 'I' for Inactive)
REMARK    1  A    between atoms: C_1  and  C_2
REMARK    2  A    between atoms: C_2  and  C_3
REMARK    3  A    between atoms: C_3  and  C_4
REMARK    4  A    between atoms: C_4  and  C_5
REMARK    5  A    between atoms: C_5  and  C_6
REMARK    6  A    between atoms: C_6  and  O_7
REMARK    7  A    between atoms: O_7  and  C_8
REMARK    8  A    between atoms: C_8  and  C_10
REMARK    9  A    between atoms: C_10  and  C_11
REMARK   10  A    between atoms: C_11  and  C_12
REMARK   11  A    between atoms: C_12  and  C_13
REMARK   12  A    between atoms: C_14  and  C_15
REMARK                            x       y       z     vdW  Elec       q    Type
REMARK                         _______ _______ _______ _____ _____    ______ ____
ROOT
ATOM      1  C   UNL     1       3.956   4.676  17.178  0.00  0.00    +0.000 C 
ATOM      2  C   UNL     1       3.549   5.845  17.726  0.00  0.00    +0.000 C 
ATOM      3  C   UNL     1       3.660   7.252  17.195  0.00  0.00    +0.000 C 
ATOM      4  C   UNL     1       2.942   5.898  19.091  0.00  0.00    +0.000 C 
ATOM      5  O   UNL     1       2.756   6.950  19.670  0.00  0.00    +0.000 OA
ATOM      6  C   UNL     1       2.601   4.640  19.755  0.00  0.00    +0.000 A 
ATOM      7  C   UNL     1       1.982   4.708  21.007  0.00  0.00    +0.000 A 
ATOM      8  C   UNL     1       1.612   3.541  21.660  0.00  0.00    +0.000 A 
ATOM      9  C   UNL     1       1.869   2.309  21.060  0.00  0.00    +0.000 A 
ATOM     10  C   UNL     1       2.509   2.246  19.817  0.00  0.00    +0.000 A 
ATOM     11  C   UNL     1       2.888   3.422  19.158  0.00  0.00    +0.000 A 
ATOM     12  C   UNL     1       3.608   3.380  17.873  0.00  0.00    +0.000 C 
ATOM     13  O   UNL     1       3.902   2.290  17.374  0.00  0.00    +0.000 OA
ENDROOT
BRANCH   1  14
ATOM     14  C   UNL     1       4.859   4.488  15.954  0.00  0.00    +0.000 C 
BRANCH  14  15
ATOM     15  C   UNL     1       6.005   5.492  15.745  0.00  0.00    +0.000 C 
BRANCH  15  16
ATOM     16  C   UNL     1       7.336   5.082  16.427  0.00  0.00    +0.000 C 
BRANCH  16  17
ATOM     17  C   UNL     1       7.360   5.465  17.898  0.00  0.00    +0.000 C 
ATOM     18  O   UNL     1       7.604   4.670  18.801  0.00  0.00    +0.000 OA
BRANCH  17  19
ATOM     19  O   UNL     1       6.973   6.760  18.089  0.00  0.00    +0.000 OA
BRANCH  19  20
ATOM     20  C   UNL     1       7.884   7.734  17.544  0.00  0.00    +0.000 C 
BRANCH  20  21
ATOM     21  C   UNL     1       8.477   8.652  18.609  0.00  0.00    +0.000 C 
BRANCH  21  22
ATOM     22  C   UNL     1       8.397  10.121  18.174  0.00  0.00    +0.000 C 
BRANCH  22  23
ATOM     23  C   UNL     1       9.595  10.934  18.672  0.00  0.00    +0.000 C 
BRANCH  23  25
ATOM     24  C   UNL     1      10.447  12.031  20.776  0.00  0.00    +0.000 C 
ATOM     25  C   UNL     1       9.786  10.795  20.185  0.00  0.00    +0.000 C 
ENDBRANCH  23  25
ENDBRANCH  22  23
ENDBRANCH  21  22
ENDBRANCH  20  21
ENDBRANCH  19  20
ENDBRANCH  17  19
ENDBRANCH  16  17
ENDBRANCH  15  16
ENDBRANCH  14  15
ENDBRANCH   1  14
TORSDOF 10
ENDMDL
MODEL 3
REMARK VINA RESULT:      -7.2      3.844      6.444
REMARK  Name = 
REMARK  12 active torsions:
REMARK  status: ('A' for Active; 'I' for Inactive)
REMARK    1  A    between atoms: C_1  and  C_2
REMARK    2  A    between atoms: C_2  and  C_3
REMARK    3  A    between atoms: C_3  and  C_4
REMARK    4  A    between atoms: C_4  and  C_5
REMARK    5  A    between atoms: C_5  and  C_6
REMARK    6  A    between atoms: C_6  and  O_7
REMARK    7  A    between atoms: O_7  and  C_8
REMARK    8  A    between atoms: C_8  and  C_10
REMARK    9  A    between atoms: C_10  and  C_11
REMARK   10  A    between atoms: C_11  and  C_12
REMARK   11  A    between atoms: C_12  and  C_13
REMARK   12  A    between atoms: C_14  and  C_15
REMARK                            x       y       z     vdW  Elec       q    Type
REMARK                         _______ _______ _______ _____ _____    ______ ____
ROOT
ATOM      1  C   UNL     1       3.847   5.416  17.397  0.00  0.00    +0.000 C 
ATOM      2  C   UNL     1       3.172   6.396  18.046  0.00  0.00    +0.000 C 
ATOM      3  C   UNL     1       3.070   7.868  17.735  0.00  0.00    +0.000 C 
ATOM      4  C   UNL     1       2.430   6.124  19.313  0.00  0.00    +0.000 C 
ATOM      5  O   UNL     1       1.990   7.022  20.004  0.00  0.00    +0.000 OA
ATOM      6  C   UNL     1       2.265   4.736  19.745  0.00  0.00    +0.000 A 
ATOM      7  C   UNL     1       1.518   4.495  20.903  0.00  0.00    +0.000 A 
ATOM      8  C   UNL     1       1.310   3.192  21.333  0.00  0.00    +0.000 A 
ATOM      9  C   UNL     1       1.854   2.135  20.605  0.00  0.00    +0.000 A 
ATOM     10  C   UNL     1       2.620   2.383  19.460  0.00  0.00    +0.000 A 
ATOM     11  C   UNL     1       2.836   3.697  19.027  0.00  0.00    +0.000 A 
ATOM     12  C   UNL     1       3.680   3.986  17.853  0.00  0.00    +0.000 C 
ATOM     13  O   UNL     1       4.224   3.056  17.250  0.00  0.00    +0.000 OA
ENDROOT
BRANCH   1  14
ATOM     14  C   UNL     1       4.890   5.585  16.287  0.00  0.00    +0.000 C 
BRANCH  14  15
ATOM     15  C   UNL     1       6.328   5.939  16.701  0.00  0.00    +0.000 C 
BRANCH  15  16
ATOM     16  C   UNL     1       6.515   7.415  17.139  0.00  0.00    +0.000 C 
BRANCH  16  17
ATOM     17  C   UNL     1       7.819   7.621  17.893  0.00  0.00    +0.000 C 
ATOM     18  O   UNL     1       8.217   6.867  18.776  0.00  0.00    +0.000 OA
BRANCH  17  19
ATOM     19  O   UNL     1       8.424   8.793  17.542  0.00  0.00    +0.000 OA
BRANCH  19  20
ATOM     20  C   UNL     1       8.855   9.593  18.660  0.00  0.00    +0.000 C 
BRANCH  20  21
ATOM     21  C   UNL     1       9.345  10.977  18.244  0.00  0.00    +0.000 C 
BRANCH  21  22
ATOM     22  C   UNL     1      10.486  11.452  19.154  0.00  0.00    +0.000 C 
BRANCH  22  23
ATOM     23  C   UNL     1      11.274  12.609  18.532  0.00  0.00    +0.000 C 
BRANCH  23  25
ATOM     24  C   UNL     1      11.088  14.523  20.162  0.00  0.00    +0.000 C 
ATOM     25  C   UNL     1      11.995  13.441  19.596  0.00  0.00    +0.000 C 
ENDBRANCH  23  25
ENDBRANCH  22  23
ENDBRANCH  21  22
ENDBRANCH  20  21
ENDBRANCH  19  20
ENDBRANCH  17  19
ENDBRANCH  16  17
ENDBRANCH  15  16
ENDBRANCH  14  15
ENDBRANCH   1  14
TORSDOF 10
ENDMDL
MODEL 4
REMARK VINA RESULT:      -7.1      4.088      7.214
REMARK  Name = 
REMARK  12 active torsions:
REMARK  status: ('A' for Active; 'I' for Inactive)
REMARK    1  A    between atoms: C_1  and  C_2
REMARK    2  A    between atoms: C_2  and  C_3
REMARK    3  A    between atoms: C_3  and  C_4
REMARK    4  A    between atoms: C_4  and  C_5
REMARK    5  A    between atoms: C_5  and  C_6
REMARK    6  A    between atoms: C_6  and  O_7
REMARK    7  A    between atoms: O_7  and  C_8
REMARK    8  A    between atoms: C_8  and  C_10
REMARK    9  A    between atoms: C_10  and  C_11
REMARK   10  A    between atoms: C_11  and  C_12
REMARK   11  A    between atoms: C_12  and  C_13
REMARK   12  A    between atoms: C_14  and  C_15
REMARK                            x       y       z     vdW  Elec       q    Type
REMARK                         _______ _______ _______ _____ _____    ______ ____
ROOT
ATOM      1  C   UNL     1       1.358   8.283  20.184  0.00  0.00    +0.000 C 
ATOM      2  C   UNL     1       1.823   8.685  18.977  0.00  0.00    +0.000 C 
ATOM      3  C   UNL     1       2.730   7.973  18.005  0.00  0.00    +0.000 C 
ATOM      4  C   UNL     1       1.520  10.045  18.437  0.00  0.00    +0.000 C 
ATOM      5  O   UNL     1       2.087  10.486  17.457  0.00  0.00    +0.000 OA
ATOM      6  C   UNL     1       0.541  10.875  19.138  0.00  0.00    +0.000 A 
ATOM      7  C   UNL     1       0.226  12.122  18.588  0.00  0.00    +0.000 A 
ATOM      8  C   UNL     1      -0.720  12.930  19.201  0.00  0.00    +0.000 A 
ATOM      9  C   UNL     1      -1.346  12.489  20.367  0.00  0.00    +0.000 A 
ATOM     10  C   UNL     1      -1.011  11.249  20.925  0.00  0.00    +0.000 A 
ATOM     11  C   UNL     1      -0.052  10.434  20.311  0.00  0.00    +0.000 A 
ATOM     12  C   UNL     1       0.353   9.149  20.907  0.00  0.00    +0.000 C 
ATOM     13  O   UNL     1      -0.145   8.789  21.978  0.00  0.00    +0.000 OA
ENDROOT
BRANCH   1  14
ATOM     14  C   UNL     1       1.821   7.073  21.002  0.00  0.00    +0.000 C 
BRANCH  14  15
ATOM     15  C   UNL     1       1.552   5.672  20.429  0.00  0.00    +0.000 C 
BRANCH  15  16
ATOM     16  C   UNL     1       2.226   4.523  21.223  0.00  0.00    +0.000 C 
BRANCH  16  17
ATOM     17  C   UNL     1       1.439   3.226  21.120  0.00  0.00    +0.000 C 
ATOM     18  O   UNL     1       1.487   2.337  21.964  0.00  0.00    +0.000 OA
BRANCH  17  19
ATOM     19  O   UNL     1       0.771   3.135  19.933  0.00  0.00    +0.000 OA
BRANCH  19  20
ATOM     20  C   UNL     1       1.212   2.055  19.089  0.00  0.00    +0.000 C 
BRANCH  20  21
ATOM     21  C   UNL     1       2.510   2.371  18.352  0.00  0.00    +0.000 C 
BRANCH  21  22
ATOM     22  C   UNL     1       2.349   3.611  17.463  0.00  0.00    +0.000 C 
BRANCH  22  23
ATOM     23  C   UNL     1       3.650   4.411  17.350  0.00  0.00    +0.000 C 
BRANCH  23  25
ATOM     24  C   UNL     1       5.237   5.240  19.125  0.00  0.00    +0.000 C 
ATOM     25  C   UNL     1       4.654   4.016  18.436  0.00  0.00    +0.000 C 
ENDBRANCH  23  25
ENDBRANCH  22  23
ENDBRANCH  21  22
ENDBRANCH  20  21
ENDBRANCH  19  20
ENDBRANCH  17  19
ENDBRANCH  16  17
ENDBRANCH  15  16
ENDBRANCH  14  15
ENDBRANCH   1  14
TORSDOF 10
ENDMDL
MODEL 5
REMARK VINA RESULT:      -7.1      1.190      1.433
REMARK  Name = 
REMARK  12 active torsions:
REMARK  status: ('A' for Active; 'I' for Inactive)
REMARK    1  A    between atoms: C_1  and  C_2
REMARK    2  A    between atoms: C_2  and  C_3
REMARK    3  A    between atoms: C_3  and  C_4
REMARK    4  A    between atoms: C_4  and  C_5
REMARK    5  A    between atoms: C_5  and  C_6
REMARK    6  A    between atoms: C_6  and  O_7
REMARK    7  A    between atoms: O_7  and  C_8
REMARK    8  A    between atoms: C_8  and  C_10
REMARK    9  A    between atoms: C_10  and  C_11
REMARK   10  A    between atoms: C_11  and  C_12
REMARK   11  A    between atoms: C_12  and  C_13
REMARK   12  A    between atoms: C_14  and  C_15
REMARK                            x       y       z     vdW  Elec       q    Type
REMARK                         _______ _______ _______ _____ _____    ______ ____
ROOT
ATOM      1  C   UNL     1       4.859   5.536  18.542  0.00  0.00    +0.000 C 
ATOM      2  C   UNL     1       3.791   6.369  18.519  0.00  0.00    +0.000 C 
ATOM      3  C   UNL     1       3.613   7.694  17.821  0.00  0.00    +0.000 C 
ATOM      4  C   UNL     1       2.561   6.083  19.318  0.00  0.00    +0.000 C 
ATOM      5  O   UNL     1       1.683   6.910  19.461  0.00  0.00    +0.000 OA
ATOM      6  C   UNL     1       2.438   4.781  19.973  0.00  0.00    +0.000 A 
ATOM      7  C   UNL     1       1.256   4.507  20.669  0.00  0.00    +0.000 A 
ATOM      8  C   UNL     1       1.082   3.273  21.280  0.00  0.00    +0.000 A 
ATOM      9  C   UNL     1       2.096   2.319  21.196  0.00  0.00    +0.000 A 
ATOM     10  C   UNL     1       3.286   2.606  20.518  0.00  0.00    +0.000 A 
ATOM     11  C   UNL     1       3.466   3.853  19.905  0.00  0.00    +0.000 A 
ATOM     12  C   UNL     1       4.729   4.197  19.228  0.00  0.00    +0.000 C 
ATOM     13  O   UNL     1       5.656   3.381  19.216  0.00  0.00    +0.000 OA
ENDROOT
BRANCH   1  14
ATOM     14  C   UNL     1       6.278   5.831  18.044  0.00  0.00    +0.000 C 
BRANCH  14  15
ATOM     15  C   UNL     1       6.433   6.721  16.800  0.00  0.00    +0.000 C 
BRANCH  15  16
ATOM     16  C   UNL     1       5.816   6.118  15.511  0.00  0.00    +0.000 C 
BRANCH  16  17
ATOM     17  C   UNL     1       6.696   5.028  14.919  0.00  0.00    +0.000 C 
ATOM     18  O   UNL     1       7.627   4.506  15.525  0.00  0.00    +0.000 OA
BRANCH  17  19
ATOM     19  O   UNL     1       6.389   4.788  13.611  0.00  0.00    +0.000 OA
BRANCH  19  20
ATOM     20  C   UNL     1       5.725   3.530  13.382  0.00  0.00    +0.000 C 
BRANCH  20  21
ATOM     21  C   UNL     1       5.692   3.137  11.907  0.00  0.00    +0.000 C 
BRANCH  21  22
ATOM     22  C   UNL     1       4.248   3.012  11.405  0.00  0.00    +0.000 C 
BRANCH  22  23
ATOM     23  C   UNL     1       3.808   4.244  10.608  0.00  0.00    +0.000 C 
BRANCH  23  25
ATOM     24  C   UNL     1       2.055   4.975   8.950  0.00  0.00    +0.000 C 
ATOM     25  C   UNL     1       2.998   3.857   9.367  0.00  0.00    +0.000 C 
ENDBRANCH  23  25
ENDBRANCH  22  23
ENDBRANCH  21  22
ENDBRANCH  20  21
ENDBRANCH  19  20
ENDBRANCH  17  19
ENDBRANCH  16  17
ENDBRANCH  15  16
ENDBRANCH  14  15
ENDBRANCH   1  14
TORSDOF 10
ENDMDL
MODEL 6
REMARK VINA RESULT:      -7.1      3.495      8.118
REMARK  Name = 
REMARK  12 active torsions:
REMARK  status: ('A' for Active; 'I' for Inactive)
REMARK    1  A    between atoms: C_1  and  C_2
REMARK    2  A    between atoms: C_2  and  C_3
REMARK    3  A    between atoms: C_3  and  C_4
REMARK    4  A    between atoms: C_4  and  C_5
REMARK    5  A    between atoms: C_5  and  C_6
REMARK    6  A    between atoms: C_6  and  O_7
REMARK    7  A    between atoms: O_7  and  C_8
REMARK    8  A    between atoms: C_8  and  C_10
REMARK    9  A    between atoms: C_10  and  C_11
REMARK   10  A    between atoms: C_11  and  C_12
REMARK   11  A    between atoms: C_12  and  C_13
REMARK   12  A    between atoms: C_14  and  C_15
REMARK                            x       y       z     vdW  Elec       q    Type
REMARK                         _______ _______ _______ _____ _____    ______ ____
ROOT
ATOM      1  C   UNL     1       2.395   6.861  19.045  0.00  0.00    +0.000 C 
ATOM      2  C   UNL     1       2.497   5.618  19.573  0.00  0.00    +0.000 C 
ATOM      3  C   UNL     1       1.692   4.962  20.666  0.00  0.00    +0.000 C 
ATOM      4  C   UNL     1       3.572   4.673  19.142  0.00  0.00    +0.000 C 
ATOM      5  O   UNL     1       3.794   3.639  19.741  0.00  0.00    +0.000 OA
ATOM      6  C   UNL     1       4.398   5.030  17.989  0.00  0.00    +0.000 A 
ATOM      7  C   UNL     1       5.361   4.109  17.563  0.00  0.00    +0.000 A 
ATOM      8  C   UNL     1       6.146   4.392  16.455  0.00  0.00    +0.000 A 
ATOM      9  C   UNL     1       5.968   5.599  15.778  0.00  0.00    +0.000 A 
ATOM     10  C   UNL     1       5.018   6.526  16.222  0.00  0.00    +0.000 A 
ATOM     11  C   UNL     1       4.228   6.246  17.344  0.00  0.00    +0.000 A 
ATOM     12  C   UNL     1       3.257   7.227  17.860  0.00  0.00    +0.000 C 
ATOM     13  O   UNL     1       3.149   8.326  17.307  0.00  0.00    +0.000 OA
ENDROOT
BRANCH   1  14
ATOM     14  C   UNL     1       1.570   8.034  19.585  0.00  0.00    +0.000 C 
BRANCH  14  15
ATOM     15  C   UNL     1       1.533   8.248  21.107  0.00  0.00    +0.000 C 
BRANCH  15  16
ATOM     16  C   UNL     1       0.151   8.695  21.650  0.00  0.00    +0.000 C 
BRANCH  16  17
ATOM     17  C   UNL     1       0.257   9.948  22.504  0.00  0.00    +0.000 C 
ATOM     18  O   UNL     1      -0.104  10.002  23.676  0.00  0.00    +0.000 OA
BRANCH  17  19
ATOM     19  O   UNL     1       0.697  11.018  21.778  0.00  0.00    +0.000 OA
BRANCH  19  20
ATOM     20  C   UNL     1      -0.309  12.020  21.535  0.00  0.00    +0.000 C 
BRANCH  20  21
ATOM     21  C   UNL     1      -1.117  11.754  20.268  0.00  0.00    +0.000 C 
BRANCH  21  22
ATOM     22  C   UNL     1      -0.202  11.316  19.116  0.00  0.00    +0.000 C 
BRANCH  22  23
ATOM     23  C   UNL     1      -0.889  10.310  18.188  0.00  0.00    +0.000 C 
BRANCH  23  25
ATOM     24  C   UNL     1      -3.256   9.771  17.505  0.00  0.00    +0.000 C 
ATOM     25  C   UNL     1      -2.202  10.861  17.626  0.00  0.00    +0.000 C 
ENDBRANCH  23  25
ENDBRANCH  22  23
ENDBRANCH  21  22
ENDBRANCH  20  21
ENDBRANCH  19  20
ENDBRANCH  17  19
ENDBRANCH  16  17
ENDBRANCH  15  16
ENDBRANCH  14  15
ENDBRANCH   1  14
TORSDOF 10
ENDMDL
MODEL 7
REMARK VINA RESULT:      -7.0      1.542      2.461
REMARK  Name = 
REMARK  12 active torsions:
REMARK  status: ('A' for Active; 'I' for Inactive)
REMARK    1  A    between atoms: C_1  and  C_2
REMARK    2  A    between atoms: C_2  and  C_3
REMARK    3  A    between atoms: C_3  and  C_4
REMARK    4  A    between atoms: C_4  and  C_5
REMARK    5  A    between atoms: C_5  and  C_6
REMARK    6  A    between atoms: C_6  and  O_7
REMARK    7  A    between atoms: O_7  and  C_8
REMARK    8  A    between atoms: C_8  and  C_10
REMARK    9  A    between atoms: C_10  and  C_11
REMARK   10  A    between atoms: C_11  and  C_12
REMARK   11  A    between atoms: C_12  and  C_13
REMARK   12  A    between atoms: C_14  and  C_15
REMARK                            x       y       z     vdW  Elec       q    Type
REMARK                         _______ _______ _______ _____ _____    ______ ____
ROOT
ATOM      1  C   UNL     1       4.296   5.882  18.221  0.00  0.00    +0.000 C 
ATOM      2  C   UNL     1       5.104   5.045  18.914  0.00  0.00    +0.000 C 
ATOM      3  C   UNL     1       6.549   5.207  19.315  0.00  0.00    +0.000 C 
ATOM      4  C   UNL     1       4.638   3.694  19.350  0.00  0.00    +0.000 C 
ATOM      5  O   UNL     1       5.406   2.863  19.795  0.00  0.00    +0.000 OA
ATOM      6  C   UNL     1       3.222   3.359  19.198  0.00  0.00    +0.000 A 
ATOM      7  C   UNL     1       2.791   2.112  19.664  0.00  0.00    +0.000 A 
ATOM      8  C   UNL     1       1.452   1.763  19.569  0.00  0.00    +0.000 A 
ATOM      9  C   UNL     1       0.548   2.662  19.004  0.00  0.00    +0.000 A 
ATOM     10  C   UNL     1       0.989   3.899  18.519  0.00  0.00    +0.000 A 
ATOM     11  C   UNL     1       2.341   4.251  18.608  0.00  0.00    +0.000 A 
ATOM     12  C   UNL     1       2.837   5.526  18.061  0.00  0.00    +0.000 C 
ATOM     13  O   UNL     1       2.052   6.292  17.493  0.00  0.00    +0.000 OA
ENDROOT
BRANCH   1  14
ATOM     14  C   UNL     1       4.706   7.140  17.448  0.00  0.00    +0.000 C 
BRANCH  14  15
ATOM     15  C   UNL     1       5.569   6.960  16.187  0.00  0.00    +0.000 C 
BRANCH  15  16
ATOM     16  C   UNL     1       5.213   5.702  15.353  0.00  0.00    +0.000 C 
BRANCH  16  17
ATOM     17  C   UNL     1       6.457   4.978  14.862  0.00  0.00    +0.000 C 
ATOM     18  O   UNL     1       7.395   4.672  15.591  0.00  0.00    +0.000 OA
BRANCH  17  19
ATOM     19  O   UNL     1       6.442   4.814  13.506  0.00  0.00    +0.000 OA
BRANCH  19  20
ATOM     20  C   UNL     1       6.431   3.439  13.078  0.00  0.00    +0.000 C 
BRANCH  20  21
ATOM     21  C   UNL     1       5.079   3.002  12.522  0.00  0.00    +0.000 C 
BRANCH  21  22
ATOM     22  C   UNL     1       4.672   3.870  11.324  0.00  0.00    +0.000 C 
BRANCH  22  23
ATOM     23  C   UNL     1       3.344   3.417  10.710  0.00  0.00    +0.000 C 
BRANCH  23  25
ATOM     24  C   UNL     1       2.061   4.952   9.177  0.00  0.00    +0.000 C 
ATOM     25  C   UNL     1       3.179   3.926   9.276  0.00  0.00    +0.000 C 
ENDBRANCH  23  25
ENDBRANCH  22  23
ENDBRANCH  21  22
ENDBRANCH  20  21
ENDBRANCH  19  20
ENDBRANCH  17  19
ENDBRANCH  16  17
ENDBRANCH  15  16
ENDBRANCH  14  15
ENDBRANCH   1  14
TORSDOF 10
ENDMDL
MODEL 8
REMARK VINA RESULT:      -7.0      1.479      1.927
REMARK  Name = 
REMARK  12 active torsions:
REMARK  status: ('A' for Active; 'I' for Inactive)
REMARK    1  A    between atoms: C_1  and  C_2
REMARK    2  A    between atoms: C_2  and  C_3
REMARK    3  A    between atoms: C_3  and  C_4
REMARK    4  A    between atoms: C_4  and  C_5
REMARK    5  A    between atoms: C_5  and  C_6
REMARK    6  A    between atoms: C_6  and  O_7
REMARK    7  A    between atoms: O_7  and  C_8
REMARK    8  A    between atoms: C_8  and  C_10
REMARK    9  A    between atoms: C_10  and  C_11
REMARK   10  A    between atoms: C_11  and  C_12
REMARK   11  A    between atoms: C_12  and  C_13
REMARK   12  A    between atoms: C_14  and  C_15
REMARK                            x       y       z     vdW  Elec       q    Type
REMARK                         _______ _______ _______ _____ _____    ______ ____
ROOT
ATOM      1  C   UNL     1       3.939   5.706  17.358  0.00  0.00    +0.000 C 
ATOM      2  C   UNL     1       3.202   6.626  18.024  0.00  0.00    +0.000 C 
ATOM      3  C   UNL     1       3.089   8.115  17.808  0.00  0.00    +0.000 C 
ATOM      4  C   UNL     1       2.381   6.255  19.216  0.00  0.00    +0.000 C 
ATOM      5  O   UNL     1       1.877   7.096  19.934  0.00  0.00    +0.000 OA
ATOM      6  C   UNL     1       2.218   4.838  19.540  0.00  0.00    +0.000 A 
ATOM      7  C   UNL     1       1.400   4.505  20.625  0.00  0.00    +0.000 A 
ATOM      8  C   UNL     1       1.191   3.172  20.951  0.00  0.00    +0.000 A 
ATOM      9  C   UNL     1       1.806   2.177  20.191  0.00  0.00    +0.000 A 
ATOM     10  C   UNL     1       2.642   2.517  19.121  0.00  0.00    +0.000 A 
ATOM     11  C   UNL     1       2.858   3.861  18.794  0.00  0.00    +0.000 A 
ATOM     12  C   UNL     1       3.772   4.245  17.703  0.00  0.00    +0.000 C 
ATOM     13  O   UNL     1       4.376   3.368  17.077  0.00  0.00    +0.000 OA
ENDROOT
BRANCH   1  14
ATOM     14  C   UNL     1       5.051   5.968  16.337  0.00  0.00    +0.000 C 
BRANCH  14  15
ATOM     15  C   UNL     1       6.508   5.869  16.819  0.00  0.00    +0.000 C 
BRANCH  15  16
ATOM     16  C   UNL     1       7.323   4.739  16.139  0.00  0.00    +0.000 C 
BRANCH  16  17
ATOM     17  C   UNL     1       7.185   4.773  14.625  0.00  0.00    +0.000 C 
ATOM     18  O   UNL     1       7.747   5.599  13.913  0.00  0.00    +0.000 OA
BRANCH  17  19
ATOM     19  O   UNL     1       6.284   3.849  14.180  0.00  0.00    +0.000 OA
BRANCH  19  20
ATOM     20  C   UNL     1       6.219   3.731  12.746  0.00  0.00    +0.000 C 
BRANCH  20  21
ATOM     21  C   UNL     1       4.863   3.232  12.254  0.00  0.00    +0.000 C 
BRANCH  21  22
ATOM     22  C   UNL     1       5.012   2.436  10.949  0.00  0.00    +0.000 C 
BRANCH  22  23
ATOM     23  C   UNL     1       6.295   1.600  10.929  0.00  0.00    +0.000 C 
BRANCH  23  25
ATOM     24  C   UNL     1       6.041  -0.897  11.161  0.00  0.00    +0.000 C 
ATOM     25  C   UNL     1       6.218   0.420  11.901  0.00  0.00    +0.000 C 
ENDBRANCH  23  25
ENDBRANCH  22  23
ENDBRANCH  21  22
ENDBRANCH  20  21
ENDBRANCH  19  20
ENDBRANCH  17  19
ENDBRANCH  16  17
ENDBRANCH  15  16
ENDBRANCH  14  15
ENDBRANCH   1  14
TORSDOF 10
ENDMDL
MODEL 9
REMARK VINA RESULT:      -6.9      3.511      6.438
REMARK  Name = 
REMARK  12 active torsions:
REMARK  status: ('A' for Active; 'I' for Inactive)
REMARK    1  A    between atoms: C_1  and  C_2
REMARK    2  A    between atoms: C_2  and  C_3
REMARK    3  A    between atoms: C_3  and  C_4
REMARK    4  A    between atoms: C_4  and  C_5
REMARK    5  A    between atoms: C_5  and  C_6
REMARK    6  A    between atoms: C_6  and  O_7
REMARK    7  A    between atoms: O_7  and  C_8
REMARK    8  A    between atoms: C_8  and  C_10
REMARK    9  A    between atoms: C_10  and  C_11
REMARK   10  A    between atoms: C_11  and  C_12
REMARK   11  A    between atoms: C_12  and  C_13
REMARK   12  A    between atoms: C_14  and  C_15
REMARK                            x       y       z     vdW  Elec       q    Type
REMARK                         _______ _______ _______ _____ _____    ______ ____
ROOT
ATOM      1  C   UNL     1       4.219   5.440  17.331  0.00  0.00    +0.000 C 
ATOM      2  C   UNL     1       4.577   4.149  17.128  0.00  0.00    +0.000 C 
ATOM      3  C   UNL     1       5.640   3.571  16.228  0.00  0.00    +0.000 C 
ATOM      4  C   UNL     1       3.843   3.025  17.783  0.00  0.00    +0.000 C 
ATOM      5  O   UNL     1       4.024   1.867  17.460  0.00  0.00    +0.000 OA
ATOM      6  C   UNL     1       2.855   3.339  18.815  0.00  0.00    +0.000 A 
ATOM      7  C   UNL     1       2.219   2.272  19.459  0.00  0.00    +0.000 A 
ATOM      8  C   UNL     1       1.297   2.522  20.465  0.00  0.00    +0.000 A 
ATOM      9  C   UNL     1       1.012   3.840  20.821  0.00  0.00    +0.000 A 
ATOM     10  C   UNL     1       1.634   4.904  20.157  0.00  0.00    +0.000 A 
ATOM     11  C   UNL     1       2.561   4.654  19.138  0.00  0.00    +0.000 A 
ATOM     12  C   UNL     1       3.192   5.758  18.392  0.00  0.00    +0.000 C 
ATOM     13  O   UNL     1       2.885   6.925  18.654  0.00  0.00    +0.000 OA
ENDROOT
BRANCH   1  14
ATOM     14  C   UNL     1       4.652   6.663  16.515  0.00  0.00    +0.000 C 
BRANCH  14  15
ATOM     15  C   UNL     1       5.719   7.590  17.120  0.00  0.00    +0.000 C 
BRANCH  15  16
ATOM     16  C   UNL     1       7.167   7.046  17.007  0.00  0.00    +0.000 C 
BRANCH  16  17
ATOM     17  C   UNL     1       7.779   6.777  18.373  0.00  0.00    +0.000 C 
ATOM     18  O   UNL     1       7.435   5.848  19.097  0.00  0.00    +0.000 OA
BRANCH  17  19
ATOM     19  O   UNL     1       8.667   7.751  18.727  0.00  0.00    +0.000 OA
BRANCH  19  20
ATOM     20  C   UNL     1       8.337   9.061  18.227  0.00  0.00    +0.000 C 
BRANCH  20  21
ATOM     21  C   UNL     1       9.072  10.178  18.963  0.00  0.00    +0.000 C 
BRANCH  21  22
ATOM     22  C   UNL     1       9.963  10.975  18.001  0.00  0.00    +0.000 C 
BRANCH  22  23
ATOM     23  C   UNL     1      11.239  11.478  18.682  0.00  0.00    +0.000 C 
BRANCH  23  25
ATOM     24  C   UNL     1      11.742  13.944  18.533  0.00  0.00    +0.000 C 
ATOM     25  C   UNL     1      11.916  12.586  17.871  0.00  0.00    +0.000 C 
ENDBRANCH  23  25
ENDBRANCH  22  23
ENDBRANCH  21  22
ENDBRANCH  20  21
ENDBRANCH  19  20
ENDBRANCH  17  19
ENDBRANCH  16  17
ENDBRANCH  15  16
ENDBRANCH  14  15
ENDBRANCH   1  14
TORSDOF 10
ENDMDL
