MODEL 1
REMARK VINA RESULT:      -6.4      0.000      0.000
REMARK  Name = 
REMARK  1 active torsions:
REMARK  status: ('A' for Active; 'I' for Inactive)
REMARK    1  A    between atoms: C_4  and  N_5
REMARK                            x       y       z     vdW  Elec       q    Type
REMARK                         _______ _______ _______ _____ _____    ______ ____
ROOT
ATOM      1  N   UNL     1       4.950   4.372  16.909  0.00  0.00    +0.000 N 
ATOM      2  C   UNL     1       5.740   3.799  15.806  0.00  0.00    +0.000 C 
ATOM      3  C   UNL     1       7.053   4.644  15.896  0.00  0.00    +0.000 C 
ATOM      4  C   UNL     1       6.504   5.998  16.324  0.00  0.00    +0.000 C 
ATOM      5  C   UNL     1       5.800   5.402  17.544  0.00  0.00    +0.000 C 
ATOM      6  C   UNL     1       6.986   4.688  18.233  0.00  0.00    +0.000 C 
ATOM      7  N   UNL     1       7.861   4.264  17.096  0.00  0.00    +0.000 NA
ATOM      8  H   UNL     1       7.948   3.248  17.124  0.00  0.00    +0.000 HD
ENDROOT
BRANCH   1  12
ATOM      9  C   UNL     1       1.413   2.763  18.536  0.00  0.00    +0.000 A 
ATOM     10  C   UNL     1       1.480   4.107  18.193  0.00  0.00    +0.000 A 
ATOM     11  C   UNL     1       2.661   4.638  17.656  0.00  0.00    +0.000 A 
ATOM     12  C   UNL     1       3.796   3.845  17.423  0.00  0.00    +0.000 A 
ATOM     13  C   UNL     1       3.693   2.493  17.784  0.00  0.00    +0.000 A 
ATOM     14  C   UNL     1       2.523   1.955  18.336  0.00  0.00    +0.000 A 
ENDBRANCH   1  12
TORSDOF 1
ENDMDL
MODEL 2
REMARK VINA RESULT:      -6.4      0.024      1.326
REMARK  Name = 
REMARK  1 active torsions:
REMARK  status: ('A' for Active; 'I' for Inactive)
REMARK    1  A    between atoms: C_4  and  N_5
REMARK                            x       y       z     vdW  Elec       q    Type
REMARK                         _______ _______ _______ _____ _____    ______ ____
ROOT
ATOM      1  N   UNL     1       4.958   4.388  16.934  0.00  0.00    +0.000 N 
ATOM      2  C   UNL     1       5.733   3.814  15.821  0.00  0.00    +0.000 C 
ATOM      3  C   UNL     1       7.052   4.652  15.899  0.00  0.00    +0.000 C 
ATOM      4  C   UNL     1       6.515   6.007  16.338  0.00  0.00    +0.000 C 
ATOM      5  C   UNL     1       5.822   5.411  17.563  0.00  0.00    +0.000 C 
ATOM      6  C   UNL     1       7.010   4.689  18.237  0.00  0.00    +0.000 C 
ATOM      7  N   UNL     1       7.871   4.263  17.089  0.00  0.00    +0.000 NA
ATOM      8  H   UNL     1       7.952   3.247  17.113  0.00  0.00    +0.000 HD
ENDROOT
BRANCH   1  12
ATOM      9  C   UNL     1       1.402   2.769  18.506  0.00  0.00    +0.000 A 
ATOM     10  C   UNL     1       2.517   1.962  18.316  0.00  0.00    +0.000 A 
ATOM     11  C   UNL     1       3.696   2.506  17.790  0.00  0.00    +0.000 A 
ATOM     12  C   UNL     1       3.808   3.866  17.459  0.00  0.00    +0.000 A 
ATOM     13  C   UNL     1       2.661   4.649  17.661  0.00  0.00    +0.000 A 
ATOM     14  C   UNL     1       1.472   4.113  18.173  0.00  0.00    +0.000 A 
ENDBRANCH   1  12
TORSDOF 1
ENDMDL
MODEL 3
REMARK VINA RESULT:      -6.3      1.073      2.108
REMARK  Name = 
REMARK  1 active torsions:
REMARK  status: ('A' for Active; 'I' for Inactive)
REMARK    1  A    between atoms: C_4  and  N_5
REMARK                            x       y       z     vdW  Elec       q    Type
REMARK                         _______ _______ _______ _____ _____    ______ ____
ROOT
ATOM      1  N   UNL     1       5.249   5.217  17.872  0.00  0.00    +0.000 N 
ATOM      2  C   UNL     1       5.369   6.610  17.410  0.00  0.00    +0.000 C 
ATOM      3  C   UNL     1       6.919   6.749  17.251  0.00  0.00    +0.000 C 
ATOM      4  C   UNL     1       7.413   5.880  18.398  0.00  0.00    +0.000 C 
ATOM      5  C   UNL     1       6.621   4.667  17.910  0.00  0.00    +0.000 C 
ATOM      6  C   UNL     1       7.136   4.560  16.456  0.00  0.00    +0.000 C 
ATOM      7  N   UNL     1       7.413   5.979  16.067  0.00  0.00    +0.000 NA
ATOM      8  H   UNL     1       6.831   6.206  15.262  0.00  0.00    +0.000 HD
ENDROOT
BRANCH   1  12
ATOM      9  C   UNL     1       1.674   2.999  18.070  0.00  0.00    +0.000 A 
ATOM     10  C   UNL     1       2.902   2.360  18.175  0.00  0.00    +0.000 A 
ATOM     11  C   UNL     1       4.089   3.104  18.105  0.00  0.00    +0.000 A 
ATOM     12  C   UNL     1       4.087   4.499  17.952  0.00  0.00    +0.000 A 
ATOM     13  C   UNL     1       2.828   5.109  17.847  0.00  0.00    +0.000 A 
ATOM     14  C   UNL     1       1.635   4.375  17.901  0.00  0.00    +0.000 A 
ENDBRANCH   1  12
TORSDOF 1
ENDMDL
MODEL 4
REMARK VINA RESULT:      -6.3      1.068      1.628
REMARK  Name = 
REMARK  1 active torsions:
REMARK  status: ('A' for Active; 'I' for Inactive)
REMARK    1  A    between atoms: C_4  and  N_5
REMARK                            x       y       z     vdW  Elec       q    Type
REMARK                         _______ _______ _______ _____ _____    ______ ____
ROOT
ATOM      1  N   UNL     1       5.206   5.239  17.836  0.00  0.00    +0.000 N 
ATOM      2  C   UNL     1       5.326   6.620  17.338  0.00  0.00    +0.000 C 
ATOM      3  C   UNL     1       6.879   6.779  17.238  0.00  0.00    +0.000 C 
ATOM      4  C   UNL     1       7.337   5.951  18.430  0.00  0.00    +0.000 C 
ATOM      5  C   UNL     1       6.584   4.712  17.946  0.00  0.00    +0.000 C 
ATOM      6  C   UNL     1       7.160   4.571  16.518  0.00  0.00    +0.000 C 
ATOM      7  N   UNL     1       7.432   5.982  16.099  0.00  0.00    +0.000 NA
ATOM      8  H   UNL     1       6.881   6.177  15.264  0.00  0.00    +0.000 HD
ENDROOT
BRANCH   1  12
ATOM      9  C   UNL     1       1.654   2.986  18.046  0.00  0.00    +0.000 A 
ATOM     10  C   UNL     1       1.603   4.372  17.984  0.00  0.00    +0.000 A 
ATOM     11  C   UNL     1       2.789   5.117  17.918  0.00  0.00    +0.000 A 
ATOM     12  C   UNL     1       4.052   4.506  17.889  0.00  0.00    +0.000 A 
ATOM     13  C   UNL     1       4.065   3.104  17.956  0.00  0.00    +0.000 A 
ATOM     14  C   UNL     1       2.887   2.350  18.037  0.00  0.00    +0.000 A 
ENDBRANCH   1  12
TORSDOF 1
ENDMDL
MODEL 5
REMARK VINA RESULT:      -6.2      1.413      1.658
REMARK  Name = 
REMARK  1 active torsions:
REMARK  status: ('A' for Active; 'I' for Inactive)
REMARK    1  A    between atoms: C_4  and  N_5
REMARK                            x       y       z     vdW  Elec       q    Type
REMARK                         _______ _______ _______ _____ _____    ______ ____
ROOT
ATOM      1  N   UNL     1       4.015   4.514  18.011  0.00  0.00    +0.000 N 
ATOM      2  C   UNL     1       4.720   3.744  16.972  0.00  0.00    +0.000 C 
ATOM      3  C   UNL     1       6.043   4.566  16.823  0.00  0.00    +0.000 C 
ATOM      4  C   UNL     1       5.537   5.983  17.049  0.00  0.00    +0.000 C 
ATOM      5  C   UNL     1       4.917   5.620  18.398  0.00  0.00    +0.000 C 
ATOM      6  C   UNL     1       6.143   5.012  19.117  0.00  0.00    +0.000 C 
ATOM      7  N   UNL     1       6.932   4.381  18.013  0.00  0.00    +0.000 NA
ATOM      8  H   UNL     1       7.012   3.384  18.210  0.00  0.00    +0.000 HD
ENDROOT
BRANCH   1  12
ATOM      9  C   UNL     1       0.600   3.232  20.115  0.00  0.00    +0.000 A 
ATOM     10  C   UNL     1       1.373   4.277  20.603  0.00  0.00    +0.000 A 
ATOM     11  C   UNL     1       2.511   4.697  19.899  0.00  0.00    +0.000 A 
ATOM     12  C   UNL     1       2.897   4.107  18.686  0.00  0.00    +0.000 A 
ATOM     13  C   UNL     1       2.094   3.052  18.226  0.00  0.00    +0.000 A 
ATOM     14  C   UNL     1       0.963   2.614  18.928  0.00  0.00    +0.000 A 
ENDBRANCH   1  12
TORSDOF 1
ENDMDL
MODEL 6
REMARK VINA RESULT:      -6.2      1.398      1.890
REMARK  Name = 
REMARK  1 active torsions:
REMARK  status: ('A' for Active; 'I' for Inactive)
REMARK    1  A    between atoms: C_4  and  N_5
REMARK                            x       y       z     vdW  Elec       q    Type
REMARK                         _______ _______ _______ _____ _____    ______ ____
ROOT
ATOM      1  N   UNL     1       4.022   4.479  18.001  0.00  0.00    +0.000 N 
ATOM      2  C   UNL     1       4.712   3.737  16.932  0.00  0.00    +0.000 C 
ATOM      3  C   UNL     1       6.028   4.569  16.778  0.00  0.00    +0.000 C 
ATOM      4  C   UNL     1       5.518   5.979  17.044  0.00  0.00    +0.000 C 
ATOM      5  C   UNL     1       4.925   5.582  18.396  0.00  0.00    +0.000 C 
ATOM      6  C   UNL     1       6.167   4.965  19.079  0.00  0.00    +0.000 C 
ATOM      7  N   UNL     1       6.939   4.363  17.947  0.00  0.00    +0.000 NA
ATOM      8  H   UNL     1       7.028   3.362  18.120  0.00  0.00    +0.000 HD
ENDROOT
BRANCH   1  12
ATOM      9  C   UNL     1       0.599   3.190  20.088  0.00  0.00    +0.000 A 
ATOM     10  C   UNL     1       0.974   2.569  18.904  0.00  0.00    +0.000 A 
ATOM     11  C   UNL     1       2.112   3.005  18.212  0.00  0.00    +0.000 A 
ATOM     12  C   UNL     1       2.919   4.051  18.688  0.00  0.00    +0.000 A 
ATOM     13  C   UNL     1       2.508   4.656  19.885  0.00  0.00    +0.000 A 
ATOM     14  C   UNL     1       1.364   4.238  20.577  0.00  0.00    +0.000 A 
ENDBRANCH   1  12
TORSDOF 1
ENDMDL
MODEL 7
REMARK VINA RESULT:      -6.2      1.746      1.944
REMARK  Name = 
REMARK  1 active torsions:
REMARK  status: ('A' for Active; 'I' for Inactive)
REMARK    1  A    between atoms: C_4  and  N_5
REMARK                            x       y       z     vdW  Elec       q    Type
REMARK                         _______ _______ _______ _____ _____    ______ ____
ROOT
ATOM      1  N   UNL     1       3.917   4.292  18.160  0.00  0.00    +0.000 N 
ATOM      2  C   UNL     1       4.307   3.496  16.984  0.00  0.00    +0.000 C 
ATOM      3  C   UNL     1       5.480   4.353  16.405  0.00  0.00    +0.000 C 
ATOM      4  C   UNL     1       4.999   5.762  16.721  0.00  0.00    +0.000 C 
ATOM      5  C   UNL     1       4.840   5.448  18.208  0.00  0.00    +0.000 C 
ATOM      6  C   UNL     1       6.254   4.919  18.539  0.00  0.00    +0.000 C 
ATOM      7  N   UNL     1       6.697   4.260  17.270  0.00  0.00    +0.000 NA
ATOM      8  H   UNL     1       6.882   3.277  17.471  0.00  0.00    +0.000 HD
ENDROOT
BRANCH   1  12
ATOM      9  C   UNL     1       1.350   3.069  21.267  0.00  0.00    +0.000 A 
ATOM     10  C   UNL     1       0.887   3.910  20.264  0.00  0.00    +0.000 A 
ATOM     11  C   UNL     1       1.747   4.317  19.234  0.00  0.00    +0.000 A 
ATOM     12  C   UNL     1       3.080   3.882  19.161  0.00  0.00    +0.000 A 
ATOM     13  C   UNL     1       3.514   3.036  20.192  0.00  0.00    +0.000 A 
ATOM     14  C   UNL     1       2.667   2.635  21.235  0.00  0.00    +0.000 A 
ENDBRANCH   1  12
TORSDOF 1
ENDMDL
MODEL 8
REMARK VINA RESULT:      -6.2      1.289      1.895
REMARK  Name = 
REMARK  1 active torsions:
REMARK  status: ('A' for Active; 'I' for Inactive)
REMARK    1  A    between atoms: C_4  and  N_5
REMARK                            x       y       z     vdW  Elec       q    Type
REMARK                         _______ _______ _______ _____ _____    ______ ____
ROOT
ATOM      1  N   UNL     1       5.491   4.975  18.046  0.00  0.00    +0.000 N 
ATOM      2  C   UNL     1       5.306   6.355  17.566  0.00  0.00    +0.000 C 
ATOM      3  C   UNL     1       6.783   6.784  17.283  0.00  0.00    +0.000 C 
ATOM      4  C   UNL     1       7.522   6.050  18.393  0.00  0.00    +0.000 C 
ATOM      5  C   UNL     1       6.942   4.698  17.978  0.00  0.00    +0.000 C 
ATOM      6  C   UNL     1       7.354   4.660  16.488  0.00  0.00    +0.000 C 
ATOM      7  N   UNL     1       7.324   6.096  16.069  0.00  0.00    +0.000 NA
ATOM      8  H   UNL     1       6.648   6.190  15.311  0.00  0.00    +0.000 HD
ENDROOT
BRANCH   1  12
ATOM      9  C   UNL     1       2.406   2.163  18.607  0.00  0.00    +0.000 A 
ATOM     10  C   UNL     1       2.472   2.909  17.437  0.00  0.00    +0.000 A 
ATOM     11  C   UNL     1       3.499   3.846  17.258  0.00  0.00    +0.000 A 
ATOM     12  C   UNL     1       4.498   4.051  18.222  0.00  0.00    +0.000 A 
ATOM     13  C   UNL     1       4.397   3.283  19.392  0.00  0.00    +0.000 A 
ATOM     14  C   UNL     1       3.366   2.354  19.589  0.00  0.00    +0.000 A 
ENDBRANCH   1  12
TORSDOF 1
ENDMDL
MODEL 9
REMARK VINA RESULT:      -6.2      1.740      2.292
REMARK  Name = 
REMARK  1 active torsions:
REMARK  status: ('A' for Active; 'I' for Inactive)
REMARK    1  A    between atoms: C_4  and  N_5
REMARK                            x       y       z     vdW  Elec       q    Type
REMARK                         _______ _______ _______ _____ _____    ______ ____
ROOT
ATOM      1  N   UNL     1       3.895   4.363  18.142  0.00  0.00    +0.000 N 
ATOM      2  C   UNL     1       4.196   3.589  16.926  0.00  0.00    +0.000 C 
ATOM      3  C   UNL     1       5.390   4.405  16.329  0.00  0.00    +0.000 C 
ATOM      4  C   UNL     1       4.997   5.825  16.710  0.00  0.00    +0.000 C 
ATOM      5  C   UNL     1       4.879   5.467  18.192  0.00  0.00    +0.000 C 
ATOM      6  C   UNL     1       6.275   4.854  18.447  0.00  0.00    +0.000 C 
ATOM      7  N   UNL     1       6.633   4.218  17.140  0.00  0.00    +0.000 NA
ATOM      8  H   UNL     1       6.773   3.221  17.301  0.00  0.00    +0.000 HD
ENDROOT
BRANCH   1  12
ATOM      9  C   UNL     1       1.363   3.090  21.258  0.00  0.00    +0.000 A 
ATOM     10  C   UNL     1       2.675   2.639  21.191  0.00  0.00    +0.000 A 
ATOM     11  C   UNL     1       3.512   3.064  20.149  0.00  0.00    +0.000 A 
ATOM     12  C   UNL     1       3.076   3.962  19.163  0.00  0.00    +0.000 A 
ATOM     13  C   UNL     1       1.745   4.394  19.261  0.00  0.00    +0.000 A 
ATOM     14  C   UNL     1       0.895   3.965  20.289  0.00  0.00    +0.000 A 
ENDBRANCH   1  12
TORSDOF 1
ENDMDL
