MODEL 1
REMARK VINA RESULT:      -5.4      0.000      0.000
REMARK  Name = 
REMARK  2 active torsions:
REMARK  status: ('A' for Active; 'I' for Inactive)
REMARK    1  A    between atoms: N_1  and  S_2
REMARK    2  A    between atoms: S_2  and  C_5
REMARK                            x       y       z     vdW  Elec       q    Type
REMARK                         _______ _______ _______ _____ _____    ______ ____
ROOT
ATOM      1  C   UNL     1       5.013   5.561  17.686  0.00  0.00    +0.000 A 
ATOM      2  C   UNL     1       4.728   6.840  17.176  0.00  0.00    +0.000 A 
ATOM      3  C   UNL     1       3.575   7.513  17.572  0.00  0.00    +0.000 A 
ATOM      4  C   UNL     1       2.707   6.915  18.479  0.00  0.00    +0.000 A 
ATOM      5  C   UNL     1       2.983   5.643  18.993  0.00  0.00    +0.000 A 
ATOM      6 CL   UNL     1       1.831   5.003  20.120  0.00  0.00    +0.000 Cl
ATOM      7  C   UNL     1       4.137   4.945  18.598  0.00  0.00    +0.000 A 
ATOM      8 BR   UNL     1       4.456   3.198  19.310  0.00  0.00    +0.000 Br
ENDROOT
BRANCH   1   9
ATOM      9  S   UNL     1       6.478   4.760  17.100  0.00  0.00    +0.000 S 
ATOM     10  O   UNL     1       6.107   3.747  16.138  0.00  0.00    +0.000 OA
ATOM     11  O   UNL     1       7.333   4.454  18.224  0.00  0.00    +0.000 OA
BRANCH   9  12
ATOM     12  N   UNL     1       7.237   5.951  16.196  0.00  0.00    +0.000 NA
ATOM     13  H   UNL     1       7.751   6.579  16.816  0.00  0.00    +0.000 HD
ATOM     14  H   UNL     1       6.564   6.425  15.595  0.00  0.00    +0.000 HD
ENDBRANCH   9  12
ENDBRANCH   1   9
TORSDOF 2
ENDMDL
MODEL 2
REMARK VINA RESULT:      -5.4      3.456      3.742
REMARK  Name = 
REMARK  2 active torsions:
REMARK  status: ('A' for Active; 'I' for Inactive)
REMARK    1  A    between atoms: N_1  and  S_2
REMARK    2  A    between atoms: S_2  and  C_5
REMARK                            x       y       z     vdW  Elec       q    Type
REMARK                         _______ _______ _______ _____ _____    ______ ____
ROOT
ATOM      1  C   UNL     1       3.725   3.686  18.413  0.00  0.00    +0.000 A 
ATOM      2  C   UNL     1       4.585   3.595  17.305  0.00  0.00    +0.000 A 
ATOM      3  C   UNL     1       4.882   4.726  16.550  0.00  0.00    +0.000 A 
ATOM      4  C   UNL     1       4.325   5.952  16.901  0.00  0.00    +0.000 A 
ATOM      5  C   UNL     1       3.468   6.053  18.002  0.00  0.00    +0.000 A 
ATOM      6 CL   UNL     1       2.840   7.632  18.344  0.00  0.00    +0.000 Cl
ATOM      7  C   UNL     1       3.150   4.919  18.769  0.00  0.00    +0.000 A 
ATOM      8 BR   UNL     1       1.953   5.105  20.251  0.00  0.00    +0.000 Br
ENDROOT
BRANCH   1   9
ATOM      9  S   UNL     1       3.369   2.192  19.291  0.00  0.00    +0.000 S 
ATOM     10  O   UNL     1       1.968   1.875  19.133  0.00  0.00    +0.000 OA
ATOM     11  O   UNL     1       3.985   2.253  20.597  0.00  0.00    +0.000 OA
BRANCH   9  12
ATOM     12  N   UNL     1       4.176   1.019  18.406  0.00  0.00    +0.000 NA
ATOM     13  H   UNL     1       4.849   1.462  17.779  0.00  0.00    +0.000 HD
ATOM     14  H   UNL     1       3.510   0.410  17.932  0.00  0.00    +0.000 HD
ENDBRANCH   9  12
ENDBRANCH   1   9
TORSDOF 2
ENDMDL
MODEL 3
REMARK VINA RESULT:      -5.3      2.675      3.353
REMARK  Name = 
REMARK  2 active torsions:
REMARK  status: ('A' for Active; 'I' for Inactive)
REMARK    1  A    between atoms: N_1  and  S_2
REMARK    2  A    between atoms: S_2  and  C_5
REMARK                            x       y       z     vdW  Elec       q    Type
REMARK                         _______ _______ _______ _____ _____    ______ ____
ROOT
ATOM      1  C   UNL     1       3.699   4.859  19.205  0.00  0.00    +0.000 A 
ATOM      2  C   UNL     1       2.938   4.397  20.293  0.00  0.00    +0.000 A 
ATOM      3  C   UNL     1       1.937   5.197  20.839  0.00  0.00    +0.000 A 
ATOM      4  C   UNL     1       1.690   6.455  20.299  0.00  0.00    +0.000 A 
ATOM      5  C   UNL     1       2.443   6.922  19.216  0.00  0.00    +0.000 A 
ATOM      6 CL   UNL     1       2.040   8.501  18.625  0.00  0.00    +0.000 Cl
ATOM      7  C   UNL     1       3.463   6.132  18.658  0.00  0.00    +0.000 A 
ATOM      8 BR   UNL     1       4.479   6.827  17.192  0.00  0.00    +0.000 Br
ENDROOT
BRANCH   1   9
ATOM      9  S   UNL     1       4.977   3.796  18.599  0.00  0.00    +0.000 S 
ATOM     10  O   UNL     1       6.262   4.386  18.901  0.00  0.00    +0.000 OA
ATOM     11  O   UNL     1       4.642   3.366  17.261  0.00  0.00    +0.000 OA
BRANCH   9  12
ATOM     12  N   UNL     1       4.876   2.456  19.601  0.00  0.00    +0.000 NA
ATOM     13  H   UNL     1       4.168   1.812  19.245  0.00  0.00    +0.000 HD
ATOM     14  H   UNL     1       4.723   2.744  20.567  0.00  0.00    +0.000 HD
ENDBRANCH   9  12
ENDBRANCH   1   9
TORSDOF 2
ENDMDL
MODEL 4
REMARK VINA RESULT:      -5.3      1.315      1.537
REMARK  Name = 
REMARK  2 active torsions:
REMARK  status: ('A' for Active; 'I' for Inactive)
REMARK    1  A    between atoms: N_1  and  S_2
REMARK    2  A    between atoms: S_2  and  C_5
REMARK                            x       y       z     vdW  Elec       q    Type
REMARK                         _______ _______ _______ _____ _____    ______ ____
ROOT
ATOM      1  C   UNL     1       4.903   5.464  17.198  0.00  0.00    +0.000 A 
ATOM      2  C   UNL     1       4.723   6.858  17.170  0.00  0.00    +0.000 A 
ATOM      3  C   UNL     1       3.541   7.424  17.638  0.00  0.00    +0.000 A 
ATOM      4  C   UNL     1       2.536   6.602  18.139  0.00  0.00    +0.000 A 
ATOM      5  C   UNL     1       2.706   5.213  18.171  0.00  0.00    +0.000 A 
ATOM      6 CL   UNL     1       1.389   4.294  18.823  0.00  0.00    +0.000 Cl
ATOM      7  C   UNL     1       3.890   4.625  17.694  0.00  0.00    +0.000 A 
ATOM      8 BR   UNL     1       4.063   2.719  17.738  0.00  0.00    +0.000 Br
ENDROOT
BRANCH   1   9
ATOM      9  S   UNL     1       6.419   4.826  16.546  0.00  0.00    +0.000 S 
ATOM     10  O   UNL     1       7.238   5.929  16.095  0.00  0.00    +0.000 OA
ATOM     11  O   UNL     1       6.129   3.702  15.686  0.00  0.00    +0.000 OA
BRANCH   9  12
ATOM     12  N   UNL     1       7.207   4.235  17.902  0.00  0.00    +0.000 NA
ATOM     13  H   UNL     1       6.692   3.440  18.282  0.00  0.00    +0.000 HD
ATOM     14  H   UNL     1       7.365   4.984  18.577  0.00  0.00    +0.000 HD
ENDBRANCH   9  12
ENDBRANCH   1   9
TORSDOF 2
ENDMDL
MODEL 5
REMARK VINA RESULT:      -5.2      2.335      2.451
REMARK  Name = 
REMARK  2 active torsions:
REMARK  status: ('A' for Active; 'I' for Inactive)
REMARK    1  A    between atoms: N_1  and  S_2
REMARK    2  A    between atoms: S_2  and  C_5
REMARK                            x       y       z     vdW  Elec       q    Type
REMARK                         _______ _______ _______ _____ _____    ______ ____
ROOT
ATOM      1  C   UNL     1       3.584   5.109  18.588  0.00  0.00    +0.000 A 
ATOM      2  C   UNL     1       3.945   5.989  17.553  0.00  0.00    +0.000 A 
ATOM      3  C   UNL     1       3.489   7.304  17.557  0.00  0.00    +0.000 A 
ATOM      4  C   UNL     1       2.676   7.746  18.596  0.00  0.00    +0.000 A 
ATOM      5  C   UNL     1       2.312   6.878  19.631  0.00  0.00    +0.000 A 
ATOM      6 CL   UNL     1       1.301   7.543  20.872  0.00  0.00    +0.000 Cl
ATOM      7  C   UNL     1       2.756   5.544  19.638  0.00  0.00    +0.000 A 
ATOM      8 BR   UNL     1       2.210   4.390  21.064  0.00  0.00    +0.000 Br
ENDROOT
BRANCH   1   9
ATOM      9  S   UNL     1       4.174   3.444  18.483  0.00  0.00    +0.000 S 
ATOM     10  O   UNL     1       3.057   2.564  18.223  0.00  0.00    +0.000 OA
ATOM     11  O   UNL     1       5.090   3.197  19.573  0.00  0.00    +0.000 OA
BRANCH   9  12
ATOM     12  N   UNL     1       5.065   3.436  17.062  0.00  0.00    +0.000 NA
ATOM     13  H   UNL     1       5.875   4.049  17.160  0.00  0.00    +0.000 HD
ATOM     14  H   UNL     1       4.469   3.666  16.267  0.00  0.00    +0.000 HD
ENDBRANCH   9  12
ENDBRANCH   1   9
TORSDOF 2
ENDMDL
MODEL 6
REMARK VINA RESULT:      -5.2      1.648      2.062
REMARK  Name = 
REMARK  2 active torsions:
REMARK  status: ('A' for Active; 'I' for Inactive)
REMARK    1  A    between atoms: N_1  and  S_2
REMARK    2  A    between atoms: S_2  and  C_5
REMARK                            x       y       z     vdW  Elec       q    Type
REMARK                         _______ _______ _______ _____ _____    ______ ____
ROOT
ATOM      1  C   UNL     1       3.963   4.936  19.045  0.00  0.00    +0.000 A 
ATOM      2  C   UNL     1       3.334   6.194  19.046  0.00  0.00    +0.000 A 
ATOM      3  C   UNL     1       2.213   6.418  19.841  0.00  0.00    +0.000 A 
ATOM      4  C   UNL     1       1.720   5.391  20.640  0.00  0.00    +0.000 A 
ATOM      5  C   UNL     1       2.340   4.136  20.646  0.00  0.00    +0.000 A 
ATOM      6 CL   UNL     1       1.641   2.939  21.685  0.00  0.00    +0.000 Cl
ATOM      7  C   UNL     1       3.467   3.890  19.842  0.00  0.00    +0.000 A 
ATOM      8 BR   UNL     1       4.264   2.150  19.868  0.00  0.00    +0.000 Br
ENDROOT
BRANCH   1   9
ATOM      9  S   UNL     1       5.356   4.726  17.974  0.00  0.00    +0.000 S 
ATOM     10  O   UNL     1       4.979   3.864  16.876  0.00  0.00    +0.000 OA
ATOM     11  O   UNL     1       6.530   4.459  18.772  0.00  0.00    +0.000 OA
BRANCH   9  12
ATOM     12  N   UNL     1       5.548   6.241  17.283  0.00  0.00    +0.000 NA
ATOM     13  H   UNL     1       6.316   6.219  16.611  0.00  0.00    +0.000 HD
ATOM     14  H   UNL     1       5.653   6.952  18.006  0.00  0.00    +0.000 HD
ENDBRANCH   9  12
ENDBRANCH   1   9
TORSDOF 2
ENDMDL
MODEL 7
REMARK VINA RESULT:      -5.2      2.499      2.656
REMARK  Name = 
REMARK  2 active torsions:
REMARK  status: ('A' for Active; 'I' for Inactive)
REMARK    1  A    between atoms: N_1  and  S_2
REMARK    2  A    between atoms: S_2  and  C_5
REMARK                            x       y       z     vdW  Elec       q    Type
REMARK                         _______ _______ _______ _____ _____    ______ ____
ROOT
ATOM      1  C   UNL     1       5.810   5.048  18.107  0.00  0.00    +0.000 A 
ATOM      2  C   UNL     1       5.329   5.506  19.347  0.00  0.00    +0.000 A 
ATOM      3  C   UNL     1       4.014   5.252  19.727  0.00  0.00    +0.000 A 
ATOM      4  C   UNL     1       3.176   4.539  18.875  0.00  0.00    +0.000 A 
ATOM      5  C   UNL     1       3.646   4.080  17.640  0.00  0.00    +0.000 A 
ATOM      6 CL   UNL     1       2.514   3.198  16.667  0.00  0.00    +0.000 Cl
ATOM      7  C   UNL     1       4.968   4.334  17.236  0.00  0.00    +0.000 A 
ATOM      8 BR   UNL     1       5.555   3.705  15.526  0.00  0.00    +0.000 Br
ENDROOT
BRANCH   1   9
ATOM      9  S   UNL     1       7.481   5.449  17.686  0.00  0.00    +0.000 S 
ATOM     10  O   UNL     1       7.476   6.473  16.666  0.00  0.00    +0.000 OA
ATOM     11  O   UNL     1       8.234   4.227  17.523  0.00  0.00    +0.000 OA
BRANCH   9  12
ATOM     12  N   UNL     1       8.055   6.217  19.061  0.00  0.00    +0.000 NA
ATOM     13  H   UNL     1       8.605   7.035  18.795  0.00  0.00    +0.000 HD
ATOM     14  H   UNL     1       8.558   5.557  19.654  0.00  0.00    +0.000 HD
ENDBRANCH   9  12
ENDBRANCH   1   9
TORSDOF 2
ENDMDL
MODEL 8
REMARK VINA RESULT:      -5.1      3.959      4.437
REMARK  Name = 
REMARK  2 active torsions:
REMARK  status: ('A' for Active; 'I' for Inactive)
REMARK    1  A    between atoms: N_1  and  S_2
REMARK    2  A    between atoms: S_2  and  C_5
REMARK                            x       y       z     vdW  Elec       q    Type
REMARK                         _______ _______ _______ _____ _____    ______ ____
ROOT
ATOM      1  C   UNL     1       2.596   4.398  19.945  0.00  0.00    +0.000 A 
ATOM      2  C   UNL     1       1.834   5.223  20.791  0.00  0.00    +0.000 A 
ATOM      3  C   UNL     1       1.747   6.591  20.547  0.00  0.00    +0.000 A 
ATOM      4  C   UNL     1       2.416   7.139  19.457  0.00  0.00    +0.000 A 
ATOM      5  C   UNL     1       3.177   6.326  18.609  0.00  0.00    +0.000 A 
ATOM      6 CL   UNL     1       3.959   7.120  17.282  0.00  0.00    +0.000 Cl
ATOM      7  C   UNL     1       3.283   4.945  18.846  0.00  0.00    +0.000 A 
ATOM      8 BR   UNL     1       4.355   3.880  17.671  0.00  0.00    +0.000 Br
ENDROOT
BRANCH   1   9
ATOM      9  S   UNL     1       2.686   2.679  20.351  0.00  0.00    +0.000 S 
ATOM     10  O   UNL     1       4.067   2.321  20.581  0.00  0.00    +0.000 OA
ATOM     11  O   UNL     1       1.857   1.932  19.433  0.00  0.00    +0.000 OA
BRANCH   9  12
ATOM     12  N   UNL     1       1.966   2.598  21.863  0.00  0.00    +0.000 NA
ATOM     13  H   UNL     1       2.562   2.070  22.501  0.00  0.00    +0.000 HD
ATOM     14  H   UNL     1       1.017   2.232  21.786  0.00  0.00    +0.000 HD
ENDBRANCH   9  12
ENDBRANCH   1   9
TORSDOF 2
ENDMDL
MODEL 9
REMARK VINA RESULT:      -5.1      1.028      1.268
REMARK  Name = 
REMARK  2 active torsions:
REMARK  status: ('A' for Active; 'I' for Inactive)
REMARK    1  A    between atoms: N_1  and  S_2
REMARK    2  A    between atoms: S_2  and  C_5
REMARK                            x       y       z     vdW  Elec       q    Type
REMARK                         _______ _______ _______ _____ _____    ______ ____
ROOT
ATOM      1  C   UNL     1       5.029   5.688  17.712  0.00  0.00    +0.000 A 
ATOM      2  C   UNL     1       4.685   6.949  17.193  0.00  0.00    +0.000 A 
ATOM      3  C   UNL     1       3.485   7.555  17.555  0.00  0.00    +0.000 A 
ATOM      4  C   UNL     1       2.627   6.907  18.438  0.00  0.00    +0.000 A 
ATOM      5  C   UNL     1       2.961   5.652  18.960  0.00  0.00    +0.000 A 
ATOM      6 CL   UNL     1       1.817   4.946  20.054  0.00  0.00    +0.000 Cl
ATOM      7  C   UNL     1       4.164   5.022  18.598  0.00  0.00    +0.000 A 
ATOM      8 BR   UNL     1       4.563   3.295  19.321  0.00  0.00    +0.000 Br
ENDROOT
BRANCH   1   9
ATOM      9  S   UNL     1       6.553   4.974  17.167  0.00  0.00    +0.000 S 
ATOM     10  O   UNL     1       7.248   4.422  18.309  0.00  0.00    +0.000 OA
ATOM     11  O   UNL     1       7.206   5.886  16.257  0.00  0.00    +0.000 OA
BRANCH   9  12
ATOM     12  N   UNL     1       6.061   3.639  16.280  0.00  0.00    +0.000 NA
ATOM     13  H   UNL     1       5.912   2.846  16.905  0.00  0.00    +0.000 HD
ATOM     14  H   UNL     1       6.721   3.450  15.525  0.00  0.00    +0.000 HD
ENDBRANCH   9  12
ENDBRANCH   1   9
TORSDOF 2
ENDMDL
