MODEL 1
REMARK VINA RESULT:      -8.4      0.000      0.000
REMARK  Name = 
REMARK  3 active torsions:
REMARK  status: ('A' for Active; 'I' for Inactive)
REMARK    1  A    between atoms: C_2  and  C_3
REMARK    2  A    between atoms: C_3  and  N_4
REMARK    3  A    between atoms: N_7  and  C_8
REMARK                            x       y       z     vdW  Elec       q    Type
REMARK                         _______ _______ _______ _____ _____    ______ ____
ROOT
ATOM      1  N   UNL     1       5.425   4.516  16.304  0.00  0.00    +0.000 N 
ATOM      2  C   UNL     1       4.391   3.830  16.989  0.00  0.00    +0.000 A 
ATOM      3  O   UNL     1       3.383   3.370  16.475  0.00  0.00    +0.000 OA
ATOM      4  N   UNL     1       4.725   3.864  18.379  0.00  0.00    +0.000 N 
ATOM      5  C   UNL     1       5.882   4.667  18.518  0.00  0.00    +0.000 A 
ATOM      6  N   UNL     1       6.469   5.067  19.661  0.00  0.00    +0.000 NA
ATOM      7  C   UNL     1       7.554   5.861  19.497  0.00  0.00    +0.000 A 
ATOM      8  C   UNL     1       8.053   6.277  18.259  0.00  0.00    +0.000 A 
ATOM      9  C   UNL     1       7.410   5.859  17.093  0.00  0.00    +0.000 A 
ATOM     10  C   UNL     1       6.314   5.036  17.248  0.00  0.00    +0.000 A 
ENDROOT
BRANCH   4  11
ATOM     11  C   UNL     1       3.711   3.904  19.368  0.00  0.00    +0.000 A 
ATOM     12  C   UNL     1       3.479   2.738  20.115  0.00  0.00    +0.000 A 
ATOM     13  C   UNL     1       2.577   2.734  21.170  0.00  0.00    +0.000 A 
ATOM     14  C   UNL     1       1.875   3.893  21.467  0.00  0.00    +0.000 A 
ATOM     15  C   UNL     1       2.064   5.072  20.720  0.00  0.00    +0.000 A 
ATOM     16  C   UNL     1       3.001   5.098  19.673  0.00  0.00    +0.000 A 
ATOM     17  C   UNL     1       3.246   6.362  18.896  0.00  0.00    +0.000 C 
ATOM     18  C   UNL     1       2.353   7.574  19.168  0.00  0.00    +0.000 C 
ATOM     19  C   UNL     1       1.378   7.540  20.332  0.00  0.00    +0.000 C 
ATOM     20  C   UNL     1       1.204   6.241  21.097  0.00  0.00    +0.000 C 
ENDBRANCH   4  11
BRANCH   1  21
ATOM     21  C   UNL     1       5.374   4.887  14.912  0.00  0.00    +0.000 C 
BRANCH  21  23
ATOM     22  C   UNL     1       5.991   3.574  12.859  0.00  0.00    +0.000 C 
ATOM     23  C   UNL     1       6.235   3.955  14.120  0.00  0.00    +0.000 C 
ENDBRANCH  21  23
ENDBRANCH   1  21
TORSDOF 3
ENDMDL
MODEL 2
REMARK VINA RESULT:      -7.3      1.564      6.030
REMARK  Name = 
REMARK  3 active torsions:
REMARK  status: ('A' for Active; 'I' for Inactive)
REMARK    1  A    between atoms: C_2  and  C_3
REMARK    2  A    between atoms: C_3  and  N_4
REMARK    3  A    between atoms: N_7  and  C_8
REMARK                            x       y       z     vdW  Elec       q    Type
REMARK                         _______ _______ _______ _____ _____    ______ ____
ROOT
ATOM      1  N   UNL     1       2.706   4.332  20.482  0.00  0.00    +0.000 N 
ATOM      2  C   UNL     1       3.770   3.907  19.648  0.00  0.00    +0.000 A 
ATOM      3  O   UNL     1       4.402   2.869  19.777  0.00  0.00    +0.000 OA
ATOM      4  N   UNL     1       3.996   4.955  18.703  0.00  0.00    +0.000 N 
ATOM      5  C   UNL     1       3.153   6.035  19.058  0.00  0.00    +0.000 A 
ATOM      6  N   UNL     1       3.128   7.267  18.515  0.00  0.00    +0.000 NA
ATOM      7  C   UNL     1       2.235   8.118  19.074  0.00  0.00    +0.000 A 
ATOM      8  C   UNL     1       1.396   7.796  20.146  0.00  0.00    +0.000 A 
ATOM      9  C   UNL     1       1.461   6.516  20.698  0.00  0.00    +0.000 A 
ATOM     10  C   UNL     1       2.355   5.635  20.124  0.00  0.00    +0.000 A 
ENDROOT
BRANCH   4  11
ATOM     11  C   UNL     1       5.295   5.206  18.195  0.00  0.00    +0.000 A 
ATOM     12  C   UNL     1       6.265   5.690  19.086  0.00  0.00    +0.000 A 
ATOM     13  C   UNL     1       7.583   5.859  18.684  0.00  0.00    +0.000 A 
ATOM     14  C   UNL     1       7.934   5.572  17.373  0.00  0.00    +0.000 A 
ATOM     15  C   UNL     1       6.979   5.112  16.446  0.00  0.00    +0.000 A 
ATOM     16  C   UNL     1       5.650   4.903  16.851  0.00  0.00    +0.000 A 
ATOM     17  C   UNL     1       4.630   4.369  15.884  0.00  0.00    +0.000 C 
ATOM     18  C   UNL     1       5.030   4.199  14.416  0.00  0.00    +0.000 C 
ATOM     19  C   UNL     1       6.481   4.387  14.009  0.00  0.00    +0.000 C 
ATOM     20  C   UNL     1       7.466   4.896  15.044  0.00  0.00    +0.000 C 
ENDBRANCH   4  11
BRANCH   1  21
ATOM     21  C   UNL     1       2.300   3.661  21.692  0.00  0.00    +0.000 C 
BRANCH  21  23
ATOM     22  C   UNL     1       0.722   2.458  20.146  0.00  0.00    +0.000 C 
ATOM     23  C   UNL     1       1.213   2.683  21.373  0.00  0.00    +0.000 C 
ENDBRANCH  21  23
ENDBRANCH   1  21
TORSDOF 3
ENDMDL
MODEL 3
REMARK VINA RESULT:      -7.1      0.975      1.536
REMARK  Name = 
REMARK  3 active torsions:
REMARK  status: ('A' for Active; 'I' for Inactive)
REMARK    1  A    between atoms: C_2  and  C_3
REMARK    2  A    between atoms: C_3  and  N_4
REMARK    3  A    between atoms: N_7  and  C_8
REMARK                            x       y       z     vdW  Elec       q    Type
REMARK                         _______ _______ _______ _____ _____    ______ ____
ROOT
ATOM      1  N   UNL     1       5.341   3.845  16.633  0.00  0.00    +0.000 N 
ATOM      2  C   UNL     1       4.075   3.808  17.269  0.00  0.00    +0.000 A 
ATOM      3  O   UNL     1       3.018   3.516  16.731  0.00  0.00    +0.000 OA
ATOM      4  N   UNL     1       4.277   4.251  18.613  0.00  0.00    +0.000 N 
ATOM      5  C   UNL     1       5.628   4.660  18.727  0.00  0.00    +0.000 A 
ATOM      6  N   UNL     1       6.217   5.258  19.780  0.00  0.00    +0.000 NA
ATOM      7  C   UNL     1       7.522   5.568  19.601  0.00  0.00    +0.000 A 
ATOM      8  C   UNL     1       8.243   5.325  18.427  0.00  0.00    +0.000 A 
ATOM      9  C   UNL     1       7.597   4.720  17.348  0.00  0.00    +0.000 A 
ATOM     10  C   UNL     1       6.271   4.384  17.525  0.00  0.00    +0.000 A 
ENDROOT
BRANCH   4  11
ATOM     11  C   UNL     1       3.262   4.958  19.305  0.00  0.00    +0.000 A 
ATOM     12  C   UNL     1       2.653   4.325  20.400  0.00  0.00    +0.000 A 
ATOM     13  C   UNL     1       1.727   4.994  21.188  0.00  0.00    +0.000 A 
ATOM     14  C   UNL     1       1.381   6.298  20.867  0.00  0.00    +0.000 A 
ATOM     15  C   UNL     1       1.952   6.953  19.759  0.00  0.00    +0.000 A 
ATOM     16  C   UNL     1       2.917   6.298  18.976  0.00  0.00    +0.000 A 
ATOM     17  C   UNL     1       3.569   7.000  17.817  0.00  0.00    +0.000 C 
ATOM     18  C   UNL     1       3.056   8.386  17.418  0.00  0.00    +0.000 C 
ATOM     19  C   UNL     1       2.046   9.094  18.303  0.00  0.00    +0.000 C 
ATOM     20  C   UNL     1       1.452   8.338  19.477  0.00  0.00    +0.000 C 
ENDBRANCH   4  11
BRANCH   1  21
ATOM     21  C   UNL     1       5.547   3.672  15.217  0.00  0.00    +0.000 C 
BRANCH  21  23
ATOM     22  C   UNL     1       7.093   4.920  13.676  0.00  0.00    +0.000 C 
ATOM     23  C   UNL     1       6.177   4.907  14.654  0.00  0.00    +0.000 C 
ENDBRANCH  21  23
ENDBRANCH   1  21
TORSDOF 3
ENDMDL
MODEL 4
REMARK VINA RESULT:      -6.9      0.645      1.103
REMARK  Name = 
REMARK  3 active torsions:
REMARK  status: ('A' for Active; 'I' for Inactive)
REMARK    1  A    between atoms: C_2  and  C_3
REMARK    2  A    between atoms: C_3  and  N_4
REMARK    3  A    between atoms: N_7  and  C_8
REMARK                            x       y       z     vdW  Elec       q    Type
REMARK                         _______ _______ _______ _____ _____    ______ ____
ROOT
ATOM      1  N   UNL     1       5.555   4.222  16.523  0.00  0.00    +0.000 N 
ATOM      2  C   UNL     1       4.464   3.603  17.180  0.00  0.00    +0.000 A 
ATOM      3  O   UNL     1       3.469   3.152  16.633  0.00  0.00    +0.000 OA
ATOM      4  N   UNL     1       4.726   3.689  18.583  0.00  0.00    +0.000 N 
ATOM      5  C   UNL     1       5.901   4.460  18.749  0.00  0.00    +0.000 A 
ATOM      6  N   UNL     1       6.441   4.892  19.903  0.00  0.00    +0.000 NA
ATOM      7  C   UNL     1       7.560   5.642  19.763  0.00  0.00    +0.000 A 
ATOM      8  C   UNL     1       8.138   5.985  18.536  0.00  0.00    +0.000 A 
ATOM      9  C   UNL     1       7.542   5.534  17.357  0.00  0.00    +0.000 A 
ATOM     10  C   UNL     1       6.412   4.755  17.488  0.00  0.00    +0.000 A 
ENDROOT
BRANCH   4  11
ATOM     11  C   UNL     1       3.664   3.807  19.514  0.00  0.00    +0.000 A 
ATOM     12  C   UNL     1       3.340   2.680  20.286  0.00  0.00    +0.000 A 
ATOM     13  C   UNL     1       2.384   2.752  21.290  0.00  0.00    +0.000 A 
ATOM     14  C   UNL     1       1.720   3.950  21.509  0.00  0.00    +0.000 A 
ATOM     15  C   UNL     1       2.000   5.092  20.734  0.00  0.00    +0.000 A 
ATOM     16  C   UNL     1       2.992   5.041  19.740  0.00  0.00    +0.000 A 
ATOM     17  C   UNL     1       3.333   6.264  18.935  0.00  0.00    +0.000 C 
ATOM     18  C   UNL     1       2.481   7.522  19.117  0.00  0.00    +0.000 C 
ATOM     19  C   UNL     1       1.446   7.572  20.227  0.00  0.00    +0.000 C 
ATOM     20  C   UNL     1       1.174   6.309  21.024  0.00  0.00    +0.000 C 
ENDBRANCH   4  11
BRANCH   1  21
ATOM     21  C   UNL     1       5.590   4.530  15.115  0.00  0.00    +0.000 C 
BRANCH  21  23
ATOM     22  C   UNL     1       4.766   6.795  15.830  0.00  0.00    +0.000 C 
ATOM     23  C   UNL     1       5.339   5.993  14.923  0.00  0.00    +0.000 C 
ENDBRANCH  21  23
ENDBRANCH   1  21
TORSDOF 3
ENDMDL
MODEL 5
REMARK VINA RESULT:      -6.9      1.521      5.937
REMARK  Name = 
REMARK  3 active torsions:
REMARK  status: ('A' for Active; 'I' for Inactive)
REMARK    1  A    between atoms: C_2  and  C_3
REMARK    2  A    between atoms: C_3  and  N_4
REMARK    3  A    between atoms: N_7  and  C_8
REMARK                            x       y       z     vdW  Elec       q    Type
REMARK                         _______ _______ _______ _____ _____    ______ ____
ROOT
ATOM      1  N   UNL     1       1.745   3.703  19.313  0.00  0.00    +0.000 N 
ATOM      2  C   UNL     1       2.881   3.514  18.488  0.00  0.00    +0.000 A 
ATOM      3  O   UNL     1       3.324   2.434  18.126  0.00  0.00    +0.000 OA
ATOM      4  N   UNL     1       3.432   4.810  18.243  0.00  0.00    +0.000 N 
ATOM      5  C   UNL     1       2.695   5.738  19.018  0.00  0.00    +0.000 A 
ATOM      6  N   UNL     1       2.949   7.049  19.186  0.00  0.00    +0.000 NA
ATOM      7  C   UNL     1       2.092   7.693  20.013  0.00  0.00    +0.000 A 
ATOM      8  C   UNL     1       1.023   7.085  20.679  0.00  0.00    +0.000 A 
ATOM      9  C   UNL     1       0.799   5.720  20.497  0.00  0.00    +0.000 A 
ATOM     10  C   UNL     1       1.656   5.057  19.644  0.00  0.00    +0.000 A 
ENDROOT
BRANCH   4  11
ATOM     11  C   UNL     1       4.827   4.985  18.066  0.00  0.00    +0.000 A 
ATOM     12  C   UNL     1       5.604   5.252  19.204  0.00  0.00    +0.000 A 
ATOM     13  C   UNL     1       6.988   5.329  19.123  0.00  0.00    +0.000 A 
ATOM     14  C   UNL     1       7.604   5.170  17.891  0.00  0.00    +0.000 A 
ATOM     15  C   UNL     1       6.853   4.929  16.724  0.00  0.00    +0.000 A 
ATOM     16  C   UNL     1       5.454   4.812  16.801  0.00  0.00    +0.000 A 
ATOM     17  C   UNL     1       4.643   4.510  15.572  0.00  0.00    +0.000 C 
ATOM     18  C   UNL     1       5.351   4.480  14.215  0.00  0.00    +0.000 C 
ATOM     19  C   UNL     1       6.866   4.563  14.159  0.00  0.00    +0.000 C 
ATOM     20  C   UNL     1       7.627   4.836  15.444  0.00  0.00    +0.000 C 
ENDBRANCH   4  11
BRANCH   1  21
ATOM     21  C   UNL     1       1.020   2.637  19.959  0.00  0.00    +0.000 C 
BRANCH  21  23
ATOM     22  C   UNL     1       2.754   2.527  21.776  0.00  0.00    +0.000 C 
ATOM     23  C   UNL     1       1.474   2.521  21.380  0.00  0.00    +0.000 C 
ENDBRANCH  21  23
ENDBRANCH   1  21
TORSDOF 3
ENDMDL
MODEL 6
REMARK VINA RESULT:      -6.7      2.380      4.703
REMARK  Name = 
REMARK  3 active torsions:
REMARK  status: ('A' for Active; 'I' for Inactive)
REMARK    1  A    between atoms: C_2  and  C_3
REMARK    2  A    between atoms: C_3  and  N_4
REMARK    3  A    between atoms: N_7  and  C_8
REMARK                            x       y       z     vdW  Elec       q    Type
REMARK                         _______ _______ _______ _____ _____    ______ ____
ROOT
ATOM      1  N   UNL     1       3.030   4.116  20.006  0.00  0.00    +0.000 N 
ATOM      2  C   UNL     1       2.222   5.244  20.291  0.00  0.00    +0.000 A 
ATOM      3  O   UNL     1       1.098   5.209  20.771  0.00  0.00    +0.000 OA
ATOM      4  N   UNL     1       2.942   6.392  19.836  0.00  0.00    +0.000 N 
ATOM      5  C   UNL     1       4.107   5.929  19.180  0.00  0.00    +0.000 A 
ATOM      6  N   UNL     1       5.007   6.661  18.495  0.00  0.00    +0.000 NA
ATOM      7  C   UNL     1       6.016   5.948  17.941  0.00  0.00    +0.000 A 
ATOM      8  C   UNL     1       6.148   4.558  18.027  0.00  0.00    +0.000 A 
ATOM      9  C   UNL     1       5.187   3.828  18.729  0.00  0.00    +0.000 A 
ATOM     10  C   UNL     1       4.164   4.546  19.313  0.00  0.00    +0.000 A 
ENDROOT
BRANCH   4  11
ATOM     11  C   UNL     1       2.256   7.531  19.344  0.00  0.00    +0.000 A 
ATOM     12  C   UNL     1       2.227   7.729  17.955  0.00  0.00    +0.000 A 
ATOM     13  C   UNL     1       1.487   8.762  17.395  0.00  0.00    +0.000 A 
ATOM     14  C   UNL     1       0.794   9.627  18.229  0.00  0.00    +0.000 A 
ATOM     15  C   UNL     1       0.825   9.474  19.629  0.00  0.00    +0.000 A 
ATOM     16  C   UNL     1       1.540   8.410  20.204  0.00  0.00    +0.000 A 
ATOM     17  C   UNL     1       1.546   8.207  21.693  0.00  0.00    +0.000 C 
ATOM     18  C   UNL     1       0.881   9.264  22.579  0.00  0.00    +0.000 C 
ATOM     19  C   UNL     1       0.076  10.380  21.938  0.00  0.00    +0.000 C 
ATOM     20  C   UNL     1       0.086  10.507  20.426  0.00  0.00    +0.000 C 
ENDBRANCH   4  11
BRANCH   1  21
ATOM     21  C   UNL     1       2.590   2.748  20.118  0.00  0.00    +0.000 C 
BRANCH  21  23
ATOM     22  C   UNL     1       0.564   2.363  18.679  0.00  0.00    +0.000 C 
ATOM     23  C   UNL     1       1.892   2.348  18.856  0.00  0.00    +0.000 C 
ENDBRANCH  21  23
ENDBRANCH   1  21
TORSDOF 3
ENDMDL
MODEL 7
REMARK VINA RESULT:      -6.4      1.704      3.587
REMARK  Name = 
REMARK  3 active torsions:
REMARK  status: ('A' for Active; 'I' for Inactive)
REMARK    1  A    between atoms: C_2  and  C_3
REMARK    2  A    between atoms: C_3  and  N_4
REMARK    3  A    between atoms: N_7  and  C_8
REMARK                            x       y       z     vdW  Elec       q    Type
REMARK                         _______ _______ _______ _____ _____    ______ ____
ROOT
ATOM      1  N   UNL     1       6.950   5.738  17.734  0.00  0.00    +0.000 N 
ATOM      2  C   UNL     1       5.826   5.384  18.521  0.00  0.00    +0.000 A 
ATOM      3  O   UNL     1       5.755   5.475  19.737  0.00  0.00    +0.000 OA
ATOM      4  N   UNL     1       4.853   4.838  17.627  0.00  0.00    +0.000 N 
ATOM      5  C   UNL     1       5.450   4.761  16.346  0.00  0.00    +0.000 A 
ATOM      6  N   UNL     1       4.937   4.197  15.236  0.00  0.00    +0.000 NA
ATOM      7  C   UNL     1       5.745   4.240  14.150  0.00  0.00    +0.000 A 
ATOM      8  C   UNL     1       7.027   4.798  14.136  0.00  0.00    +0.000 A 
ATOM      9  C   UNL     1       7.536   5.358  15.309  0.00  0.00    +0.000 A 
ATOM     10  C   UNL     1       6.715   5.335  16.417  0.00  0.00    +0.000 A 
ENDROOT
BRANCH   4  11
ATOM     11  C   UNL     1       3.962   3.824  18.056  0.00  0.00    +0.000 A 
ATOM     12  C   UNL     1       4.218   2.507  17.643  0.00  0.00    +0.000 A 
ATOM     13  C   UNL     1       3.450   1.449  18.109  0.00  0.00    +0.000 A 
ATOM     14  C   UNL     1       2.396   1.707  18.973  0.00  0.00    +0.000 A 
ATOM     15  C   UNL     1       2.093   3.019  19.385  0.00  0.00    +0.000 A 
ATOM     16  C   UNL     1       2.887   4.093  18.949  0.00  0.00    +0.000 A 
ATOM     17  C   UNL     1       2.604   5.494  19.417  0.00  0.00    +0.000 C 
ATOM     18  C   UNL     1       1.350   5.746  20.257  0.00  0.00    +0.000 C 
ATOM     19  C   UNL     1       0.532   4.568  20.756  0.00  0.00    +0.000 C 
ATOM     20  C   UNL     1       0.893   3.176  20.270  0.00  0.00    +0.000 C 
ENDBRANCH   4  11
BRANCH   1  21
ATOM     21  C   UNL     1       8.229   6.133  18.269  0.00  0.00    +0.000 C 
BRANCH  21  23
ATOM     22  C   UNL     1       7.847   8.532  17.620  0.00  0.00    +0.000 C 
ATOM     23  C   UNL     1       8.227   7.609  18.515  0.00  0.00    +0.000 C 
ENDBRANCH  21  23
ENDBRANCH   1  21
TORSDOF 3
ENDMDL
MODEL 8
REMARK VINA RESULT:      -6.4      3.771      6.853
REMARK  Name = 
REMARK  3 active torsions:
REMARK  status: ('A' for Active; 'I' for Inactive)
REMARK    1  A    between atoms: C_2  and  C_3
REMARK    2  A    between atoms: C_3  and  N_4
REMARK    3  A    between atoms: N_7  and  C_8
REMARK                            x       y       z     vdW  Elec       q    Type
REMARK                         _______ _______ _______ _____ _____    ______ ____
ROOT
ATOM      1  N   UNL     1       0.250  10.209  19.073  0.00  0.00    +0.000 N 
ATOM      2  C   UNL     1       1.095   9.186  18.577  0.00  0.00    +0.000 A 
ATOM      3  O   UNL     1       1.232   8.885  17.401  0.00  0.00    +0.000 OA
ATOM      4  N   UNL     1       1.675   8.543  19.716  0.00  0.00    +0.000 N 
ATOM      5  C   UNL     1       1.079   9.106  20.870  0.00  0.00    +0.000 A 
ATOM      6  N   UNL     1       1.239   8.714  22.148  0.00  0.00    +0.000 NA
ATOM      7  C   UNL     1       0.519   9.418  23.053  0.00  0.00    +0.000 A 
ATOM      8  C   UNL     1      -0.351  10.466  22.734  0.00  0.00    +0.000 A 
ATOM      9  C   UNL     1      -0.508  10.835  21.398  0.00  0.00    +0.000 A 
ATOM     10  C   UNL     1       0.234  10.136  20.468  0.00  0.00    +0.000 A 
ENDROOT
BRANCH   4  11
ATOM     11  C   UNL     1       1.996   7.164  19.685  0.00  0.00    +0.000 A 
ATOM     12  C   UNL     1       1.309   6.311  20.563  0.00  0.00    +0.000 A 
ATOM     13  C   UNL     1       1.495   4.936  20.516  0.00  0.00    +0.000 A 
ATOM     14  C   UNL     1       2.397   4.405  19.606  0.00  0.00    +0.000 A 
ATOM     15  C   UNL     1       3.124   5.234  18.730  0.00  0.00    +0.000 A 
ATOM     16  C   UNL     1       2.917   6.624  18.743  0.00  0.00    +0.000 A 
ATOM     17  C   UNL     1       3.651   7.518  17.783  0.00  0.00    +0.000 C 
ATOM     18  C   UNL     1       4.735   6.904  16.894  0.00  0.00    +0.000 C 
ATOM     19  C   UNL     1       4.912   5.396  16.861  0.00  0.00    +0.000 C 
ATOM     20  C   UNL     1       4.113   4.549  17.835  0.00  0.00    +0.000 C 
ENDBRANCH   4  11
BRANCH   1  21
ATOM     21  C   UNL     1      -0.680  10.960  18.267  0.00  0.00    +0.000 C 
BRANCH  21  23
ATOM     22  C   UNL     1      -2.395   9.845  16.806  0.00  0.00    +0.000 C 
ATOM     23  C   UNL     1      -1.901  10.132  18.018  0.00  0.00    +0.000 C 
ENDBRANCH  21  23
ENDBRANCH   1  21
TORSDOF 3
ENDMDL
MODEL 9
REMARK VINA RESULT:      -6.4      2.506      5.206
REMARK  Name = 
REMARK  3 active torsions:
REMARK  status: ('A' for Active; 'I' for Inactive)
REMARK    1  A    between atoms: C_2  and  C_3
REMARK    2  A    between atoms: C_3  and  N_4
REMARK    3  A    between atoms: N_7  and  C_8
REMARK                            x       y       z     vdW  Elec       q    Type
REMARK                         _______ _______ _______ _____ _____    ______ ____
ROOT
ATOM      1  N   UNL     1       2.716   4.619  19.404  0.00  0.00    +0.000 N 
ATOM      2  C   UNL     1       1.988   5.708  19.943  0.00  0.00    +0.000 A 
ATOM      3  O   UNL     1       0.984   5.619  20.633  0.00  0.00    +0.000 OA
ATOM      4  N   UNL     1       2.609   6.900  19.455  0.00  0.00    +0.000 N 
ATOM      5  C   UNL     1       3.617   6.509  18.541  0.00  0.00    +0.000 A 
ATOM      6  N   UNL     1       4.365   7.308  17.756  0.00  0.00    +0.000 NA
ATOM      7  C   UNL     1       5.238   6.658  16.951  0.00  0.00    +0.000 A 
ATOM      8  C   UNL     1       5.376   5.267  16.887  0.00  0.00    +0.000 A 
ATOM      9  C   UNL     1       4.572   4.468  17.701  0.00  0.00    +0.000 A 
ATOM     10  C   UNL     1       3.691   5.120  18.538  0.00  0.00    +0.000 A 
ENDROOT
BRANCH   4  11
ATOM     11  C   UNL     1       1.846   8.069  19.212  0.00  0.00    +0.000 A 
ATOM     12  C   UNL     1       1.646   8.456  17.878  0.00  0.00    +0.000 A 
ATOM     13  C   UNL     1       0.823   9.527  17.559  0.00  0.00    +0.000 A 
ATOM     14  C   UNL     1       0.216  10.242  18.582  0.00  0.00    +0.000 A 
ATOM     15  C   UNL     1       0.418   9.898  19.933  0.00  0.00    +0.000 A 
ATOM     16  C   UNL     1       1.219   8.793  20.264  0.00  0.00    +0.000 A 
ATOM     17  C   UNL     1       1.407   8.386  21.700  0.00  0.00    +0.000 C 
ATOM     18  C   UNL     1       0.831   9.284  22.797  0.00  0.00    +0.000 C 
ATOM     19  C   UNL     1      -0.069  10.447  22.418  0.00  0.00    +0.000 C 
ATOM     20  C   UNL     1      -0.242  10.782  20.948  0.00  0.00    +0.000 C 
ENDBRANCH   4  11
BRANCH   1  21
ATOM     21  C   UNL     1       2.299   3.241  19.483  0.00  0.00    +0.000 C 
BRANCH  21  23
ATOM     22  C   UNL     1       1.815   2.518  21.842  0.00  0.00    +0.000 C 
ATOM     23  C   UNL     1       2.669   2.688  20.823  0.00  0.00    +0.000 C 
ENDBRANCH  21  23
ENDBRANCH   1  21
TORSDOF 3
ENDMDL
