MODEL 1
REMARK VINA RESULT:      -7.9      0.000      0.000
REMARK  Name = 
REMARK  8 active torsions:
REMARK  status: ('A' for Active; 'I' for Inactive)
REMARK    1  A    between atoms: C_1  and  C_2
REMARK    2  A    between atoms: C_2  and  C_3
REMARK    3  A    between atoms: C_4  and  C_5
REMARK    4  A    between atoms: C_6  and  C_7
REMARK    5  A    between atoms: C_6  and  C_15
REMARK    6  A    between atoms: C_8  and  C_9
REMARK    7  A    between atoms: C_21  and  C_22
REMARK    8  A    between atoms: C_22  and  N_23
REMARK                            x       y       z     vdW  Elec       q    Type
REMARK                         _______ _______ _______ _____ _____    ______ ____
ROOT
ATOM      1  C   UNL     1       3.233   6.858  19.113  0.00  0.00    +0.000 C 
ATOM      2  C   UNL     1       2.184   6.405  19.837  0.00  0.00    +0.000 C 
ENDROOT
BRANCH   2   3
ATOM      3  C   UNL     1       1.947   4.943  19.951  0.00  0.00    +0.000 A 
ATOM      4  C   UNL     1       2.247   4.269  21.143  0.00  0.00    +0.000 A 
ATOM      5  C   UNL     1       2.054   2.890  21.242  0.00  0.00    +0.000 A 
ATOM      6  C   UNL     1       1.552   2.177  20.154  0.00  0.00    +0.000 A 
ATOM      7  C   UNL     1       1.236   2.842  18.969  0.00  0.00    +0.000 A 
ATOM      8  C   UNL     1       1.431   4.222  18.868  0.00  0.00    +0.000 A 
ENDBRANCH   2   3
BRANCH   1  10
ATOM      9  C   UNL     1       4.842   6.435  17.277  0.00  0.00    +0.000 C 
ATOM     10  C   UNL     1       4.088   6.013  18.303  0.00  0.00    +0.000 C 
BRANCH   9  12
ATOM     11  C   UNL     1       6.859   4.861  17.298  0.00  0.00    +0.000 C 
ATOM     12  C   UNL     1       5.772   5.580  16.538  0.00  0.00    +0.000 C 
ATOM     13  C   UNL     1       5.679   5.474  15.195  0.00  0.00    +0.000 C 
BRANCH  13  14
ATOM     14  C   UNL     1       6.561   4.635  14.319  0.00  0.00    +0.000 C 
BRANCH  14  15
ATOM     15  N   UNL     1       7.676   5.431  13.830  0.00  0.00    +0.000 NA
ATOM     16  H   UNL     1       8.129   5.879  14.626  0.00  0.00    +0.000 HD
ATOM     17  H   UNL     1       7.308   6.192  13.260  0.00  0.00    +0.000 HD
ENDBRANCH  14  15
ENDBRANCH  13  14
ENDBRANCH   9  12
ENDBRANCH   1  10
BRANCH   2  18
ATOM     18  C   UNL     1       1.349   7.324  20.604  0.00  0.00    +0.000 C 
ATOM     19  C   UNL     1       1.348   8.662  20.471  0.00  0.00    +0.000 C 
BRANCH  19  20
ATOM     20  C   UNL     1       0.473   9.586  21.192  0.00  0.00    +0.000 C 
ATOM     21  C   UNL     1      -0.185  10.559  20.522  0.00  0.00    +0.000 C 
ATOM     22  C   UNL     1      -1.075  11.575  21.179  0.00  0.00    +0.000 C 
ATOM     23  C   UNL     1      -0.905  11.639  22.695  0.00  0.00    +0.000 C 
ATOM     24  C   UNL     1      -0.847  10.238  23.287  0.00  0.00    +0.000 C 
ATOM     25  C   UNL     1       0.311   9.433  22.690  0.00  0.00    +0.000 C 
ENDBRANCH  19  20
ENDBRANCH   2  18
TORSDOF 7
ENDMDL
MODEL 2
REMARK VINA RESULT:      -7.9      1.059      1.513
REMARK  Name = 
REMARK  8 active torsions:
REMARK  status: ('A' for Active; 'I' for Inactive)
REMARK    1  A    between atoms: C_1  and  C_2
REMARK    2  A    between atoms: C_2  and  C_3
REMARK    3  A    between atoms: C_4  and  C_5
REMARK    4  A    between atoms: C_6  and  C_7
REMARK    5  A    between atoms: C_6  and  C_15
REMARK    6  A    between atoms: C_8  and  C_9
REMARK    7  A    between atoms: C_21  and  C_22
REMARK    8  A    between atoms: C_22  and  N_23
REMARK                            x       y       z     vdW  Elec       q    Type
REMARK                         _______ _______ _______ _____ _____    ______ ____
ROOT
ATOM      1  C   UNL     1       3.741   7.157  18.137  0.00  0.00    +0.000 C 
ATOM      2  C   UNL     1       2.602   6.895  18.817  0.00  0.00    +0.000 C 
ENDROOT
BRANCH   2   3
ATOM      3  C   UNL     1       2.219   5.487  19.093  0.00  0.00    +0.000 A 
ATOM      4  C   UNL     1       2.407   4.941  20.370  0.00  0.00    +0.000 A 
ATOM      5  C   UNL     1       2.077   3.608  20.623  0.00  0.00    +0.000 A 
ATOM      6  C   UNL     1       1.548   2.815  19.605  0.00  0.00    +0.000 A 
ATOM      7  C   UNL     1       1.343   3.355  18.336  0.00  0.00    +0.000 A 
ATOM      8  C   UNL     1       1.675   4.688  18.080  0.00  0.00    +0.000 A 
ENDBRANCH   2   3
BRANCH   1  10
ATOM      9  C   UNL     1       4.957   6.136  16.234  0.00  0.00    +0.000 C 
ATOM     10  C   UNL     1       4.573   6.143  17.520  0.00  0.00    +0.000 C 
BRANCH   9  12
ATOM     11  C   UNL     1       7.087   4.737  16.458  0.00  0.00    +0.000 C 
ATOM     12  C   UNL     1       5.876   5.153  15.660  0.00  0.00    +0.000 C 
ATOM     13  C   UNL     1       5.662   4.663  14.420  0.00  0.00    +0.000 C 
BRANCH  13  14
ATOM     14  C   UNL     1       6.519   3.655  13.716  0.00  0.00    +0.000 C 
BRANCH  14  15
ATOM     15  N   UNL     1       5.881   3.240  12.476  0.00  0.00    +0.000 NA
ATOM     16  H   UNL     1       6.552   2.698  11.932  0.00  0.00    +0.000 HD
ATOM     17  H   UNL     1       5.682   4.069  11.918  0.00  0.00    +0.000 HD
ENDBRANCH  14  15
ENDBRANCH  13  14
ENDBRANCH   9  12
ENDBRANCH   1  10
BRANCH   2  18
ATOM     18  C   UNL     1       1.801   7.976  19.383  0.00  0.00    +0.000 C 
ATOM     19  C   UNL     1       1.520   8.127  20.690  0.00  0.00    +0.000 C 
BRANCH  19  20
ATOM     20  C   UNL     1       0.768   9.238  21.272  0.00  0.00    +0.000 C 
ATOM     21  C   UNL     1       0.177   9.096  22.480  0.00  0.00    +0.000 C 
ATOM     22  C   UNL     1      -0.645  10.165  23.142  0.00  0.00    +0.000 C 
ATOM     23  C   UNL     1      -1.047  11.293  22.195  0.00  0.00    +0.000 C 
ATOM     24  C   UNL     1       0.134  11.718  21.335  0.00  0.00    +0.000 C 
ATOM     25  C   UNL     1       0.668  10.543  20.510  0.00  0.00    +0.000 C 
ENDBRANCH  19  20
ENDBRANCH   2  18
TORSDOF 7
ENDMDL
MODEL 3
REMARK VINA RESULT:      -7.9      0.731      1.246
REMARK  Name = 
REMARK  8 active torsions:
REMARK  status: ('A' for Active; 'I' for Inactive)
REMARK    1  A    between atoms: C_1  and  C_2
REMARK    2  A    between atoms: C_2  and  C_3
REMARK    3  A    between atoms: C_4  and  C_5
REMARK    4  A    between atoms: C_6  and  C_7
REMARK    5  A    between atoms: C_6  and  C_15
REMARK    6  A    between atoms: C_8  and  C_9
REMARK    7  A    between atoms: C_21  and  C_22
REMARK    8  A    between atoms: C_22  and  N_23
REMARK                            x       y       z     vdW  Elec       q    Type
REMARK                         _______ _______ _______ _____ _____    ______ ____
ROOT
ATOM      1  C   UNL     1       3.211   6.799  19.308  0.00  0.00    +0.000 C 
ATOM      2  C   UNL     1       2.170   6.420  20.083  0.00  0.00    +0.000 C 
ENDROOT
BRANCH   2   3
ATOM      3  C   UNL     1       1.888   4.975  20.280  0.00  0.00    +0.000 A 
ATOM      4  C   UNL     1       2.324   4.321  21.440  0.00  0.00    +0.000 A 
ATOM      5  C   UNL     1       2.088   2.957  21.613  0.00  0.00    +0.000 A 
ATOM      6  C   UNL     1       1.405   2.238  20.632  0.00  0.00    +0.000 A 
ATOM      7  C   UNL     1       0.953   2.884  19.481  0.00  0.00    +0.000 A 
ATOM      8  C   UNL     1       1.191   4.249  19.306  0.00  0.00    +0.000 A 
ENDBRANCH   2   3
BRANCH   1  10
ATOM      9  C   UNL     1       3.961   5.764  17.185  0.00  0.00    +0.000 C 
ATOM     10  C   UNL     1       4.014   5.885  18.520  0.00  0.00    +0.000 C 
BRANCH   9  12
ATOM     11  C   UNL     1       4.858   3.420  16.686  0.00  0.00    +0.000 C 
ATOM     12  C   UNL     1       4.851   4.903  16.405  0.00  0.00    +0.000 C 
ATOM     13  C   UNL     1       5.679   5.438  15.482  0.00  0.00    +0.000 C 
BRANCH  13  14
ATOM     14  C   UNL     1       6.635   4.674  14.617  0.00  0.00    +0.000 C 
BRANCH  14  15
ATOM     15  N   UNL     1       7.784   5.507  14.291  0.00  0.00    +0.000 NA
ATOM     16  H   UNL     1       8.382   5.570  15.114  0.00  0.00    +0.000 HD
ATOM     17  H   UNL     1       7.459   6.456  14.115  0.00  0.00    +0.000 HD
ENDBRANCH  14  15
ENDBRANCH  13  14
ENDBRANCH   9  12
ENDBRANCH   1  10
BRANCH   2  18
ATOM     18  C   UNL     1       1.387   7.406  20.824  0.00  0.00    +0.000 C 
ATOM     19  C   UNL     1       1.384   8.729  20.584  0.00  0.00    +0.000 C 
BRANCH  19  20
ATOM     20  C   UNL     1       0.560   9.715  21.280  0.00  0.00    +0.000 C 
ATOM     21  C   UNL     1      -0.021   9.402  22.460  0.00  0.00    +0.000 C 
ATOM     22  C   UNL     1      -0.913  10.333  23.231  0.00  0.00    +0.000 C 
ATOM     23  C   UNL     1      -1.389  11.530  22.412  0.00  0.00    +0.000 C 
ATOM     24  C   UNL     1      -0.238  12.126  21.613  0.00  0.00    +0.000 C 
ATOM     25  C   UNL     1       0.374  11.088  20.667  0.00  0.00    +0.000 C 
ENDBRANCH  19  20
ENDBRANCH   2  18
TORSDOF 7
ENDMDL
MODEL 4
REMARK VINA RESULT:      -7.8      0.775      1.270
REMARK  Name = 
REMARK  8 active torsions:
REMARK  status: ('A' for Active; 'I' for Inactive)
REMARK    1  A    between atoms: C_1  and  C_2
REMARK    2  A    between atoms: C_2  and  C_3
REMARK    3  A    between atoms: C_4  and  C_5
REMARK    4  A    between atoms: C_6  and  C_7
REMARK    5  A    between atoms: C_6  and  C_15
REMARK    6  A    between atoms: C_8  and  C_9
REMARK    7  A    between atoms: C_21  and  C_22
REMARK    8  A    between atoms: C_22  and  N_23
REMARK                            x       y       z     vdW  Elec       q    Type
REMARK                         _______ _______ _______ _____ _____    ______ ____
ROOT
ATOM      1  C   UNL     1       3.513   6.583  18.825  0.00  0.00    +0.000 C 
ATOM      2  C   UNL     1       2.449   6.186  19.560  0.00  0.00    +0.000 C 
ENDROOT
BRANCH   2   3
ATOM      3  C   UNL     1       2.093   4.746  19.620  0.00  0.00    +0.000 A 
ATOM      4  C   UNL     1       1.520   4.112  18.509  0.00  0.00    +0.000 A 
ATOM      5  C   UNL     1       1.156   2.766  18.574  0.00  0.00    +0.000 A 
ATOM      6  C   UNL     1       1.371   2.041  19.746  0.00  0.00    +0.000 A 
ATOM      7  C   UNL     1       1.956   2.659  20.850  0.00  0.00    +0.000 A 
ATOM      8  C   UNL     1       2.319   4.007  20.788  0.00  0.00    +0.000 A 
ENDBRANCH   2   3
BRANCH   1  10
ATOM      9  C   UNL     1       5.121   6.113  16.999  0.00  0.00    +0.000 C 
ATOM     10  C   UNL     1       4.274   5.706  17.957  0.00  0.00    +0.000 C 
BRANCH   9  12
ATOM     11  C   UNL     1       7.190   4.618  16.829  0.00  0.00    +0.000 C 
ATOM     12  C   UNL     1       5.951   5.209  16.202  0.00  0.00    +0.000 C 
ATOM     13  C   UNL     1       5.632   4.947  14.916  0.00  0.00    +0.000 C 
BRANCH  13  14
ATOM     14  C   UNL     1       6.390   4.043  13.993  0.00  0.00    +0.000 C 
BRANCH  14  15
ATOM     15  N   UNL     1       5.555   3.677  12.859  0.00  0.00    +0.000 NA
ATOM     16  H   UNL     1       5.010   2.853  13.110  0.00  0.00    +0.000 HD
ATOM     17  H   UNL     1       6.157   3.384  12.091  0.00  0.00    +0.000 HD
ENDBRANCH  14  15
ENDBRANCH  13  14
ENDBRANCH   9  12
ENDBRANCH   1  10
BRANCH   2  18
ATOM     18  C   UNL     1       1.712   7.137  20.388  0.00  0.00    +0.000 C 
ATOM     19  C   UNL     1       1.388   8.390  20.024  0.00  0.00    +0.000 C 
BRANCH  19  20
ATOM     20  C   UNL     1       0.600   9.328  20.822  0.00  0.00    +0.000 C 
ATOM     21  C   UNL     1      -0.101  10.313  20.216  0.00  0.00    +0.000 C 
ATOM     22  C   UNL     1      -0.908  11.344  20.951  0.00  0.00    +0.000 C 
ATOM     23  C   UNL     1      -0.596  11.404  22.444  0.00  0.00    +0.000 C 
ATOM     24  C   UNL     1      -0.507  10.003  23.030  0.00  0.00    +0.000 C 
ATOM     25  C   UNL     1       0.576   9.177  22.329  0.00  0.00    +0.000 C 
ENDBRANCH  19  20
ENDBRANCH   2  18
TORSDOF 7
ENDMDL
MODEL 5
REMARK VINA RESULT:      -7.8      1.010      1.757
REMARK  Name = 
REMARK  8 active torsions:
REMARK  status: ('A' for Active; 'I' for Inactive)
REMARK    1  A    between atoms: C_1  and  C_2
REMARK    2  A    between atoms: C_2  and  C_3
REMARK    3  A    between atoms: C_4  and  C_5
REMARK    4  A    between atoms: C_6  and  C_7
REMARK    5  A    between atoms: C_6  and  C_15
REMARK    6  A    between atoms: C_8  and  C_9
REMARK    7  A    between atoms: C_21  and  C_22
REMARK    8  A    between atoms: C_22  and  N_23
REMARK                            x       y       z     vdW  Elec       q    Type
REMARK                         _______ _______ _______ _____ _____    ______ ____
ROOT
ATOM      1  C   UNL     1       3.566   7.045  18.134  0.00  0.00    +0.000 C 
ATOM      2  C   UNL     1       2.464   6.737  18.856  0.00  0.00    +0.000 C 
ENDROOT
BRANCH   2   3
ATOM      3  C   UNL     1       2.163   5.316  19.167  0.00  0.00    +0.000 A 
ATOM      4  C   UNL     1       1.581   4.488  18.197  0.00  0.00    +0.000 A 
ATOM      5  C   UNL     1       1.269   3.161  18.498  0.00  0.00    +0.000 A 
ATOM      6  C   UNL     1       1.545   2.650  19.766  0.00  0.00    +0.000 A 
ATOM      7  C   UNL     1       2.138   3.462  20.731  0.00  0.00    +0.000 A 
ATOM      8  C   UNL     1       2.450   4.791  20.433  0.00  0.00    +0.000 A 
ENDBRANCH   2   3
BRANCH   1  10
ATOM      9  C   UNL     1       4.978   6.186  16.288  0.00  0.00    +0.000 C 
ATOM     10  C   UNL     1       4.427   6.063  17.505  0.00  0.00    +0.000 C 
BRANCH   9  12
ATOM     11  C   UNL     1       6.968   4.612  16.614  0.00  0.00    +0.000 C 
ATOM     12  C   UNL     1       5.922   5.225  15.716  0.00  0.00    +0.000 C 
ATOM     13  C   UNL     1       5.879   4.929  14.399  0.00  0.00    +0.000 C 
BRANCH  13  14
ATOM     14  C   UNL     1       6.781   3.967  13.687  0.00  0.00    +0.000 C 
BRANCH  14  15
ATOM     15  N   UNL     1       6.003   3.132  12.784  0.00  0.00    +0.000 NA
ATOM     16  H   UNL     1       6.510   3.047  11.904  0.00  0.00    +0.000 HD
ATOM     17  H   UNL     1       5.137   3.618  12.556  0.00  0.00    +0.000 HD
ENDBRANCH  14  15
ENDBRANCH  13  14
ENDBRANCH   9  12
ENDBRANCH   1  10
BRANCH   2  18
ATOM     18  C   UNL     1       1.628   7.785  19.433  0.00  0.00    +0.000 C 
ATOM     19  C   UNL     1       1.626   8.149  20.727  0.00  0.00    +0.000 C 
BRANCH  19  20
ATOM     20  C   UNL     1       0.836   9.236  21.302  0.00  0.00    +0.000 C 
ATOM     21  C   UNL     1       0.190   9.058  22.476  0.00  0.00    +0.000 C 
ATOM     22  C   UNL     1      -0.674  10.101  23.126  0.00  0.00    +0.000 C 
ATOM     23  C   UNL     1      -1.044  11.249  22.190  0.00  0.00    +0.000 C 
ATOM     24  C   UNL     1       0.171  11.708  21.397  0.00  0.00    +0.000 C 
ATOM     25  C   UNL     1       0.757  10.560  20.569  0.00  0.00    +0.000 C 
ENDBRANCH  19  20
ENDBRANCH   2  18
TORSDOF 7
ENDMDL
MODEL 6
REMARK VINA RESULT:      -7.8      3.035      8.430
REMARK  Name = 
REMARK  8 active torsions:
REMARK  status: ('A' for Active; 'I' for Inactive)
REMARK    1  A    between atoms: C_1  and  C_2
REMARK    2  A    between atoms: C_2  and  C_3
REMARK    3  A    between atoms: C_4  and  C_5
REMARK    4  A    between atoms: C_6  and  C_7
REMARK    5  A    between atoms: C_6  and  C_15
REMARK    6  A    between atoms: C_8  and  C_9
REMARK    7  A    between atoms: C_21  and  C_22
REMARK    8  A    between atoms: C_22  and  N_23
REMARK                            x       y       z     vdW  Elec       q    Type
REMARK                         _______ _______ _______ _____ _____    ______ ____
ROOT
ATOM      1  C   UNL     1       3.329   7.439  17.712  0.00  0.00    +0.000 C 
ATOM      2  C   UNL     1       3.770   6.190  17.439  0.00  0.00    +0.000 C 
ENDROOT
BRANCH   2   3
ATOM      3  C   UNL     1       3.189   5.030  18.162  0.00  0.00    +0.000 A 
ATOM      4  C   UNL     1       1.941   4.515  17.784  0.00  0.00    +0.000 A 
ATOM      5  C   UNL     1       1.379   3.445  18.483  0.00  0.00    +0.000 A 
ATOM      6  C   UNL     1       2.063   2.877  19.557  0.00  0.00    +0.000 A 
ATOM      7  C   UNL     1       3.312   3.373  19.930  0.00  0.00    +0.000 A 
ATOM      8  C   UNL     1       3.875   4.445  19.233  0.00  0.00    +0.000 A 
ENDBRANCH   2   3
BRANCH   1  10
ATOM      9  C   UNL     1       1.766   8.930  18.926  0.00  0.00    +0.000 C 
ATOM     10  C   UNL     1       2.404   7.759  18.782  0.00  0.00    +0.000 C 
BRANCH   9  12
ATOM     11  C   UNL     1      -0.378  10.129  19.642  0.00  0.00    +0.000 C 
ATOM     12  C   UNL     1       0.763   9.194  19.959  0.00  0.00    +0.000 C 
ATOM     13  C   UNL     1       0.887   8.643  21.185  0.00  0.00    +0.000 C 
BRANCH  13  14
ATOM     14  C   UNL     1      -0.065   8.828  22.329  0.00  0.00    +0.000 C 
BRANCH  14  15
ATOM     15  N   UNL     1       0.512   9.731  23.313  0.00  0.00    +0.000 NA
ATOM     16  H   UNL     1       0.672   9.212  24.176  0.00  0.00    +0.000 HD
ATOM     17  H   UNL     1      -0.179  10.443  23.545  0.00  0.00    +0.000 HD
ENDBRANCH  14  15
ENDBRANCH  13  14
ENDBRANCH   9  12
ENDBRANCH   1  10
BRANCH   2  18
ATOM     18  C   UNL     1       4.728   5.951  16.363  0.00  0.00    +0.000 C 
ATOM     19  C   UNL     1       4.776   4.844  15.602  0.00  0.00    +0.000 C 
BRANCH  19  20
ATOM     20  C   UNL     1       5.692   4.622  14.485  0.00  0.00    +0.000 C 
ATOM     21  C   UNL     1       6.930   5.166  14.504  0.00  0.00    +0.000 C 
ATOM     22  C   UNL     1       7.927   5.025  13.390  0.00  0.00    +0.000 C 
ATOM     23  C   UNL     1       7.313   4.513  12.089  0.00  0.00    +0.000 C 
ATOM     24  C   UNL     1       6.365   3.354  12.364  0.00  0.00    +0.000 C 
ATOM     25  C   UNL     1       5.240   3.772  13.315  0.00  0.00    +0.000 C 
ENDBRANCH  19  20
ENDBRANCH   2  18
TORSDOF 7
ENDMDL
MODEL 7
REMARK VINA RESULT:      -7.8      1.947      2.506
REMARK  Name = 
REMARK  8 active torsions:
REMARK  status: ('A' for Active; 'I' for Inactive)
REMARK    1  A    between atoms: C_1  and  C_2
REMARK    2  A    between atoms: C_2  and  C_3
REMARK    3  A    between atoms: C_4  and  C_5
REMARK    4  A    between atoms: C_6  and  C_7
REMARK    5  A    between atoms: C_6  and  C_15
REMARK    6  A    between atoms: C_8  and  C_9
REMARK    7  A    between atoms: C_21  and  C_22
REMARK    8  A    between atoms: C_22  and  N_23
REMARK                            x       y       z     vdW  Elec       q    Type
REMARK                         _______ _______ _______ _____ _____    ______ ____
ROOT
ATOM      1  C   UNL     1       3.720   7.388  17.655  0.00  0.00    +0.000 C 
ATOM      2  C   UNL     1       2.596   7.176  18.377  0.00  0.00    +0.000 C 
ENDROOT
BRANCH   2   3
ATOM      3  C   UNL     1       2.249   5.798  18.807  0.00  0.00    +0.000 A 
ATOM      4  C   UNL     1       1.791   4.859  17.872  0.00  0.00    +0.000 A 
ATOM      5  C   UNL     1       1.434   3.573  18.280  0.00  0.00    +0.000 A 
ATOM      6  C   UNL     1       1.541   3.212  19.623  0.00  0.00    +0.000 A 
ATOM      7  C   UNL     1       2.011   4.134  20.557  0.00  0.00    +0.000 A 
ATOM      8  C   UNL     1       2.367   5.423  20.152  0.00  0.00    +0.000 A 
ENDBRANCH   2   3
BRANCH   1  10
ATOM      9  C   UNL     1       5.023   6.256  15.877  0.00  0.00    +0.000 C 
ATOM     10  C   UNL     1       4.565   6.331  17.137  0.00  0.00    +0.000 C 
BRANCH   9  12
ATOM     11  C   UNL     1       7.023   4.731  16.346  0.00  0.00    +0.000 C 
ATOM     12  C   UNL     1       5.954   5.231  15.405  0.00  0.00    +0.000 C 
ATOM     13  C   UNL     1       5.880   4.777  14.135  0.00  0.00    +0.000 C 
BRANCH  13  14
ATOM     14  C   UNL     1       6.766   3.733  13.526  0.00  0.00    +0.000 C 
BRANCH  14  15
ATOM     15  N   UNL     1       6.047   3.019  12.482  0.00  0.00    +0.000 NA
ATOM     16  H   UNL     1       5.676   3.699  11.820  0.00  0.00    +0.000 HD
ATOM     17  H   UNL     1       5.233   2.568  12.897  0.00  0.00    +0.000 HD
ENDBRANCH  14  15
ENDBRANCH  13  14
ENDBRANCH   9  12
ENDBRANCH   1  10
BRANCH   2  18
ATOM     18  C   UNL     1       1.778   8.294  18.839  0.00  0.00    +0.000 C 
ATOM     19  C   UNL     1       1.305   9.280  18.057  0.00  0.00    +0.000 C 
BRANCH  19  20
ATOM     20  C   UNL     1       0.437  10.371  18.500  0.00  0.00    +0.000 C 
ATOM     21  C   UNL     1       0.950  11.398  19.214  0.00  0.00    +0.000 C 
ATOM     22  C   UNL     1       0.133  12.543  19.743  0.00  0.00    +0.000 C 
ATOM     23  C   UNL     1      -1.370  12.280  19.708  0.00  0.00    +0.000 C 
ATOM     24  C   UNL     1      -1.775  11.655  18.381  0.00  0.00    +0.000 C 
ATOM     25  C   UNL     1      -1.034  10.336  18.142  0.00  0.00    +0.000 C 
ENDBRANCH  19  20
ENDBRANCH   2  18
TORSDOF 7
ENDMDL
MODEL 8
REMARK VINA RESULT:      -7.8      1.084      1.294
REMARK  Name = 
REMARK  8 active torsions:
REMARK  status: ('A' for Active; 'I' for Inactive)
REMARK    1  A    between atoms: C_1  and  C_2
REMARK    2  A    between atoms: C_2  and  C_3
REMARK    3  A    between atoms: C_4  and  C_5
REMARK    4  A    between atoms: C_6  and  C_7
REMARK    5  A    between atoms: C_6  and  C_15
REMARK    6  A    between atoms: C_8  and  C_9
REMARK    7  A    between atoms: C_21  and  C_22
REMARK    8  A    between atoms: C_22  and  N_23
REMARK                            x       y       z     vdW  Elec       q    Type
REMARK                         _______ _______ _______ _____ _____    ______ ____
ROOT
ATOM      1  C   UNL     1       3.583   7.830  17.579  0.00  0.00    +0.000 C 
ATOM      2  C   UNL     1       2.598   7.417  18.409  0.00  0.00    +0.000 C 
ENDROOT
BRANCH   2   3
ATOM      3  C   UNL     1       2.457   5.972  18.720  0.00  0.00    +0.000 A 
ATOM      4  C   UNL     1       3.157   5.409  19.796  0.00  0.00    +0.000 A 
ATOM      5  C   UNL     1       3.050   4.044  20.070  0.00  0.00    +0.000 A 
ATOM      6  C   UNL     1       2.236   3.235  19.278  0.00  0.00    +0.000 A 
ATOM      7  C   UNL     1       1.523   3.790  18.216  0.00  0.00    +0.000 A 
ATOM      8  C   UNL     1       1.631   5.155  17.938  0.00  0.00    +0.000 A 
ENDBRANCH   2   3
BRANCH   1  10
ATOM      9  C   UNL     1       5.630   6.466  17.277  0.00  0.00    +0.000 C 
ATOM     10  C   UNL     1       4.452   6.936  16.839  0.00  0.00    +0.000 C 
BRANCH   9  12
ATOM     11  C   UNL     1       7.404   4.623  17.329  0.00  0.00    +0.000 C 
ATOM     12  C   UNL     1       6.441   5.488  16.552  0.00  0.00    +0.000 C 
ATOM     13  C   UNL     1       6.357   5.395  15.208  0.00  0.00    +0.000 C 
BRANCH  13  14
ATOM     14  C   UNL     1       7.127   4.440  14.346  0.00  0.00    +0.000 C 
BRANCH  14  15
ATOM     15  N   UNL     1       6.227   3.447  13.779  0.00  0.00    +0.000 NA
ATOM     16  H   UNL     1       6.437   3.347  12.787  0.00  0.00    +0.000 HD
ATOM     17  H   UNL     1       5.275   3.807  13.823  0.00  0.00    +0.000 HD
ENDBRANCH  14  15
ENDBRANCH  13  14
ENDBRANCH   9  12
ENDBRANCH   1  10
BRANCH   2  18
ATOM     18  C   UNL     1       1.743   8.381  19.096  0.00  0.00    +0.000 C 
ATOM     19  C   UNL     1       1.335   8.280  20.373  0.00  0.00    +0.000 C 
BRANCH  19  20
ATOM     20  C   UNL     1       0.527   9.269  21.086  0.00  0.00    +0.000 C 
ATOM     21  C   UNL     1      -0.122  10.236  20.400  0.00  0.00    +0.000 C 
ATOM     22  C   UNL     1      -0.944  11.315  21.045  0.00  0.00    +0.000 C 
ATOM     23  C   UNL     1      -0.706  11.440  22.548  0.00  0.00    +0.000 C 
ATOM     24  C   UNL     1      -0.675  10.066  23.202  0.00  0.00    +0.000 C 
ATOM     25  C   UNL     1       0.425   9.190  22.596  0.00  0.00    +0.000 C 
ENDBRANCH  19  20
ENDBRANCH   2  18
TORSDOF 7
ENDMDL
MODEL 9
REMARK VINA RESULT:      -7.7      3.040      8.384
REMARK  Name = 
REMARK  8 active torsions:
REMARK  status: ('A' for Active; 'I' for Inactive)
REMARK    1  A    between atoms: C_1  and  C_2
REMARK    2  A    between atoms: C_2  and  C_3
REMARK    3  A    between atoms: C_4  and  C_5
REMARK    4  A    between atoms: C_6  and  C_7
REMARK    5  A    between atoms: C_6  and  C_15
REMARK    6  A    between atoms: C_8  and  C_9
REMARK    7  A    between atoms: C_21  and  C_22
REMARK    8  A    between atoms: C_22  and  N_23
REMARK                            x       y       z     vdW  Elec       q    Type
REMARK                         _______ _______ _______ _____ _____    ______ ____
ROOT
ATOM      1  C   UNL     1       3.358   7.370  17.715  0.00  0.00    +0.000 C 
ATOM      2  C   UNL     1       3.813   6.123  17.456  0.00  0.00    +0.000 C 
ENDROOT
BRANCH   2   3
ATOM      3  C   UNL     1       3.236   4.964  18.182  0.00  0.00    +0.000 A 
ATOM      4  C   UNL     1       3.945   4.362  19.231  0.00  0.00    +0.000 A 
ATOM      5  C   UNL     1       3.418   3.253  19.894  0.00  0.00    +0.000 A 
ATOM      6  C   UNL     1       2.174   2.743  19.521  0.00  0.00    +0.000 A 
ATOM      7  C   UNL     1       1.454   3.346  18.490  0.00  0.00    +0.000 A 
ATOM      8  C   UNL     1       1.981   4.455  17.824  0.00  0.00    +0.000 A 
ENDBRANCH   2   3
BRANCH   1  10
ATOM      9  C   UNL     1       1.830   8.881  18.949  0.00  0.00    +0.000 C 
ATOM     10  C   UNL     1       2.421   7.689  18.774  0.00  0.00    +0.000 C 
BRANCH   9  12
ATOM     11  C   UNL     1      -0.346  10.050  19.617  0.00  0.00    +0.000 C 
ATOM     12  C   UNL     1       0.814   9.150  19.967  0.00  0.00    +0.000 C 
ATOM     13  C   UNL     1       0.940   8.634  21.208  0.00  0.00    +0.000 C 
BRANCH  13  14
ATOM     14  C   UNL     1      -0.024   8.827  22.340  0.00  0.00    +0.000 C 
BRANCH  14  15
ATOM     15  N   UNL     1       0.539   9.744  23.320  0.00  0.00    +0.000 NA
ATOM     16  H   UNL     1       0.176   9.497  24.240  0.00  0.00    +0.000 HD
ATOM     17  H   UNL     1       0.188  10.681  23.129  0.00  0.00    +0.000 HD
ENDBRANCH  14  15
ENDBRANCH  13  14
ENDBRANCH   9  12
ENDBRANCH   1  10
BRANCH   2  18
ATOM     18  C   UNL     1       4.782   5.885  16.390  0.00  0.00    +0.000 C 
ATOM     19  C   UNL     1       4.762   4.839  15.545  0.00  0.00    +0.000 C 
BRANCH  19  20
ATOM     20  C   UNL     1       5.693   4.624  14.439  0.00  0.00    +0.000 C 
ATOM     21  C   UNL     1       6.917   5.196  14.462  0.00  0.00    +0.000 C 
ATOM     22  C   UNL     1       7.927   5.064  13.357  0.00  0.00    +0.000 C 
ATOM     23  C   UNL     1       7.335   4.522  12.058  0.00  0.00    +0.000 C 
ATOM     24  C   UNL     1       6.412   3.345  12.340  0.00  0.00    +0.000 C 
ATOM     25  C   UNL     1       5.269   3.750  13.276  0.00  0.00    +0.000 C 
ENDBRANCH  19  20
ENDBRANCH   2  18
TORSDOF 7
ENDMDL
