MODEL 1
REMARK VINA RESULT:      -7.9      0.000      0.000
REMARK  Name = 
REMARK  7 active torsions:
REMARK  status: ('A' for Active; 'I' for Inactive)
REMARK    1  A    between atoms: C_1  and  C_2
REMARK    2  A    between atoms: C_3  and  S_4
REMARK    3  A    between atoms: S_4  and  N_7
REMARK    4  A    between atoms: N_7  and  C_8
REMARK    5  A    between atoms: C_16  and  C_17
REMARK    6  A    between atoms: C_19  and  C_20
REMARK    7  A    between atoms: N_29  and  C_30
REMARK                            x       y       z     vdW  Elec       q    Type
REMARK                         _______ _______ _______ _____ _____    ______ ____
ROOT
ATOM      1  C   UNL     1       3.447   5.577  20.132  0.00  0.00    +0.000 C 
ATOM      2  C   UNL     1       3.094   6.681  19.192  0.00  0.00    +0.000 A 
ATOM      3  C   UNL     1       3.569   6.981  17.924  0.00  0.00    +0.000 A 
ATOM      4  C   UNL     1       2.884   8.140  17.476  0.00  0.00    +0.000 A 
ATOM      5  C   UNL     1       2.025   8.560  18.482  0.00  0.00    +0.000 A 
ATOM      6  N   UNL     1       2.144   7.646  19.512  0.00  0.00    +0.000 N 
ATOM      7  C   UNL     1       1.382   7.618  20.747  0.00  0.00    +0.000 C 
ENDROOT
BRANCH   5   8
ATOM      8  C   UNL     1       1.162   9.716  18.484  0.00  0.00    +0.000 A 
ATOM      9  N   UNL     1      -0.117   9.662  18.171  0.00  0.00    +0.000 NA
ATOM     10  C   UNL     1      -0.681  10.929  18.221  0.00  0.00    +0.000 A 
ATOM     11  C   UNL     1       0.181  11.928  18.629  0.00  0.00    +0.000 A 
ATOM     12  S   UNL     1       1.742  11.282  18.904  0.00  0.00    +0.000 S 
BRANCH  10  13
ATOM     13  C   UNL     1      -2.079  11.156  17.864  0.00  0.00    +0.000 A 
ATOM     14  C   UNL     1      -2.965  11.697  18.809  0.00  0.00    +0.000 A 
ATOM     15  C   UNL     1      -4.310  11.900  18.488  0.00  0.00    +0.000 A 
ATOM     16  C   UNL     1      -4.772  11.557  17.223  0.00  0.00    +0.000 A 
ATOM     17  F   UNL     1      -6.062  11.742  16.916  0.00  0.00    +0.000 F 
ATOM     18  C   UNL     1      -3.915  11.019  16.271  0.00  0.00    +0.000 A 
ATOM     19  C   UNL     1      -2.569  10.819  16.591  0.00  0.00    +0.000 A 
ENDBRANCH  10  13
ENDBRANCH   5   8
BRANCH   3  20
ATOM     20  S   UNL     1       4.755   6.127  16.986  0.00  0.00    +0.000 S 
ATOM     21  O   UNL     1       5.041   7.002  15.870  0.00  0.00    +0.000 OA
ATOM     22  O   UNL     1       5.801   5.736  17.906  0.00  0.00    +0.000 OA
BRANCH  20  23
ATOM     23  N   UNL     1       4.062   4.727  16.324  0.00  0.00    +0.000 N 
ATOM     24  H   UNL     1       4.793   4.264  15.782  0.00  0.00    +0.000 HD
BRANCH  23  25
ATOM     25  C   UNL     1       3.377   3.844  17.212  0.00  0.00    +0.000 A 
ATOM     26  C   UNL     1       2.004   4.010  17.407  0.00  0.00    +0.000 A 
ATOM     27  C   UNL     1       1.310   3.137  18.244  0.00  0.00    +0.000 A 
ATOM     28  C   UNL     1       1.995   2.112  18.886  0.00  0.00    +0.000 A 
ATOM     29  F   UNL     1       1.325   1.262  19.673  0.00  0.00    +0.000 F 
ATOM     30  C   UNL     1       3.368   1.955  18.718  0.00  0.00    +0.000 A 
ATOM     31  C   UNL     1       4.067   2.832  17.884  0.00  0.00    +0.000 A 
ENDBRANCH  23  25
ENDBRANCH  20  23
ENDBRANCH   3  20
TORSDOF 5
ENDMDL
MODEL 2
REMARK VINA RESULT:      -7.9      3.749      4.863
REMARK  Name = 
REMARK  7 active torsions:
REMARK  status: ('A' for Active; 'I' for Inactive)
REMARK    1  A    between atoms: C_1  and  C_2
REMARK    2  A    between atoms: C_3  and  S_4
REMARK    3  A    between atoms: S_4  and  N_7
REMARK    4  A    between atoms: N_7  and  C_8
REMARK    5  A    between atoms: C_16  and  C_17
REMARK    6  A    between atoms: C_19  and  C_20
REMARK    7  A    between atoms: N_29  and  C_30
REMARK                            x       y       z     vdW  Elec       q    Type
REMARK                         _______ _______ _______ _____ _____    ______ ____
ROOT
ATOM      1  C   UNL     1       2.904   3.335  20.398  0.00  0.00    +0.000 C 
ATOM      2  C   UNL     1       2.951   4.573  19.568  0.00  0.00    +0.000 A 
ATOM      3  C   UNL     1       3.632   4.855  18.393  0.00  0.00    +0.000 A 
ATOM      4  C   UNL     1       3.316   6.188  18.026  0.00  0.00    +0.000 A 
ATOM      5  C   UNL     1       2.477   6.723  18.993  0.00  0.00    +0.000 A 
ATOM      6  N   UNL     1       2.241   5.720  19.913  0.00  0.00    +0.000 N 
ATOM      7  C   UNL     1       1.356   5.778  21.062  0.00  0.00    +0.000 C 
ENDROOT
BRANCH   5   8
ATOM      8  C   UNL     1       1.935   8.059  19.054  0.00  0.00    +0.000 A 
ATOM      9  N   UNL     1       1.423   8.580  20.151  0.00  0.00    +0.000 NA
ATOM     10  C   UNL     1       0.946   9.860  19.901  0.00  0.00    +0.000 A 
ATOM     11  C   UNL     1       1.155  10.312  18.612  0.00  0.00    +0.000 A 
ATOM     12  S   UNL     1       1.916   9.095  17.679  0.00  0.00    +0.000 S 
BRANCH  10  13
ATOM     13  C   UNL     1       0.278  10.641  20.938  0.00  0.00    +0.000 A 
ATOM     14  C   UNL     1      -0.380   9.989  21.993  0.00  0.00    +0.000 A 
ATOM     15  C   UNL     1      -1.041  10.725  22.980  0.00  0.00    +0.000 A 
ATOM     16  C   UNL     1      -1.050  12.113  22.912  0.00  0.00    +0.000 A 
ATOM     17  F   UNL     1      -1.691  12.819  23.852  0.00  0.00    +0.000 F 
ATOM     18  C   UNL     1      -0.407  12.781  21.877  0.00  0.00    +0.000 A 
ATOM     19  C   UNL     1       0.257  12.046  20.892  0.00  0.00    +0.000 A 
ENDBRANCH  10  13
ENDBRANCH   5   8
BRANCH   3  20
ATOM     20  S   UNL     1       4.670   3.811  17.471  0.00  0.00    +0.000 S 
ATOM     21  O   UNL     1       4.222   2.472  17.790  0.00  0.00    +0.000 OA
ATOM     22  O   UNL     1       4.635   4.296  16.108  0.00  0.00    +0.000 OA
BRANCH  20  23
ATOM     23  N   UNL     1       6.260   3.928  18.050  0.00  0.00    +0.000 N 
ATOM     24  H   UNL     1       6.804   3.215  17.562  0.00  0.00    +0.000 HD
BRANCH  23  25
ATOM     25  C   UNL     1       6.877   5.215  18.032  0.00  0.00    +0.000 A 
ATOM     26  C   UNL     1       6.627   6.071  16.957  0.00  0.00    +0.000 A 
ATOM     27  C   UNL     1       7.193   7.346  16.937  0.00  0.00    +0.000 A 
ATOM     28  C   UNL     1       8.010   7.749  17.987  0.00  0.00    +0.000 A 
ATOM     29  F   UNL     1       8.537   8.980  17.978  0.00  0.00    +0.000 F 
ATOM     30  C   UNL     1       8.286   6.893  19.048  0.00  0.00    +0.000 A 
ATOM     31  C   UNL     1       7.725   5.614  19.069  0.00  0.00    +0.000 A 
ENDBRANCH  23  25
ENDBRANCH  20  23
ENDBRANCH   3  20
TORSDOF 5
ENDMDL
MODEL 3
REMARK VINA RESULT:      -7.7      3.834      4.720
REMARK  Name = 
REMARK  7 active torsions:
REMARK  status: ('A' for Active; 'I' for Inactive)
REMARK    1  A    between atoms: C_1  and  C_2
REMARK    2  A    between atoms: C_3  and  S_4
REMARK    3  A    between atoms: S_4  and  N_7
REMARK    4  A    between atoms: N_7  and  C_8
REMARK    5  A    between atoms: C_16  and  C_17
REMARK    6  A    between atoms: C_19  and  C_20
REMARK    7  A    between atoms: N_29  and  C_30
REMARK                            x       y       z     vdW  Elec       q    Type
REMARK                         _______ _______ _______ _____ _____    ______ ____
ROOT
ATOM      1  C   UNL     1       3.434   3.716  19.913  0.00  0.00    +0.000 C 
ATOM      2  C   UNL     1       3.359   5.029  19.209  0.00  0.00    +0.000 A 
ATOM      3  C   UNL     1       4.035   5.502  18.094  0.00  0.00    +0.000 A 
ATOM      4  C   UNL     1       3.577   6.821  17.846  0.00  0.00    +0.000 A 
ATOM      5  C   UNL     1       2.654   7.158  18.827  0.00  0.00    +0.000 A 
ATOM      6  N   UNL     1       2.511   6.047  19.636  0.00  0.00    +0.000 N 
ATOM      7  C   UNL     1       1.594   5.889  20.749  0.00  0.00    +0.000 C 
ENDROOT
BRANCH   5   8
ATOM      8  C   UNL     1       1.959   8.412  18.995  0.00  0.00    +0.000 A 
ATOM      9  N   UNL     1       1.276   8.717  20.080  0.00  0.00    +0.000 NA
ATOM     10  C   UNL     1       0.685   9.966  19.944  0.00  0.00    +0.000 A 
ATOM     11  C   UNL     1       0.977  10.616  18.760  0.00  0.00    +0.000 A 
ATOM     12  S   UNL     1       1.969   9.627  17.776  0.00  0.00    +0.000 S 
BRANCH  10  13
ATOM     13  C   UNL     1      -0.175  10.521  20.985  0.00  0.00    +0.000 A 
ATOM     14  C   UNL     1      -0.216   9.922  22.254  0.00  0.00    +0.000 A 
ATOM     15  C   UNL     1      -1.050  10.431  23.253  0.00  0.00    +0.000 A 
ATOM     16  C   UNL     1      -1.851  11.535  22.983  0.00  0.00    +0.000 A 
ATOM     17  F   UNL     1      -2.658  12.017  23.936  0.00  0.00    +0.000 F 
ATOM     18  C   UNL     1      -1.829  12.143  21.734  0.00  0.00    +0.000 A 
ATOM     19  C   UNL     1      -0.992  11.638  20.736  0.00  0.00    +0.000 A 
ENDBRANCH  10  13
ENDBRANCH   5   8
BRANCH   3  20
ATOM     20  S   UNL     1       5.213   4.680  17.118  0.00  0.00    +0.000 S 
ATOM     21  O   UNL     1       6.387   4.587  17.958  0.00  0.00    +0.000 OA
ATOM     22  O   UNL     1       4.568   3.487  16.615  0.00  0.00    +0.000 OA
BRANCH  20  23
ATOM     23  N   UNL     1       5.649   5.658  15.802  0.00  0.00    +0.000 N 
ATOM     24  H   UNL     1       6.333   6.332  16.149  0.00  0.00    +0.000 HD
BRANCH  23  25
ATOM     25  C   UNL     1       6.063   5.006  14.602  0.00  0.00    +0.000 A 
ATOM     26  C   UNL     1       7.327   5.290  14.077  0.00  0.00    +0.000 A 
ATOM     27  C   UNL     1       7.764   4.638  12.924  0.00  0.00    +0.000 A 
ATOM     28  C   UNL     1       6.932   3.715  12.302  0.00  0.00    +0.000 A 
ATOM     29  F   UNL     1       7.360   3.074  11.207  0.00  0.00    +0.000 F 
ATOM     30  C   UNL     1       5.662   3.445  12.802  0.00  0.00    +0.000 A 
ATOM     31  C   UNL     1       5.219   4.100  13.954  0.00  0.00    +0.000 A 
ENDBRANCH  23  25
ENDBRANCH  20  23
ENDBRANCH   3  20
TORSDOF 5
ENDMDL
MODEL 4
REMARK VINA RESULT:      -7.6      4.458     10.035
REMARK  Name = 
REMARK  7 active torsions:
REMARK  status: ('A' for Active; 'I' for Inactive)
REMARK    1  A    between atoms: C_1  and  C_2
REMARK    2  A    between atoms: C_3  and  S_4
REMARK    3  A    between atoms: S_4  and  N_7
REMARK    4  A    between atoms: N_7  and  C_8
REMARK    5  A    between atoms: C_16  and  C_17
REMARK    6  A    between atoms: C_19  and  C_20
REMARK    7  A    between atoms: N_29  and  C_30
REMARK                            x       y       z     vdW  Elec       q    Type
REMARK                         _______ _______ _______ _____ _____    ______ ____
ROOT
ATOM      1  C   UNL     1      -0.145  11.599  18.784  0.00  0.00    +0.000 C 
ATOM      2  C   UNL     1       0.361  10.462  19.607  0.00  0.00    +0.000 A 
ATOM      3  C   UNL     1       0.306  10.235  20.974  0.00  0.00    +0.000 A 
ATOM      4  C   UNL     1       0.936   8.990  21.225  0.00  0.00    +0.000 A 
ATOM      5  C   UNL     1       1.402   8.482  20.020  0.00  0.00    +0.000 A 
ATOM      6  N   UNL     1       1.021   9.377  19.038  0.00  0.00    +0.000 N 
ATOM      7  C   UNL     1       1.210   9.236  17.607  0.00  0.00    +0.000 C 
ENDROOT
BRANCH   5   8
ATOM      8  C   UNL     1       2.139   7.261  19.799  0.00  0.00    +0.000 A 
ATOM      9  N   UNL     1       3.096   7.150  18.901  0.00  0.00    +0.000 NA
ATOM     10  C   UNL     1       3.597   5.855  18.886  0.00  0.00    +0.000 A 
ATOM     11  C   UNL     1       3.036   5.010  19.824  0.00  0.00    +0.000 A 
ATOM     12  S   UNL     1       1.824   5.834  20.708  0.00  0.00    +0.000 S 
BRANCH  10  13
ATOM     13  C   UNL     1       4.632   5.448  17.940  0.00  0.00    +0.000 A 
ATOM     14  C   UNL     1       5.846   6.150  17.884  0.00  0.00    +0.000 A 
ATOM     15  C   UNL     1       6.838   5.784  16.969  0.00  0.00    +0.000 A 
ATOM     16  C   UNL     1       6.614   4.719  16.104  0.00  0.00    +0.000 A 
ATOM     17  F   UNL     1       7.558   4.373  15.220  0.00  0.00    +0.000 F 
ATOM     18  C   UNL     1       5.420   4.010  16.140  0.00  0.00    +0.000 A 
ATOM     19  C   UNL     1       4.430   4.373  17.057  0.00  0.00    +0.000 A 
ENDBRANCH  10  13
ENDBRANCH   5   8
BRANCH   3  20
ATOM     20  S   UNL     1      -0.411  11.230  22.205  0.00  0.00    +0.000 S 
ATOM     21  O   UNL     1      -0.372  10.418  23.402  0.00  0.00    +0.000 OA
ATOM     22  O   UNL     1       0.275  12.503  22.153  0.00  0.00    +0.000 OA
BRANCH  20  23
ATOM     23  N   UNL     1      -2.051  11.481  21.855  0.00  0.00    +0.000 N 
ATOM     24  H   UNL     1      -2.514  10.575  21.944  0.00  0.00    +0.000 HD
BRANCH  23  25
ATOM     25  C   UNL     1      -2.725  12.525  22.557  0.00  0.00    +0.000 A 
ATOM     26  C   UNL     1      -2.858  13.775  21.947  0.00  0.00    +0.000 A 
ATOM     27  C   UNL     1      -3.541  14.800  22.602  0.00  0.00    +0.000 A 
ATOM     28  C   UNL     1      -4.079  14.568  23.863  0.00  0.00    +0.000 A 
ATOM     29  F   UNL     1      -4.753  15.545  24.483  0.00  0.00    +0.000 F 
ATOM     30  C   UNL     1      -3.928  13.335  24.489  0.00  0.00    +0.000 A 
ATOM     31  C   UNL     1      -3.239  12.308  23.838  0.00  0.00    +0.000 A 
ENDBRANCH  23  25
ENDBRANCH  20  23
ENDBRANCH   3  20
TORSDOF 5
ENDMDL
MODEL 5
REMARK VINA RESULT:      -7.5      3.084      3.695
REMARK  Name = 
REMARK  7 active torsions:
REMARK  status: ('A' for Active; 'I' for Inactive)
REMARK    1  A    between atoms: C_1  and  C_2
REMARK    2  A    between atoms: C_3  and  S_4
REMARK    3  A    between atoms: S_4  and  N_7
REMARK    4  A    between atoms: N_7  and  C_8
REMARK    5  A    between atoms: C_16  and  C_17
REMARK    6  A    between atoms: C_19  and  C_20
REMARK    7  A    between atoms: N_29  and  C_30
REMARK                            x       y       z     vdW  Elec       q    Type
REMARK                         _______ _______ _______ _____ _____    ______ ____
ROOT
ATOM      1  C   UNL     1       4.110   4.764  19.341  0.00  0.00    +0.000 C 
ATOM      2  C   UNL     1       3.595   6.057  18.805  0.00  0.00    +0.000 A 
ATOM      3  C   UNL     1       4.009   6.822  17.724  0.00  0.00    +0.000 A 
ATOM      4  C   UNL     1       3.163   7.959  17.659  0.00  0.00    +0.000 A 
ATOM      5  C   UNL     1       2.265   7.901  18.715  0.00  0.00    +0.000 A 
ATOM      6  N   UNL     1       2.522   6.723  19.391  0.00  0.00    +0.000 N 
ATOM      7  C   UNL     1       1.786   6.184  20.519  0.00  0.00    +0.000 C 
ENDROOT
BRANCH   5   8
ATOM      8  C   UNL     1       1.247   8.862  19.067  0.00  0.00    +0.000 A 
ATOM      9  N   UNL     1       0.175   9.078  18.332  0.00  0.00    +0.000 NA
ATOM     10  C   UNL     1      -0.602  10.081  18.894  0.00  0.00    +0.000 A 
ATOM     11  C   UNL     1      -0.123  10.579  20.091  0.00  0.00    +0.000 A 
ATOM     12  S   UNL     1       1.354   9.816  20.496  0.00  0.00    +0.000 S 
BRANCH  10  13
ATOM     13  C   UNL     1      -1.823  10.553  18.248  0.00  0.00    +0.000 A 
ATOM     14  C   UNL     1      -2.149  10.112  16.956  0.00  0.00    +0.000 A 
ATOM     15  C   UNL     1      -3.303  10.572  16.317  0.00  0.00    +0.000 A 
ATOM     16  C   UNL     1      -4.131  11.480  16.967  0.00  0.00    +0.000 A 
ATOM     17  F   UNL     1      -5.233  11.930  16.353  0.00  0.00    +0.000 F 
ATOM     18  C   UNL     1      -3.830  11.933  18.245  0.00  0.00    +0.000 A 
ATOM     19  C   UNL     1      -2.677  11.469  18.886  0.00  0.00    +0.000 A 
ENDBRANCH  10  13
ENDBRANCH   5   8
BRANCH   3  20
ATOM     20  S   UNL     1       5.293   6.497  16.601  0.00  0.00    +0.000 S 
ATOM     21  O   UNL     1       4.978   7.301  15.440  0.00  0.00    +0.000 OA
ATOM     22  O   UNL     1       6.530   6.696  17.324  0.00  0.00    +0.000 OA
BRANCH  20  23
ATOM     23  N   UNL     1       5.214   4.881  16.093  0.00  0.00    +0.000 N 
ATOM     24  H   UNL     1       4.240   4.589  16.188  0.00  0.00    +0.000 HD
BRANCH  23  25
ATOM     25  C   UNL     1       5.774   4.560  14.820  0.00  0.00    +0.000 A 
ATOM     26  C   UNL     1       7.050   5.033  14.502  0.00  0.00    +0.000 A 
ATOM     27  C   UNL     1       7.628   4.702  13.277  0.00  0.00    +0.000 A 
ATOM     28  C   UNL     1       6.924   3.910  12.377  0.00  0.00    +0.000 A 
ATOM     29  F   UNL     1       7.488   3.576  11.210  0.00  0.00    +0.000 F 
ATOM     30  C   UNL     1       5.643   3.457  12.674  0.00  0.00    +0.000 A 
ATOM     31  C   UNL     1       5.058   3.791  13.899  0.00  0.00    +0.000 A 
ENDBRANCH  23  25
ENDBRANCH  20  23
ENDBRANCH   3  20
TORSDOF 5
ENDMDL
MODEL 6
REMARK VINA RESULT:      -7.5      3.626      4.624
REMARK  Name = 
REMARK  7 active torsions:
REMARK  status: ('A' for Active; 'I' for Inactive)
REMARK    1  A    between atoms: C_1  and  C_2
REMARK    2  A    between atoms: C_3  and  S_4
REMARK    3  A    between atoms: S_4  and  N_7
REMARK    4  A    between atoms: N_7  and  C_8
REMARK    5  A    between atoms: C_16  and  C_17
REMARK    6  A    between atoms: C_19  and  C_20
REMARK    7  A    between atoms: N_29  and  C_30
REMARK                            x       y       z     vdW  Elec       q    Type
REMARK                         _______ _______ _______ _____ _____    ______ ____
ROOT
ATOM      1  C   UNL     1       4.614   3.557  19.532  0.00  0.00    +0.000 C 
ATOM      2  C   UNL     1       4.438   4.953  19.039  0.00  0.00    +0.000 A 
ATOM      3  C   UNL     1       5.294   5.779  18.325  0.00  0.00    +0.000 A 
ATOM      4  C   UNL     1       4.619   7.009  18.111  0.00  0.00    +0.000 A 
ATOM      5  C   UNL     1       3.376   6.940  18.724  0.00  0.00    +0.000 A 
ATOM      6  N   UNL     1       3.268   5.672  19.263  0.00  0.00    +0.000 N 
ATOM      7  C   UNL     1       2.113   5.103  19.931  0.00  0.00    +0.000 C 
ENDROOT
BRANCH   5   8
ATOM      8  C   UNL     1       2.368   7.970  18.799  0.00  0.00    +0.000 A 
ATOM      9  N   UNL     1       1.865   8.406  19.936  0.00  0.00    +0.000 NA
ATOM     10  C   UNL     1       0.891   9.366  19.699  0.00  0.00    +0.000 A 
ATOM     11  C   UNL     1       0.707   9.682  18.366  0.00  0.00    +0.000 A 
ATOM     12  S   UNL     1       1.734   8.725  17.387  0.00  0.00    +0.000 S 
BRANCH  10  13
ATOM     13  C   UNL     1       0.136   9.974  20.791  0.00  0.00    +0.000 A 
ATOM     14  C   UNL     1       0.059   9.328  22.034  0.00  0.00    +0.000 A 
ATOM     15  C   UNL     1      -0.678   9.888  23.082  0.00  0.00    +0.000 A 
ATOM     16  C   UNL     1      -1.345  11.092  22.885  0.00  0.00    +0.000 A 
ATOM     17  F   UNL     1      -2.059  11.626  23.883  0.00  0.00    +0.000 F 
ATOM     18  C   UNL     1      -1.285  11.749  21.662  0.00  0.00    +0.000 A 
ATOM     19  C   UNL     1      -0.545  11.191  20.616  0.00  0.00    +0.000 A 
ENDBRANCH  10  13
ENDBRANCH   5   8
BRANCH   3  20
ATOM     20  S   UNL     1       6.892   5.431  17.741  0.00  0.00    +0.000 S 
ATOM     21  O   UNL     1       7.772   6.188  18.605  0.00  0.00    +0.000 OA
ATOM     22  O   UNL     1       6.995   3.990  17.662  0.00  0.00    +0.000 OA
BRANCH  20  23
ATOM     23  N   UNL     1       7.087   6.076  16.185  0.00  0.00    +0.000 N 
ATOM     24  H   UNL     1       8.048   6.416  16.125  0.00  0.00    +0.000 HD
BRANCH  23  25
ATOM     25  C   UNL     1       6.711   5.258  15.078  0.00  0.00    +0.000 A 
ATOM     26  C   UNL     1       5.461   4.634  15.091  0.00  0.00    +0.000 A 
ATOM     27  C   UNL     1       5.060   3.857  14.003  0.00  0.00    +0.000 A 
ATOM     28  C   UNL     1       5.915   3.705  12.917  0.00  0.00    +0.000 A 
ATOM     29  F   UNL     1       5.521   2.977  11.865  0.00  0.00    +0.000 F 
ATOM     30  C   UNL     1       7.171   4.302  12.907  0.00  0.00    +0.000 A 
ATOM     31  C   UNL     1       7.578   5.076  13.998  0.00  0.00    +0.000 A 
ENDBRANCH  23  25
ENDBRANCH  20  23
ENDBRANCH   3  20
TORSDOF 5
ENDMDL
MODEL 7
REMARK VINA RESULT:      -7.5      4.437      9.968
REMARK  Name = 
REMARK  7 active torsions:
REMARK  status: ('A' for Active; 'I' for Inactive)
REMARK    1  A    between atoms: C_1  and  C_2
REMARK    2  A    between atoms: C_3  and  S_4
REMARK    3  A    between atoms: S_4  and  N_7
REMARK    4  A    between atoms: N_7  and  C_8
REMARK    5  A    between atoms: C_16  and  C_17
REMARK    6  A    between atoms: C_19  and  C_20
REMARK    7  A    between atoms: N_29  and  C_30
REMARK                            x       y       z     vdW  Elec       q    Type
REMARK                         _______ _______ _______ _____ _____    ______ ____
ROOT
ATOM      1  C   UNL     1       0.487  12.344  19.104  0.00  0.00    +0.000 C 
ATOM      2  C   UNL     1       0.653  11.024  19.780  0.00  0.00    +0.000 A 
ATOM      3  C   UNL     1       0.251  10.590  21.035  0.00  0.00    +0.000 A 
ATOM      4  C   UNL     1       0.659   9.238  21.168  0.00  0.00    +0.000 A 
ATOM      5  C   UNL     1       1.336   8.867  20.015  0.00  0.00    +0.000 A 
ATOM      6  N   UNL     1       1.302   9.957  19.166  0.00  0.00    +0.000 N 
ATOM      7  C   UNL     1       1.807  10.023  17.807  0.00  0.00    +0.000 C 
ENDROOT
BRANCH   5   8
ATOM      8  C   UNL     1       1.962   7.599  19.724  0.00  0.00    +0.000 A 
ATOM      9  N   UNL     1       2.743   7.403  18.681  0.00  0.00    +0.000 NA
ATOM     10  C   UNL     1       3.168   6.083  18.636  0.00  0.00    +0.000 A 
ATOM     11  C   UNL     1       2.735   5.302  19.692  0.00  0.00    +0.000 A 
ATOM     12  S   UNL     1       1.736   6.223  20.733  0.00  0.00    +0.000 S 
BRANCH  10  13
ATOM     13  C   UNL     1       4.003   5.586  17.547  0.00  0.00    +0.000 A 
ATOM     14  C   UNL     1       4.188   4.205  17.379  0.00  0.00    +0.000 A 
ATOM     15  C   UNL     1       5.002   3.716  16.353  0.00  0.00    +0.000 A 
ATOM     16  C   UNL     1       5.638   4.608  15.498  0.00  0.00    +0.000 A 
ATOM     17  F   UNL     1       6.426   4.143  14.520  0.00  0.00    +0.000 F 
ATOM     18  C   UNL     1       5.472   5.980  15.645  0.00  0.00    +0.000 A 
ATOM     19  C   UNL     1       4.654   6.468  16.668  0.00  0.00    +0.000 A 
ENDBRANCH  10  13
ENDBRANCH   5   8
BRANCH   3  20
ATOM     20  S   UNL     1      -0.618  11.470  22.254  0.00  0.00    +0.000 S 
ATOM     21  O   UNL     1      -0.734  10.546  23.362  0.00  0.00    +0.000 OA
ATOM     22  O   UNL     1       0.067  12.734  22.414  0.00  0.00    +0.000 OA
BRANCH  20  23
ATOM     23  N   UNL     1      -2.201  11.772  21.723  0.00  0.00    +0.000 N 
ATOM     24  H   UNL     1      -2.670  10.867  21.664  0.00  0.00    +0.000 HD
BRANCH  23  25
ATOM     25  C   UNL     1      -2.960  12.751  22.431  0.00  0.00    +0.000 A 
ATOM     26  C   UNL     1      -3.208  13.985  21.824  0.00  0.00    +0.000 A 
ATOM     27  C   UNL     1      -3.976  14.944  22.485  0.00  0.00    +0.000 A 
ATOM     28  C   UNL     1      -4.482  14.664  23.749  0.00  0.00    +0.000 A 
ATOM     29  F   UNL     1      -5.237  15.576  24.375  0.00  0.00    +0.000 F 
ATOM     30  C   UNL     1      -4.218  13.448  24.372  0.00  0.00    +0.000 A 
ATOM     31  C   UNL     1      -3.444  12.488  23.715  0.00  0.00    +0.000 A 
ENDBRANCH  23  25
ENDBRANCH  20  23
ENDBRANCH   3  20
TORSDOF 5
ENDMDL
MODEL 8
REMARK VINA RESULT:      -7.5      4.440      9.779
REMARK  Name = 
REMARK  7 active torsions:
REMARK  status: ('A' for Active; 'I' for Inactive)
REMARK    1  A    between atoms: C_1  and  C_2
REMARK    2  A    between atoms: C_3  and  S_4
REMARK    3  A    between atoms: S_4  and  N_7
REMARK    4  A    between atoms: N_7  and  C_8
REMARK    5  A    between atoms: C_16  and  C_17
REMARK    6  A    between atoms: C_19  and  C_20
REMARK    7  A    between atoms: N_29  and  C_30
REMARK                            x       y       z     vdW  Elec       q    Type
REMARK                         _______ _______ _______ _____ _____    ______ ____
ROOT
ATOM      1  C   UNL     1       0.380  12.587  19.316  0.00  0.00    +0.000 C 
ATOM      2  C   UNL     1       0.494  11.242  19.953  0.00  0.00    +0.000 A 
ATOM      3  C   UNL     1       0.002  10.763  21.158  0.00  0.00    +0.000 A 
ATOM      4  C   UNL     1       0.398   9.405  21.269  0.00  0.00    +0.000 A 
ATOM      5  C   UNL     1       1.154   9.075  20.153  0.00  0.00    +0.000 A 
ATOM      6  N   UNL     1       1.183  10.196  19.346  0.00  0.00    +0.000 N 
ATOM      7  C   UNL     1       1.783  10.310  18.030  0.00  0.00    +0.000 C 
ENDROOT
BRANCH   5   8
ATOM      8  C   UNL     1       1.797   7.816  19.860  0.00  0.00    +0.000 A 
ATOM      9  N   UNL     1       2.593   7.636  18.826  0.00  0.00    +0.000 NA
ATOM     10  C   UNL     1       3.032   6.320  18.776  0.00  0.00    +0.000 A 
ATOM     11  C   UNL     1       2.594   5.527  19.820  0.00  0.00    +0.000 A 
ATOM     12  S   UNL     1       1.573   6.429  20.855  0.00  0.00    +0.000 S 
BRANCH  10  13
ATOM     13  C   UNL     1       3.885   5.841  17.693  0.00  0.00    +0.000 A 
ATOM     14  C   UNL     1       4.620   6.755  16.922  0.00  0.00    +0.000 A 
ATOM     15  C   UNL     1       5.424   6.311  15.869  0.00  0.00    +0.000 A 
ATOM     16  C   UNL     1       5.491   4.953  15.581  0.00  0.00    +0.000 A 
ATOM     17  F   UNL     1       6.254   4.527  14.566  0.00  0.00    +0.000 F 
ATOM     18  C   UNL     1       4.772   4.029  16.328  0.00  0.00    +0.000 A 
ATOM     19  C   UNL     1       3.970   4.472  17.384  0.00  0.00    +0.000 A 
ENDBRANCH  10  13
ENDBRANCH   5   8
BRANCH   3  20
ATOM     20  S   UNL     1      -0.950  11.600  22.344  0.00  0.00    +0.000 S 
ATOM     21  O   UNL     1      -1.468  10.557  23.203  0.00  0.00    +0.000 OA
ATOM     22  O   UNL     1      -0.109  12.648  22.880  0.00  0.00    +0.000 OA
BRANCH  20  23
ATOM     23  N   UNL     1      -2.297  12.312  21.599  0.00  0.00    +0.000 N 
ATOM     24  H   UNL     1      -2.487  11.771  20.753  0.00  0.00    +0.000 HD
BRANCH  23  25
ATOM     25  C   UNL     1      -3.459  12.526  22.399  0.00  0.00    +0.000 A 
ATOM     26  C   UNL     1      -4.681  12.776  21.768  0.00  0.00    +0.000 A 
ATOM     27  C   UNL     1      -5.834  12.955  22.531  0.00  0.00    +0.000 A 
ATOM     28  C   UNL     1      -5.756  12.891  23.917  0.00  0.00    +0.000 A 
ATOM     29  F   UNL     1      -6.867  13.042  24.648  0.00  0.00    +0.000 F 
ATOM     30  C   UNL     1      -4.540  12.670  24.555  0.00  0.00    +0.000 A 
ATOM     31  C   UNL     1      -3.381  12.496  23.794  0.00  0.00    +0.000 A 
ENDBRANCH  23  25
ENDBRANCH  20  23
ENDBRANCH   3  20
TORSDOF 5
ENDMDL
MODEL 9
REMARK VINA RESULT:      -7.4      2.896      3.879
REMARK  Name = 
REMARK  7 active torsions:
REMARK  status: ('A' for Active; 'I' for Inactive)
REMARK    1  A    between atoms: C_1  and  C_2
REMARK    2  A    between atoms: C_3  and  S_4
REMARK    3  A    between atoms: S_4  and  N_7
REMARK    4  A    between atoms: N_7  and  C_8
REMARK    5  A    between atoms: C_16  and  C_17
REMARK    6  A    between atoms: C_19  and  C_20
REMARK    7  A    between atoms: N_29  and  C_30
REMARK                            x       y       z     vdW  Elec       q    Type
REMARK                         _______ _______ _______ _____ _____    ______ ____
ROOT
ATOM      1  C   UNL     1       2.362   6.348  20.973  0.00  0.00    +0.000 C 
ATOM      2  C   UNL     1       2.188   7.345  19.877  0.00  0.00    +0.000 A 
ATOM      3  C   UNL     1       2.744   7.405  18.607  0.00  0.00    +0.000 A 
ATOM      4  C   UNL     1       2.230   8.564  17.972  0.00  0.00    +0.000 A 
ATOM      5  C   UNL     1       1.396   9.222  18.865  0.00  0.00    +0.000 A 
ATOM      6  N   UNL     1       1.359   8.454  20.013  0.00  0.00    +0.000 N 
ATOM      7  C   UNL     1       0.554   8.692  21.197  0.00  0.00    +0.000 C 
ENDROOT
BRANCH   5   8
ATOM      8  C   UNL     1       0.689  10.464  18.665  0.00  0.00    +0.000 A 
ATOM      9  N   UNL     1       1.267  11.645  18.749  0.00  0.00    +0.000 NA
ATOM     10  C   UNL     1       0.336  12.655  18.550  0.00  0.00    +0.000 A 
ATOM     11  C   UNL     1      -0.942  12.212  18.264  0.00  0.00    +0.000 A 
ATOM     12  S   UNL     1      -0.992  10.502  18.294  0.00  0.00    +0.000 S 
BRANCH  10  13
ATOM     13  C   UNL     1       0.706  14.064  18.644  0.00  0.00    +0.000 A 
ATOM     14  C   UNL     1       2.056  14.441  18.569  0.00  0.00    +0.000 A 
ATOM     15  C   UNL     1       2.426  15.784  18.679  0.00  0.00    +0.000 A 
ATOM     16  C   UNL     1       1.447  16.752  18.871  0.00  0.00    +0.000 A 
ATOM     17  F   UNL     1       1.800  18.039  18.986  0.00  0.00    +0.000 F 
ATOM     18  C   UNL     1       0.105  16.404  18.950  0.00  0.00    +0.000 A 
ATOM     19  C   UNL     1      -0.266  15.061  18.836  0.00  0.00    +0.000 A 
ENDBRANCH  10  13
ENDBRANCH   5   8
BRANCH   3  20
ATOM     20  S   UNL     1       3.844   6.290  17.857  0.00  0.00    +0.000 S 
ATOM     21  O   UNL     1       4.154   6.885  16.576  0.00  0.00    +0.000 OA
ATOM     22  O   UNL     1       4.889   6.032  18.825  0.00  0.00    +0.000 OA
BRANCH  20  23
ATOM     23  N   UNL     1       3.043   4.833  17.521  0.00  0.00    +0.000 N 
ATOM     24  H   UNL     1       3.632   4.317  16.866  0.00  0.00    +0.000 HD
BRANCH  23  25
ATOM     25  C   UNL     1       2.612   4.044  18.629  0.00  0.00    +0.000 A 
ATOM     26  C   UNL     1       3.572   3.442  19.447  0.00  0.00    +0.000 A 
ATOM     27  C   UNL     1       3.172   2.695  20.555  0.00  0.00    +0.000 A 
ATOM     28  C   UNL     1       1.817   2.549  20.831  0.00  0.00    +0.000 A 
ATOM     29  F   UNL     1       1.435   1.849  21.906  0.00  0.00    +0.000 F 
ATOM     30  C   UNL     1       0.854   3.123  20.007  0.00  0.00    +0.000 A 
ATOM     31  C   UNL     1       1.251   3.867  18.893  0.00  0.00    +0.000 A 
ENDBRANCH  23  25
ENDBRANCH  20  23
ENDBRANCH   3  20
TORSDOF 5
ENDMDL
