MODEL 1
REMARK VINA RESULT:      -9.1      0.000      0.000
REMARK  Name = 
REMARK  12 active torsions:
REMARK  status: ('A' for Active; 'I' for Inactive)
REMARK    1  A    between atoms: C_1  and  C_2
REMARK    2  A    between atoms: C_3  and  C_4
REMARK    3  A    between atoms: C_4  and  C_5
REMARK    4  A    between atoms: C_4  and  C_11
REMARK    5  A    between atoms: C_15  and  C_16
REMARK    6  A    between atoms: C_16  and  C_17
REMARK    7  A    between atoms: C_16  and  C_18
REMARK    8  A    between atoms: C_16  and  C_19
REMARK    9  A    between atoms: C_21  and  C_22
REMARK   10  A    between atoms: C_22  and  C_23
REMARK   11  A    between atoms: C_22  and  C_24
REMARK   12  A    between atoms: C_22  and  C_25
REMARK                            x       y       z     vdW  Elec       q    Type
REMARK                         _______ _______ _______ _____ _____    ______ ____
ROOT
ATOM      1  C   UNL     1       1.183   9.835  19.294  0.00  0.00    +0.000 C 
ENDROOT
BRANCH   1   4
ATOM      2  C   UNL     1      -0.953  12.363  19.744  0.00  0.00    +0.000 C 
ATOM      3  C   UNL     1      -1.003  11.296  18.708  0.00  0.00    +0.000 A 
ATOM      4  C   UNL     1      -0.077  10.271  18.488  0.00  0.00    +0.000 A 
ATOM      5  N   UNL     1      -0.558   9.562  17.405  0.00  0.00    +0.000 N 
ATOM      6  C   UNL     1      -1.788  10.018  16.992  0.00  0.00    +0.000 A 
ATOM      7  C   UNL     1      -2.636   9.540  15.985  0.00  0.00    +0.000 A 
ATOM      8  C   UNL     1      -3.844  10.211  15.786  0.00  0.00    +0.000 A 
ATOM      9  C   UNL     1      -4.192  11.308  16.567  0.00  0.00    +0.000 A 
ATOM     10  C   UNL     1      -3.327  11.764  17.574  0.00  0.00    +0.000 A 
ATOM     11  C   UNL     1      -2.096  11.111  17.790  0.00  0.00    +0.000 A 
ATOM     12  H   UNL     1      -0.117   8.754  16.989  0.00  0.00    +0.000 HD
ENDBRANCH   1   4
BRANCH   1  13
ATOM     13  C   UNL     1       1.886   8.614  18.711  0.00  0.00    +0.000 A 
ATOM     14  C   UNL     1       2.749   8.554  17.644  0.00  0.00    +0.000 A 
ATOM     15  C   UNL     1       3.305   7.262  17.640  0.00  0.00    +0.000 A 
ATOM     16  C   UNL     1       4.364   6.736  16.903  0.00  0.00    +0.000 A 
ATOM     17  C   UNL     1       4.724   5.399  17.032  0.00  0.00    +0.000 A 
ATOM     18  C   UNL     1       3.944   4.612  17.884  0.00  0.00    +0.000 A 
ATOM     19  C   UNL     1       2.828   5.075  18.674  0.00  0.00    +0.000 A 
ATOM     20  C   UNL     1       2.593   6.475  18.550  0.00  0.00    +0.000 A 
ATOM     21  O   UNL     1       1.713   7.329  19.226  0.00  0.00    +0.000 OA
BRANCH  17  22
ATOM     22  C   UNL     1       5.901   4.871  16.203  0.00  0.00    +0.000 C 
ATOM     23  C   UNL     1       7.196   4.937  17.043  0.00  0.00    +0.000 C 
ATOM     24  C   UNL     1       5.728   3.415  15.727  0.00  0.00    +0.000 C 
ATOM     25  C   UNL     1       6.063   5.754  14.944  0.00  0.00    +0.000 C 
ENDBRANCH  17  22
BRANCH  19  26
ATOM     26  C   UNL     1       2.049   3.968  19.440  0.00  0.00    +0.000 C 
ATOM     27  C   UNL     1       3.013   2.919  20.045  0.00  0.00    +0.000 C 
ATOM     28  C   UNL     1       1.157   4.487  20.578  0.00  0.00    +0.000 C 
ATOM     29  C   UNL     1       1.120   3.213  18.446  0.00  0.00    +0.000 C 
ENDBRANCH  19  26
ENDBRANCH   1  13
BRANCH   1  30
ATOM     30  C   UNL     1       0.801   9.591  20.774  0.00  0.00    +0.000 A 
ATOM     31  C   UNL     1      -0.513   9.271  21.177  0.00  0.00    +0.000 A 
ATOM     32  C   UNL     1      -0.841   9.087  22.524  0.00  0.00    +0.000 A 
ATOM     33  C   UNL     1       0.145   9.200  23.498  0.00  0.00    +0.000 A 
ATOM     34  C   UNL     1       1.457   9.477  23.123  0.00  0.00    +0.000 A 
ATOM     35  C   UNL     1       1.785   9.666  21.773  0.00  0.00    +0.000 A 
ENDBRANCH   1  30
TORSDOF 5
ENDMDL
MODEL 2
REMARK VINA RESULT:      -9.0      0.824      1.385
REMARK  Name = 
REMARK  12 active torsions:
REMARK  status: ('A' for Active; 'I' for Inactive)
REMARK    1  A    between atoms: C_1  and  C_2
REMARK    2  A    between atoms: C_3  and  C_4
REMARK    3  A    between atoms: C_4  and  C_5
REMARK    4  A    between atoms: C_4  and  C_11
REMARK    5  A    between atoms: C_15  and  C_16
REMARK    6  A    between atoms: C_16  and  C_17
REMARK    7  A    between atoms: C_16  and  C_18
REMARK    8  A    between atoms: C_16  and  C_19
REMARK    9  A    between atoms: C_21  and  C_22
REMARK   10  A    between atoms: C_22  and  C_23
REMARK   11  A    between atoms: C_22  and  C_24
REMARK   12  A    between atoms: C_22  and  C_25
REMARK                            x       y       z     vdW  Elec       q    Type
REMARK                         _______ _______ _______ _____ _____    ______ ____
ROOT
ATOM      1  C   UNL     1       0.740  10.194  19.240  0.00  0.00    +0.000 C 
ENDROOT
BRANCH   1   4
ATOM      2  C   UNL     1      -1.699  12.455  19.546  0.00  0.00    +0.000 C 
ATOM      3  C   UNL     1      -1.538  11.420  18.491  0.00  0.00    +0.000 A 
ATOM      4  C   UNL     1      -0.486  10.510  18.334  0.00  0.00    +0.000 A 
ATOM      5  N   UNL     1      -0.790   9.784  17.199  0.00  0.00    +0.000 N 
ATOM      6  C   UNL     1      -2.022  10.113  16.687  0.00  0.00    +0.000 A 
ATOM      7  C   UNL     1      -2.722   9.572  15.601  0.00  0.00    +0.000 A 
ATOM      8  C   UNL     1      -3.976  10.110  15.307  0.00  0.00    +0.000 A 
ATOM      9  C   UNL     1      -4.511  11.139  16.075  0.00  0.00    +0.000 A 
ATOM     10  C   UNL     1      -3.794  11.660  17.163  0.00  0.00    +0.000 A 
ATOM     11  C   UNL     1      -2.520  11.141  17.475  0.00  0.00    +0.000 A 
ATOM     12  H   UNL     1      -0.225   9.042  16.809  0.00  0.00    +0.000 HD
ENDBRANCH   1   4
BRANCH   1  13
ATOM     13  C   UNL     1       1.593   9.037  18.729  0.00  0.00    +0.000 A 
ATOM     14  C   UNL     1       2.540   9.049  17.735  0.00  0.00    +0.000 A 
ATOM     15  C   UNL     1       3.207   7.812  17.790  0.00  0.00    +0.000 A 
ATOM     16  C   UNL     1       4.363   7.378  17.146  0.00  0.00    +0.000 A 
ATOM     17  C   UNL     1       4.828   6.079  17.319  0.00  0.00    +0.000 A 
ATOM     18  C   UNL     1       4.054   5.230  18.115  0.00  0.00    +0.000 A 
ATOM     19  C   UNL     1       2.841   5.596  18.808  0.00  0.00    +0.000 A 
ATOM     20  C   UNL     1       2.496   6.969  18.650  0.00  0.00    +0.000 A 
ATOM     21  O   UNL     1       1.492   7.744  19.243  0.00  0.00    +0.000 OA
BRANCH  17  22
ATOM     22  C   UNL     1       6.109   5.654  16.592  0.00  0.00    +0.000 C 
ATOM     23  C   UNL     1       5.813   5.471  15.086  0.00  0.00    +0.000 C 
ATOM     24  C   UNL     1       7.266   6.664  16.720  0.00  0.00    +0.000 C 
ATOM     25  C   UNL     1       6.598   4.311  17.182  0.00  0.00    +0.000 C 
ENDBRANCH  17  22
BRANCH  19  26
ATOM     26  C   UNL     1       2.104   4.427  19.523  0.00  0.00    +0.000 C 
ATOM     27  C   UNL     1       1.295   4.934  20.741  0.00  0.00    +0.000 C 
ATOM     28  C   UNL     1       1.142   3.638  18.624  0.00  0.00    +0.000 C 
ATOM     29  C   UNL     1       3.153   3.413  20.063  0.00  0.00    +0.000 C 
ENDBRANCH  19  26
ENDBRANCH   1  13
BRANCH   1  30
ATOM     30  C   UNL     1       0.267   9.925  20.690  0.00  0.00    +0.000 A 
ATOM     31  C   UNL     1      -0.043   8.633  21.161  0.00  0.00    +0.000 A 
ATOM     32  C   UNL     1      -0.500   8.418  22.465  0.00  0.00    +0.000 A 
ATOM     33  C   UNL     1      -0.639   9.494  23.335  0.00  0.00    +0.000 A 
ATOM     34  C   UNL     1      -0.302  10.776  22.906  0.00  0.00    +0.000 A 
ATOM     35  C   UNL     1       0.151  10.991  21.597  0.00  0.00    +0.000 A 
ENDBRANCH   1  30
TORSDOF 5
ENDMDL
MODEL 3
REMARK VINA RESULT:      -9.0      0.817      1.158
REMARK  Name = 
REMARK  12 active torsions:
REMARK  status: ('A' for Active; 'I' for Inactive)
REMARK    1  A    between atoms: C_1  and  C_2
REMARK    2  A    between atoms: C_3  and  C_4
REMARK    3  A    between atoms: C_4  and  C_5
REMARK    4  A    between atoms: C_4  and  C_11
REMARK    5  A    between atoms: C_15  and  C_16
REMARK    6  A    between atoms: C_16  and  C_17
REMARK    7  A    between atoms: C_16  and  C_18
REMARK    8  A    between atoms: C_16  and  C_19
REMARK    9  A    between atoms: C_21  and  C_22
REMARK   10  A    between atoms: C_22  and  C_23
REMARK   11  A    between atoms: C_22  and  C_24
REMARK   12  A    between atoms: C_22  and  C_25
REMARK                            x       y       z     vdW  Elec       q    Type
REMARK                         _______ _______ _______ _____ _____    ______ ____
ROOT
ATOM      1  C   UNL     1       0.752  10.193  19.249  0.00  0.00    +0.000 C 
ENDROOT
BRANCH   1   4
ATOM      2  C   UNL     1      -1.676  12.469  19.536  0.00  0.00    +0.000 C 
ATOM      3  C   UNL     1      -1.520  11.424  18.489  0.00  0.00    +0.000 A 
ATOM      4  C   UNL     1      -0.473  10.508  18.340  0.00  0.00    +0.000 A 
ATOM      5  N   UNL     1      -0.780   9.774  17.211  0.00  0.00    +0.000 N 
ATOM      6  C   UNL     1      -2.011  10.104  16.697  0.00  0.00    +0.000 A 
ATOM      7  C   UNL     1      -2.713   9.558  15.615  0.00  0.00    +0.000 A 
ATOM      8  C   UNL     1      -3.965  10.099  15.317  0.00  0.00    +0.000 A 
ATOM      9  C   UNL     1      -4.495  11.137  16.076  0.00  0.00    +0.000 A 
ATOM     10  C   UNL     1      -3.775  11.663  17.159  0.00  0.00    +0.000 A 
ATOM     11  C   UNL     1      -2.503  11.142  17.476  0.00  0.00    +0.000 A 
ATOM     12  H   UNL     1      -0.219   9.026  16.827  0.00  0.00    +0.000 HD
ENDBRANCH   1   4
BRANCH   1  13
ATOM     13  C   UNL     1       1.606   9.036  18.741  0.00  0.00    +0.000 A 
ATOM     14  C   UNL     1       2.536   9.040  17.730  0.00  0.00    +0.000 A 
ATOM     15  C   UNL     1       3.214   7.810  17.792  0.00  0.00    +0.000 A 
ATOM     16  C   UNL     1       4.363   7.377  17.135  0.00  0.00    +0.000 A 
ATOM     17  C   UNL     1       4.842   6.084  17.319  0.00  0.00    +0.000 A 
ATOM     18  C   UNL     1       4.090   5.241  18.143  0.00  0.00    +0.000 A 
ATOM     19  C   UNL     1       2.887   5.608  18.852  0.00  0.00    +0.000 A 
ATOM     20  C   UNL     1       2.526   6.975  18.678  0.00  0.00    +0.000 A 
ATOM     21  O   UNL     1       1.526   7.751  19.277  0.00  0.00    +0.000 OA
BRANCH  17  22
ATOM     22  C   UNL     1       6.115   5.659  16.576  0.00  0.00    +0.000 C 
ATOM     23  C   UNL     1       7.225   6.707  16.811  0.00  0.00    +0.000 C 
ATOM     24  C   UNL     1       6.667   4.289  17.016  0.00  0.00    +0.000 C 
ATOM     25  C   UNL     1       5.806   5.572  15.064  0.00  0.00    +0.000 C 
ENDBRANCH  17  22
BRANCH  19  26
ATOM     26  C   UNL     1       2.173   4.444  19.598  0.00  0.00    +0.000 C 
ATOM     27  C   UNL     1       1.167   3.718  18.673  0.00  0.00    +0.000 C 
ATOM     28  C   UNL     1       3.120   3.382  20.175  0.00  0.00    +0.000 C 
ATOM     29  C   UNL     1       1.360   5.023  20.791  0.00  0.00    +0.000 C 
ENDBRANCH  19  26
ENDBRANCH   1  13
BRANCH   1  30
ATOM     30  C   UNL     1       0.277   9.927  20.698  0.00  0.00    +0.000 A 
ATOM     31  C   UNL     1      -0.030   8.634  21.171  0.00  0.00    +0.000 A 
ATOM     32  C   UNL     1      -0.489   8.421  22.475  0.00  0.00    +0.000 A 
ATOM     33  C   UNL     1      -0.633   9.499  23.342  0.00  0.00    +0.000 A 
ATOM     34  C   UNL     1      -0.300  10.781  22.911  0.00  0.00    +0.000 A 
ATOM     35  C   UNL     1       0.155  10.994  21.602  0.00  0.00    +0.000 A 
ENDBRANCH   1  30
TORSDOF 5
ENDMDL
MODEL 4
REMARK VINA RESULT:      -9.0      0.068      1.099
REMARK  Name = 
REMARK  12 active torsions:
REMARK  status: ('A' for Active; 'I' for Inactive)
REMARK    1  A    between atoms: C_1  and  C_2
REMARK    2  A    between atoms: C_3  and  C_4
REMARK    3  A    between atoms: C_4  and  C_5
REMARK    4  A    between atoms: C_4  and  C_11
REMARK    5  A    between atoms: C_15  and  C_16
REMARK    6  A    between atoms: C_16  and  C_17
REMARK    7  A    between atoms: C_16  and  C_18
REMARK    8  A    between atoms: C_16  and  C_19
REMARK    9  A    between atoms: C_21  and  C_22
REMARK   10  A    between atoms: C_22  and  C_23
REMARK   11  A    between atoms: C_22  and  C_24
REMARK   12  A    between atoms: C_22  and  C_25
REMARK                            x       y       z     vdW  Elec       q    Type
REMARK                         _______ _______ _______ _____ _____    ______ ____
ROOT
ATOM      1  C   UNL     1       1.206   9.842  19.271  0.00  0.00    +0.000 C 
ENDROOT
BRANCH   1   4
ATOM      2  C   UNL     1      -0.908  12.395  19.676  0.00  0.00    +0.000 C 
ATOM      3  C   UNL     1      -0.974  11.304  18.668  0.00  0.00    +0.000 A 
ATOM      4  C   UNL     1      -0.057  10.267  18.465  0.00  0.00    +0.000 A 
ATOM      5  N   UNL     1      -0.552   9.535  17.404  0.00  0.00    +0.000 N 
ATOM      6  C   UNL     1      -1.782   9.990  16.990  0.00  0.00    +0.000 A 
ATOM      7  C   UNL     1      -2.642   9.493  16.002  0.00  0.00    +0.000 A 
ATOM      8  C   UNL     1      -3.847  10.166  15.796  0.00  0.00    +0.000 A 
ATOM      9  C   UNL     1      -4.180  11.285  16.553  0.00  0.00    +0.000 A 
ATOM     10  C   UNL     1      -3.304  11.760  17.540  0.00  0.00    +0.000 A 
ATOM     11  C   UNL     1      -2.076  11.104  17.763  0.00  0.00    +0.000 A 
ATOM     12  H   UNL     1      -0.120   8.714  17.005  0.00  0.00    +0.000 HD
ENDBRANCH   1   4
BRANCH   1  13
ATOM     13  C   UNL     1       1.912   8.617  18.698  0.00  0.00    +0.000 A 
ATOM     14  C   UNL     1       2.789   8.553  17.643  0.00  0.00    +0.000 A 
ATOM     15  C   UNL     1       3.339   7.259  17.646  0.00  0.00    +0.000 A 
ATOM     16  C   UNL     1       4.405   6.727  16.924  0.00  0.00    +0.000 A 
ATOM     17  C   UNL     1       4.756   5.388  17.058  0.00  0.00    +0.000 A 
ATOM     18  C   UNL     1       3.959   4.605  17.898  0.00  0.00    +0.000 A 
ATOM     19  C   UNL     1       2.835   5.074  18.672  0.00  0.00    +0.000 A 
ATOM     20  C   UNL     1       2.610   6.475  18.546  0.00  0.00    +0.000 A 
ATOM     21  O   UNL     1       1.724   7.333  19.209  0.00  0.00    +0.000 OA
BRANCH  17  22
ATOM     22  C   UNL     1       5.942   4.855  16.245  0.00  0.00    +0.000 C 
ATOM     23  C   UNL     1       6.195   5.779  15.033  0.00  0.00    +0.000 C 
ATOM     24  C   UNL     1       7.257   4.763  17.043  0.00  0.00    +0.000 C 
ATOM     25  C   UNL     1       5.605   3.433  15.741  0.00  0.00    +0.000 C 
ENDBRANCH  17  22
BRANCH  19  26
ATOM     26  C   UNL     1       2.039   3.970  19.427  0.00  0.00    +0.000 C 
ATOM     27  C   UNL     1       2.984   2.880  19.986  0.00  0.00    +0.000 C 
ATOM     28  C   UNL     1       1.185   4.486  20.594  0.00  0.00    +0.000 C 
ATOM     29  C   UNL     1       1.070   3.267  18.433  0.00  0.00    +0.000 C 
ENDBRANCH  19  26
ENDBRANCH   1  13
BRANCH   1  30
ATOM     30  C   UNL     1       0.829   9.611  20.755  0.00  0.00    +0.000 A 
ATOM     31  C   UNL     1       1.767   9.717  21.803  0.00  0.00    +0.000 A 
ATOM     32  C   UNL     1       1.411   9.472  23.133  0.00  0.00    +0.000 A 
ATOM     33  C   UNL     1       0.099   9.133  23.446  0.00  0.00    +0.000 A 
ATOM     34  C   UNL     1      -0.855   9.059  22.434  0.00  0.00    +0.000 A 
ATOM     35  C   UNL     1      -0.496   9.300  21.100  0.00  0.00    +0.000 A 
ENDBRANCH   1  30
TORSDOF 5
ENDMDL
MODEL 5
REMARK VINA RESULT:      -8.9      0.825      1.288
REMARK  Name = 
REMARK  12 active torsions:
REMARK  status: ('A' for Active; 'I' for Inactive)
REMARK    1  A    between atoms: C_1  and  C_2
REMARK    2  A    between atoms: C_3  and  C_4
REMARK    3  A    between atoms: C_4  and  C_5
REMARK    4  A    between atoms: C_4  and  C_11
REMARK    5  A    between atoms: C_15  and  C_16
REMARK    6  A    between atoms: C_16  and  C_17
REMARK    7  A    between atoms: C_16  and  C_18
REMARK    8  A    between atoms: C_16  and  C_19
REMARK    9  A    between atoms: C_21  and  C_22
REMARK   10  A    between atoms: C_22  and  C_23
REMARK   11  A    between atoms: C_22  and  C_24
REMARK   12  A    between atoms: C_22  and  C_25
REMARK                            x       y       z     vdW  Elec       q    Type
REMARK                         _______ _______ _______ _____ _____    ______ ____
ROOT
ATOM      1  C   UNL     1       0.734  10.208  19.231  0.00  0.00    +0.000 C 
ENDROOT
BRANCH   1   4
ATOM      2  C   UNL     1      -1.716  12.458  19.537  0.00  0.00    +0.000 C 
ATOM      3  C   UNL     1      -1.549  11.426  18.479  0.00  0.00    +0.000 A 
ATOM      4  C   UNL     1      -0.492  10.521  18.323  0.00  0.00    +0.000 A 
ATOM      5  N   UNL     1      -0.790   9.796  17.186  0.00  0.00    +0.000 N 
ATOM      6  C   UNL     1      -2.024  10.120  16.673  0.00  0.00    +0.000 A 
ATOM      7  C   UNL     1      -2.718   9.579  15.583  0.00  0.00    +0.000 A 
ATOM      8  C   UNL     1      -3.974  10.112  15.288  0.00  0.00    +0.000 A 
ATOM      9  C   UNL     1      -4.516  11.137  16.057  0.00  0.00    +0.000 A 
ATOM     10  C   UNL     1      -3.803  11.658  17.148  0.00  0.00    +0.000 A 
ATOM     11  C   UNL     1      -2.527  11.145  17.462  0.00  0.00    +0.000 A 
ATOM     12  H   UNL     1      -0.222   9.058  16.796  0.00  0.00    +0.000 HD
ENDBRANCH   1   4
BRANCH   1  13
ATOM     13  C   UNL     1       1.587   9.050  18.725  0.00  0.00    +0.000 A 
ATOM     14  C   UNL     1       2.539   9.060  17.735  0.00  0.00    +0.000 A 
ATOM     15  C   UNL     1       3.203   7.822  17.793  0.00  0.00    +0.000 A 
ATOM     16  C   UNL     1       4.362   7.386  17.155  0.00  0.00    +0.000 A 
ATOM     17  C   UNL     1       4.824   6.086  17.331  0.00  0.00    +0.000 A 
ATOM     18  C   UNL     1       4.045   5.239  18.123  0.00  0.00    +0.000 A 
ATOM     19  C   UNL     1       2.829   5.607  18.811  0.00  0.00    +0.000 A 
ATOM     20  C   UNL     1       2.487   6.980  18.651  0.00  0.00    +0.000 A 
ATOM     21  O   UNL     1       1.481   7.758  19.239  0.00  0.00    +0.000 OA
BRANCH  17  22
ATOM     22  C   UNL     1       6.108   5.658  16.610  0.00  0.00    +0.000 C 
ATOM     23  C   UNL     1       6.604   4.316  17.191  0.00  0.00    +0.000 C 
ATOM     24  C   UNL     1       5.940   5.474  15.089  0.00  0.00    +0.000 C 
ATOM     25  C   UNL     1       7.190   6.741  16.829  0.00  0.00    +0.000 C 
ENDBRANCH  17  22
BRANCH  19  26
ATOM     26  C   UNL     1       2.087   4.440  19.522  0.00  0.00    +0.000 C 
ATOM     27  C   UNL     1       1.251   4.952  20.720  0.00  0.00    +0.000 C 
ATOM     28  C   UNL     1       1.148   3.635  18.613  0.00  0.00    +0.000 C 
ATOM     29  C   UNL     1       3.133   3.438  20.092  0.00  0.00    +0.000 C 
ENDBRANCH  19  26
ENDBRANCH   1  13
BRANCH   1  30
ATOM     30  C   UNL     1       0.260   9.945  20.681  0.00  0.00    +0.000 A 
ATOM     31  C   UNL     1       0.137  10.973  21.639  0.00  0.00    +0.000 A 
ATOM     32  C   UNL     1      -0.262  10.707  22.952  0.00  0.00    +0.000 A 
ATOM     33  C   UNL     1      -0.567   9.404  23.332  0.00  0.00    +0.000 A 
ATOM     34  C   UNL     1      -0.491   8.376  22.395  0.00  0.00    +0.000 A 
ATOM     35  C   UNL     1      -0.087   8.643  21.079  0.00  0.00    +0.000 A 
ENDBRANCH   1  30
TORSDOF 5
ENDMDL
MODEL 6
REMARK VINA RESULT:      -8.9      2.235      4.052
REMARK  Name = 
REMARK  12 active torsions:
REMARK  status: ('A' for Active; 'I' for Inactive)
REMARK    1  A    between atoms: C_1  and  C_2
REMARK    2  A    between atoms: C_3  and  C_4
REMARK    3  A    between atoms: C_4  and  C_5
REMARK    4  A    between atoms: C_4  and  C_11
REMARK    5  A    between atoms: C_15  and  C_16
REMARK    6  A    between atoms: C_16  and  C_17
REMARK    7  A    between atoms: C_16  and  C_18
REMARK    8  A    between atoms: C_16  and  C_19
REMARK    9  A    between atoms: C_21  and  C_22
REMARK   10  A    between atoms: C_22  and  C_23
REMARK   11  A    between atoms: C_22  and  C_24
REMARK   12  A    between atoms: C_22  and  C_25
REMARK                            x       y       z     vdW  Elec       q    Type
REMARK                         _______ _______ _______ _____ _____    ______ ____
ROOT
ATOM      1  C   UNL     1       0.520  10.243  19.348  0.00  0.00    +0.000 C 
ENDROOT
BRANCH   1   4
ATOM      2  C   UNL     1       0.403  12.769  21.531  0.00  0.00    +0.000 C 
ATOM      3  C   UNL     1       1.152  12.703  20.247  0.00  0.00    +0.000 A 
ATOM      4  C   UNL     1       1.244  11.622  19.362  0.00  0.00    +0.000 A 
ATOM      5  N   UNL     1       2.068  12.049  18.340  0.00  0.00    +0.000 N 
ATOM      6  C   UNL     1       2.421  13.371  18.475  0.00  0.00    +0.000 A 
ATOM      7  C   UNL     1       3.179  14.194  17.633  0.00  0.00    +0.000 A 
ATOM      8  C   UNL     1       3.377  15.517  18.029  0.00  0.00    +0.000 A 
ATOM      9  C   UNL     1       2.832  15.999  19.215  0.00  0.00    +0.000 A 
ATOM     10  C   UNL     1       2.071  15.157  20.039  0.00  0.00    +0.000 A 
ATOM     11  C   UNL     1       1.863  13.812  19.667  0.00  0.00    +0.000 A 
ATOM     12  H   UNL     1       2.338  11.500  17.536  0.00  0.00    +0.000 HD
ENDBRANCH   1   4
BRANCH   1  13
ATOM     13  C   UNL     1       1.387   9.105  18.822  0.00  0.00    +0.000 A 
ATOM     14  C   UNL     1       2.301   9.131  17.797  0.00  0.00    +0.000 A 
ATOM     15  C   UNL     1       3.003   7.914  17.843  0.00  0.00    +0.000 A 
ATOM     16  C   UNL     1       4.150   7.505  17.166  0.00  0.00    +0.000 A 
ATOM     17  C   UNL     1       4.656   6.221  17.337  0.00  0.00    +0.000 A 
ATOM     18  C   UNL     1       3.933   5.361  18.168  0.00  0.00    +0.000 A 
ATOM     19  C   UNL     1       2.734   5.701  18.898  0.00  0.00    +0.000 A 
ATOM     20  C   UNL     1       2.345   7.062  18.736  0.00  0.00    +0.000 A 
ATOM     21  O   UNL     1       1.340   7.816  19.353  0.00  0.00    +0.000 OA
BRANCH  17  22
ATOM     22  C   UNL     1       5.925   5.823  16.573  0.00  0.00    +0.000 C 
ATOM     23  C   UNL     1       7.070   6.797  16.930  0.00  0.00    +0.000 C 
ATOM     24  C   UNL     1       6.416   4.394  16.877  0.00  0.00    +0.000 C 
ATOM     25  C   UNL     1       5.641   5.903  15.055  0.00  0.00    +0.000 C 
ENDBRANCH  17  22
BRANCH  19  26
ATOM     26  C   UNL     1       2.054   4.521  19.649  0.00  0.00    +0.000 C 
ATOM     27  C   UNL     1       3.105   3.556  20.249  0.00  0.00    +0.000 C 
ATOM     28  C   UNL     1       1.115   4.947  20.786  0.00  0.00    +0.000 C 
ATOM     29  C   UNL     1       1.201   3.696  18.642  0.00  0.00    +0.000 C 
ENDBRANCH  19  26
ENDBRANCH   1  13
BRANCH   1  30
ATOM     30  C   UNL     1      -0.795  10.349  18.537  0.00  0.00    +0.000 A 
ATOM     31  C   UNL     1      -1.029   9.596  17.368  0.00  0.00    +0.000 A 
ATOM     32  C   UNL     1      -2.211   9.731  16.633  0.00  0.00    +0.000 A 
ATOM     33  C   UNL     1      -3.196  10.612  17.065  0.00  0.00    +0.000 A 
ATOM     34  C   UNL     1      -3.007  11.339  18.238  0.00  0.00    +0.000 A 
ATOM     35  C   UNL     1      -1.819  11.206  18.971  0.00  0.00    +0.000 A 
ENDBRANCH   1  30
TORSDOF 5
ENDMDL
MODEL 7
REMARK VINA RESULT:      -8.9      0.069      1.325
REMARK  Name = 
REMARK  12 active torsions:
REMARK  status: ('A' for Active; 'I' for Inactive)
REMARK    1  A    between atoms: C_1  and  C_2
REMARK    2  A    between atoms: C_3  and  C_4
REMARK    3  A    between atoms: C_4  and  C_5
REMARK    4  A    between atoms: C_4  and  C_11
REMARK    5  A    between atoms: C_15  and  C_16
REMARK    6  A    between atoms: C_16  and  C_17
REMARK    7  A    between atoms: C_16  and  C_18
REMARK    8  A    between atoms: C_16  and  C_19
REMARK    9  A    between atoms: C_21  and  C_22
REMARK   10  A    between atoms: C_22  and  C_23
REMARK   11  A    between atoms: C_22  and  C_24
REMARK   12  A    between atoms: C_22  and  C_25
REMARK                            x       y       z     vdW  Elec       q    Type
REMARK                         _______ _______ _______ _____ _____    ______ ____
ROOT
ATOM      1  C   UNL     1       1.199   9.848  19.294  0.00  0.00    +0.000 C 
ENDROOT
BRANCH   1   4
ATOM      2  C   UNL     1      -0.937  12.375  19.749  0.00  0.00    +0.000 C 
ATOM      3  C   UNL     1      -0.992  11.305  18.717  0.00  0.00    +0.000 A 
ATOM      4  C   UNL     1      -0.065  10.281  18.494  0.00  0.00    +0.000 A 
ATOM      5  N   UNL     1      -0.553   9.568  17.416  0.00  0.00    +0.000 N 
ATOM      6  C   UNL     1      -1.785  10.022  17.009  0.00  0.00    +0.000 A 
ATOM      7  C   UNL     1      -2.639   9.540  16.009  0.00  0.00    +0.000 A 
ATOM      8  C   UNL     1      -3.849  10.208  15.815  0.00  0.00    +0.000 A 
ATOM      9  C   UNL     1      -4.193  11.307  16.595  0.00  0.00    +0.000 A 
ATOM     10  C   UNL     1      -3.323  11.767  17.595  0.00  0.00    +0.000 A 
ATOM     11  C   UNL     1      -2.090  11.117  17.806  0.00  0.00    +0.000 A 
ATOM     12  H   UNL     1      -0.113   8.760  17.000  0.00  0.00    +0.000 HD
ENDBRANCH   1   4
BRANCH   1  13
ATOM     13  C   UNL     1       1.900   8.625  18.712  0.00  0.00    +0.000 A 
ATOM     14  C   UNL     1       2.756   8.561  17.640  0.00  0.00    +0.000 A 
ATOM     15  C   UNL     1       3.313   7.270  17.637  0.00  0.00    +0.000 A 
ATOM     16  C   UNL     1       4.368   6.741  16.897  0.00  0.00    +0.000 A 
ATOM     17  C   UNL     1       4.728   5.404  17.029  0.00  0.00    +0.000 A 
ATOM     18  C   UNL     1       3.953   4.620  17.888  0.00  0.00    +0.000 A 
ATOM     19  C   UNL     1       2.841   5.087  18.683  0.00  0.00    +0.000 A 
ATOM     20  C   UNL     1       2.606   6.486  18.555  0.00  0.00    +0.000 A 
ATOM     21  O   UNL     1       1.729   7.342  19.232  0.00  0.00    +0.000 OA
BRANCH  17  22
ATOM     22  C   UNL     1       5.900   4.873  16.195  0.00  0.00    +0.000 C 
ATOM     23  C   UNL     1       5.681   3.374  15.891  0.00  0.00    +0.000 C 
ATOM     24  C   UNL     1       6.089   5.598  14.848  0.00  0.00    +0.000 C 
ATOM     25  C   UNL     1       7.208   5.045  17.002  0.00  0.00    +0.000 C 
ENDBRANCH  17  22
BRANCH  19  26
ATOM     26  C   UNL     1       2.066   3.982  19.458  0.00  0.00    +0.000 C 
ATOM     27  C   UNL     1       1.074   3.237  18.533  0.00  0.00    +0.000 C 
ATOM     28  C   UNL     1       2.960   2.926  20.123  0.00  0.00    +0.000 C 
ATOM     29  C   UNL     1       1.226   4.642  20.589  0.00  0.00    +0.000 C 
ENDBRANCH  19  26
ENDBRANCH   1  13
BRANCH   1  30
ATOM     30  C   UNL     1       0.827   9.611  20.777  0.00  0.00    +0.000 A 
ATOM     31  C   UNL     1       1.767   9.719  21.823  0.00  0.00    +0.000 A 
ATOM     32  C   UNL     1       1.415   9.468  23.153  0.00  0.00    +0.000 A 
ATOM     33  C   UNL     1       0.106   9.121  23.469  0.00  0.00    +0.000 A 
ATOM     34  C   UNL     1      -0.851   9.045  22.459  0.00  0.00    +0.000 A 
ATOM     35  C   UNL     1      -0.496   9.292  21.125  0.00  0.00    +0.000 A 
ENDBRANCH   1  30
TORSDOF 5
ENDMDL
MODEL 8
REMARK VINA RESULT:      -8.8      2.248      4.144
REMARK  Name = 
REMARK  12 active torsions:
REMARK  status: ('A' for Active; 'I' for Inactive)
REMARK    1  A    between atoms: C_1  and  C_2
REMARK    2  A    between atoms: C_3  and  C_4
REMARK    3  A    between atoms: C_4  and  C_5
REMARK    4  A    between atoms: C_4  and  C_11
REMARK    5  A    between atoms: C_15  and  C_16
REMARK    6  A    between atoms: C_16  and  C_17
REMARK    7  A    between atoms: C_16  and  C_18
REMARK    8  A    between atoms: C_16  and  C_19
REMARK    9  A    between atoms: C_21  and  C_22
REMARK   10  A    between atoms: C_22  and  C_23
REMARK   11  A    between atoms: C_22  and  C_24
REMARK   12  A    between atoms: C_22  and  C_25
REMARK                            x       y       z     vdW  Elec       q    Type
REMARK                         _______ _______ _______ _____ _____    ______ ____
ROOT
ATOM      1  C   UNL     1       0.545  10.247  19.346  0.00  0.00    +0.000 C 
ENDROOT
BRANCH   1   4
ATOM      2  C   UNL     1       0.406  12.789  21.508  0.00  0.00    +0.000 C 
ATOM      3  C   UNL     1       1.170  12.713  20.234  0.00  0.00    +0.000 A 
ATOM      4  C   UNL     1       1.270  11.625  19.358  0.00  0.00    +0.000 A 
ATOM      5  N   UNL     1       2.106  12.044  18.342  0.00  0.00    +0.000 N 
ATOM      6  C   UNL     1       2.459  13.366  18.471  0.00  0.00    +0.000 A 
ATOM      7  C   UNL     1       3.227  14.182  17.631  0.00  0.00    +0.000 A 
ATOM      8  C   UNL     1       3.422  15.509  18.020  0.00  0.00    +0.000 A 
ATOM      9  C   UNL     1       2.864  16.000  19.196  0.00  0.00    +0.000 A 
ATOM     10  C   UNL     1       2.093  15.164  20.018  0.00  0.00    +0.000 A 
ATOM     11  C   UNL     1       1.888  13.817  19.654  0.00  0.00    +0.000 A 
ATOM     12  H   UNL     1       2.385  11.488  17.545  0.00  0.00    +0.000 HD
ENDBRANCH   1   4
BRANCH   1  13
ATOM     13  C   UNL     1       1.412   9.107  18.821  0.00  0.00    +0.000 A 
ATOM     14  C   UNL     1       2.331   9.133  17.801  0.00  0.00    +0.000 A 
ATOM     15  C   UNL     1       3.030   7.914  17.848  0.00  0.00    +0.000 A 
ATOM     16  C   UNL     1       4.179   7.503  17.176  0.00  0.00    +0.000 A 
ATOM     17  C   UNL     1       4.680   6.217  17.347  0.00  0.00    +0.000 A 
ATOM     18  C   UNL     1       3.949   5.356  18.171  0.00  0.00    +0.000 A 
ATOM     19  C   UNL     1       2.748   5.699  18.895  0.00  0.00    +0.000 A 
ATOM     20  C   UNL     1       2.364   7.061  18.735  0.00  0.00    +0.000 A 
ATOM     21  O   UNL     1       1.358   7.817  19.349  0.00  0.00    +0.000 OA
BRANCH  17  22
ATOM     22  C   UNL     1       5.951   5.817  16.588  0.00  0.00    +0.000 C 
ATOM     23  C   UNL     1       6.439   4.438  17.087  0.00  0.00    +0.000 C 
ATOM     24  C   UNL     1       5.764   5.720  15.061  0.00  0.00    +0.000 C 
ATOM     25  C   UNL     1       7.048   6.874  16.855  0.00  0.00    +0.000 C 
ENDBRANCH  17  22
BRANCH  19  26
ATOM     26  C   UNL     1       2.060   4.519  19.639  0.00  0.00    +0.000 C 
ATOM     27  C   UNL     1       1.258   5.018  20.865  0.00  0.00    +0.000 C 
ATOM     28  C   UNL     1       1.106   3.687  18.769  0.00  0.00    +0.000 C 
ATOM     29  C   UNL     1       3.150   3.545  20.174  0.00  0.00    +0.000 C 
ENDBRANCH  19  26
ENDBRANCH   1  13
BRANCH   1  30
ATOM     30  C   UNL     1      -0.769  10.352  18.535  0.00  0.00    +0.000 A 
ATOM     31  C   UNL     1      -0.999   9.606  17.360  0.00  0.00    +0.000 A 
ATOM     32  C   UNL     1      -2.181   9.741  16.626  0.00  0.00    +0.000 A 
ATOM     33  C   UNL     1      -3.171  10.615  17.064  0.00  0.00    +0.000 A 
ATOM     34  C   UNL     1      -2.985  11.334  18.242  0.00  0.00    +0.000 A 
ATOM     35  C   UNL     1      -1.797  11.202  18.975  0.00  0.00    +0.000 A 
ENDBRANCH   1  30
TORSDOF 5
ENDMDL
MODEL 9
REMARK VINA RESULT:      -8.8      2.257      4.120
REMARK  Name = 
REMARK  12 active torsions:
REMARK  status: ('A' for Active; 'I' for Inactive)
REMARK    1  A    between atoms: C_1  and  C_2
REMARK    2  A    between atoms: C_3  and  C_4
REMARK    3  A    between atoms: C_4  and  C_5
REMARK    4  A    between atoms: C_4  and  C_11
REMARK    5  A    between atoms: C_15  and  C_16
REMARK    6  A    between atoms: C_16  and  C_17
REMARK    7  A    between atoms: C_16  and  C_18
REMARK    8  A    between atoms: C_16  and  C_19
REMARK    9  A    between atoms: C_21  and  C_22
REMARK   10  A    between atoms: C_22  and  C_23
REMARK   11  A    between atoms: C_22  and  C_24
REMARK   12  A    between atoms: C_22  and  C_25
REMARK                            x       y       z     vdW  Elec       q    Type
REMARK                         _______ _______ _______ _____ _____    ______ ____
ROOT
ATOM      1  C   UNL     1       0.541  10.274  19.365  0.00  0.00    +0.000 C 
ENDROOT
BRANCH   1   4
ATOM      2  C   UNL     1       0.384  12.835  21.504  0.00  0.00    +0.000 C 
ATOM      3  C   UNL     1       1.155  12.749  20.234  0.00  0.00    +0.000 A 
ATOM      4  C   UNL     1       1.263  11.654  19.369  0.00  0.00    +0.000 A 
ATOM      5  N   UNL     1       2.103  12.066  18.354  0.00  0.00    +0.000 N 
ATOM      6  C   UNL     1       2.452  13.390  18.474  0.00  0.00    +0.000 A 
ATOM      7  C   UNL     1       3.223  14.200  17.631  0.00  0.00    +0.000 A 
ATOM      8  C   UNL     1       3.413  15.531  18.009  0.00  0.00    +0.000 A 
ATOM      9  C   UNL     1       2.847  16.031  19.177  0.00  0.00    +0.000 A 
ATOM     10  C   UNL     1       2.073  15.201  20.002  0.00  0.00    +0.000 A 
ATOM     11  C   UNL     1       1.874  13.850  19.649  0.00  0.00    +0.000 A 
ATOM     12  H   UNL     1       2.388  11.504  17.564  0.00  0.00    +0.000 HD
ENDBRANCH   1   4
BRANCH   1  13
ATOM     13  C   UNL     1       1.406   9.136  18.836  0.00  0.00    +0.000 A 
ATOM     14  C   UNL     1       2.324   9.164  17.815  0.00  0.00    +0.000 A 
ATOM     15  C   UNL     1       3.022   7.944  17.857  0.00  0.00    +0.000 A 
ATOM     16  C   UNL     1       4.170   7.534  17.183  0.00  0.00    +0.000 A 
ATOM     17  C   UNL     1       4.670   6.247  17.349  0.00  0.00    +0.000 A 
ATOM     18  C   UNL     1       3.940   5.385  18.171  0.00  0.00    +0.000 A 
ATOM     19  C   UNL     1       2.739   5.726  18.897  0.00  0.00    +0.000 A 
ATOM     20  C   UNL     1       2.356   7.089  18.742  0.00  0.00    +0.000 A 
ATOM     21  O   UNL     1       1.351   7.844  19.359  0.00  0.00    +0.000 OA
BRANCH  17  22
ATOM     22  C   UNL     1       5.941   5.849  16.588  0.00  0.00    +0.000 C 
ATOM     23  C   UNL     1       7.061   6.872  16.882  0.00  0.00    +0.000 C 
ATOM     24  C   UNL     1       6.477   4.452  16.956  0.00  0.00    +0.000 C 
ATOM     25  C   UNL     1       5.637   5.846  15.073  0.00  0.00    +0.000 C 
ENDBRANCH  17  22
BRANCH  19  26
ATOM     26  C   UNL     1       2.050   4.544  19.638  0.00  0.00    +0.000 C 
ATOM     27  C   UNL     1       1.233   5.042  20.854  0.00  0.00    +0.000 C 
ATOM     28  C   UNL     1       1.111   3.704  18.761  0.00  0.00    +0.000 C 
ATOM     29  C   UNL     1       3.141   3.578  20.187  0.00  0.00    +0.000 C 
ENDBRANCH  19  26
ENDBRANCH   1  13
BRANCH   1  30
ATOM     30  C   UNL     1      -0.780  10.375  18.564  0.00  0.00    +0.000 A 
ATOM     31  C   UNL     1      -1.846  11.210  18.958  0.00  0.00    +0.000 A 
ATOM     32  C   UNL     1      -3.043  11.260  18.236  0.00  0.00    +0.000 A 
ATOM     33  C   UNL     1      -3.192  10.487  17.090  0.00  0.00    +0.000 A 
ATOM     34  C   UNL     1      -2.140   9.683  16.658  0.00  0.00    +0.000 A 
ATOM     35  C   UNL     1      -0.942   9.630  17.385  0.00  0.00    +0.000 A 
ENDBRANCH   1  30
TORSDOF 5
ENDMDL
