MODEL 1
REMARK VINA RESULT:      -6.9      0.000      0.000
REMARK  Name = 
REMARK  2 active torsions:
REMARK  status: ('A' for Active; 'I' for Inactive)
REMARK    1  A    between atoms: C_1  and  C_2
REMARK    2  A    between atoms: C_7  and  N_8
REMARK                            x       y       z     vdW  Elec       q    Type
REMARK                         _______ _______ _______ _____ _____    ______ ____
ROOT
ATOM      1  C   UNL     1       1.282   3.007  20.920  0.00  0.00    +0.000 C 
ATOM      2  C   UNL     1       2.141   3.235  19.712  0.00  0.00    +0.000 A 
ATOM      3  C   UNL     1       1.695   2.889  18.444  0.00  0.00    +0.000 A 
ATOM      4  C   UNL     1       2.524   3.140  17.355  0.00  0.00    +0.000 A 
ATOM      5  C   UNL     1       3.778   3.727  17.554  0.00  0.00    +0.000 A 
ATOM      6  C   UNL     1       4.647   4.006  16.482  0.00  0.00    +0.000 A 
ATOM      7  C   UNL     1       5.893   4.590  16.735  0.00  0.00    +0.000 A 
ATOM      8  C   UNL     1       6.277   4.893  18.043  0.00  0.00    +0.000 A 
ATOM      9  C   UNL     1       5.400   4.610  19.096  0.00  0.00    +0.000 A 
ATOM     10  C   UNL     1       4.155   4.035  18.880  0.00  0.00    +0.000 A 
ATOM     11  N   UNL     1       3.354   3.796  19.930  0.00  0.00    +0.000 NA
ENDROOT
BRANCH   7  12
ATOM     12  N   UNL     1       6.802   4.891  15.621  0.00  0.00    +0.000 N 
ATOM     13  O   UNL     1       6.742   4.166  14.618  0.00  0.00    +0.000 OA
ATOM     14  O   UNL     1       7.572   5.852  15.749  0.00  0.00    +0.000 OA
ENDBRANCH   7  12
TORSDOF 1
ENDMDL
MODEL 2
REMARK VINA RESULT:      -6.6      1.240      1.534
REMARK  Name = 
REMARK  2 active torsions:
REMARK  status: ('A' for Active; 'I' for Inactive)
REMARK    1  A    between atoms: C_1  and  C_2
REMARK    2  A    between atoms: C_7  and  N_8
REMARK                            x       y       z     vdW  Elec       q    Type
REMARK                         _______ _______ _______ _____ _____    ______ ____
ROOT
ATOM      1  C   UNL     1       0.896   3.641  20.134  0.00  0.00    +0.000 C 
ATOM      2  C   UNL     1       2.030   3.585  19.154  0.00  0.00    +0.000 A 
ATOM      3  C   UNL     1       2.517   2.370  18.694  0.00  0.00    +0.000 A 
ATOM      4  C   UNL     1       3.558   2.376  17.771  0.00  0.00    +0.000 A 
ATOM      5  C   UNL     1       4.090   3.592  17.328  0.00  0.00    +0.000 A 
ATOM      6  C   UNL     1       5.137   3.646  16.388  0.00  0.00    +0.000 A 
ATOM      7  C   UNL     1       5.638   4.888  15.981  0.00  0.00    +0.000 A 
ATOM      8  C   UNL     1       5.105   6.068  16.504  0.00  0.00    +0.000 A 
ATOM      9  C   UNL     1       4.063   5.995  17.435  0.00  0.00    +0.000 A 
ATOM     10  C   UNL     1       3.540   4.780  17.857  0.00  0.00    +0.000 A 
ATOM     11  N   UNL     1       2.535   4.774  18.746  0.00  0.00    +0.000 NA
ENDROOT
BRANCH   7  12
ATOM     12  N   UNL     1       6.726   4.953  14.996  0.00  0.00    +0.000 N 
ATOM     13  O   UNL     1       7.676   5.710  15.239  0.00  0.00    +0.000 OA
ATOM     14  O   UNL     1       6.629   4.248  13.984  0.00  0.00    +0.000 OA
ENDBRANCH   7  12
TORSDOF 1
ENDMDL
MODEL 3
REMARK VINA RESULT:      -6.5      1.024      1.369
REMARK  Name = 
REMARK  2 active torsions:
REMARK  status: ('A' for Active; 'I' for Inactive)
REMARK    1  A    between atoms: C_1  and  C_2
REMARK    2  A    between atoms: C_7  and  N_8
REMARK                            x       y       z     vdW  Elec       q    Type
REMARK                         _______ _______ _______ _____ _____    ______ ____
ROOT
ATOM      1  C   UNL     1       2.654   3.206  20.896  0.00  0.00    +0.000 C 
ATOM      2  C   UNL     1       3.245   3.381  19.530  0.00  0.00    +0.000 A 
ATOM      3  C   UNL     1       2.524   3.045  18.392  0.00  0.00    +0.000 A 
ATOM      4  C   UNL     1       3.112   3.246  17.147  0.00  0.00    +0.000 A 
ATOM      5  C   UNL     1       4.405   3.775  17.064  0.00  0.00    +0.000 A 
ATOM      6  C   UNL     1       5.036   4.003  15.826  0.00  0.00    +0.000 A 
ATOM      7  C   UNL     1       6.333   4.530  15.797  0.00  0.00    +0.000 A 
ATOM      8  C   UNL     1       7.000   4.826  16.988  0.00  0.00    +0.000 A 
ATOM      9  C   UNL     1       6.355   4.595  18.209  0.00  0.00    +0.000 A 
ATOM     10  C   UNL     1       5.068   4.078  18.273  0.00  0.00    +0.000 A 
ATOM     11  N   UNL     1       4.501   3.886  19.474  0.00  0.00    +0.000 NA
ENDROOT
BRANCH   7  12
ATOM     12  N   UNL     1       6.996   4.777  14.510  0.00  0.00    +0.000 N 
ATOM     13  O   UNL     1       7.928   5.592  14.491  0.00  0.00    +0.000 OA
ATOM     14  O   UNL     1       6.585   4.154  13.522  0.00  0.00    +0.000 OA
ENDBRANCH   7  12
TORSDOF 1
ENDMDL
MODEL 4
REMARK VINA RESULT:      -6.5      0.998      1.043
REMARK  Name = 
REMARK  2 active torsions:
REMARK  status: ('A' for Active; 'I' for Inactive)
REMARK    1  A    between atoms: C_1  and  C_2
REMARK    2  A    between atoms: C_7  and  N_8
REMARK                            x       y       z     vdW  Elec       q    Type
REMARK                         _______ _______ _______ _____ _____    ______ ____
ROOT
ATOM      1  C   UNL     1       1.265   2.738  21.311  0.00  0.00    +0.000 C 
ATOM      2  C   UNL     1       1.980   3.298  20.118  0.00  0.00    +0.000 A 
ATOM      3  C   UNL     1       1.351   3.385  18.884  0.00  0.00    +0.000 A 
ATOM      4  C   UNL     1       2.054   3.930  17.815  0.00  0.00    +0.000 A 
ATOM      5  C   UNL     1       3.368   4.375  17.999  0.00  0.00    +0.000 A 
ATOM      6  C   UNL     1       4.115   4.942  16.948  0.00  0.00    +0.000 A 
ATOM      7  C   UNL     1       5.427   5.367  17.182  0.00  0.00    +0.000 A 
ATOM      8  C   UNL     1       5.997   5.229  18.450  0.00  0.00    +0.000 A 
ATOM      9  C   UNL     1       5.239   4.667  19.484  0.00  0.00    +0.000 A 
ATOM     10  C   UNL     1       3.933   4.238  19.286  0.00  0.00    +0.000 A 
ATOM     11  N   UNL     1       3.254   3.714  20.318  0.00  0.00    +0.000 NA
ENDROOT
BRANCH   7  12
ATOM     12  N   UNL     1       6.210   5.965  16.093  0.00  0.00    +0.000 N 
ATOM     13  O   UNL     1       5.589   6.511  15.172  0.00  0.00    +0.000 OA
ATOM     14  O   UNL     1       7.444   5.888  16.161  0.00  0.00    +0.000 OA
ENDBRANCH   7  12
TORSDOF 1
ENDMDL
MODEL 5
REMARK VINA RESULT:      -6.5      1.527      1.791
REMARK  Name = 
REMARK  2 active torsions:
REMARK  status: ('A' for Active; 'I' for Inactive)
REMARK    1  A    between atoms: C_1  and  C_2
REMARK    2  A    between atoms: C_7  and  N_8
REMARK                            x       y       z     vdW  Elec       q    Type
REMARK                         _______ _______ _______ _____ _____    ______ ____
ROOT
ATOM      1  C   UNL     1       0.441   2.639  19.010  0.00  0.00    +0.000 C 
ATOM      2  C   UNL     1       1.787   3.061  18.502  0.00  0.00    +0.000 A 
ATOM      3  C   UNL     1       2.732   2.121  18.119  0.00  0.00    +0.000 A 
ATOM      4  C   UNL     1       3.959   2.567  17.636  0.00  0.00    +0.000 A 
ATOM      5  C   UNL     1       4.215   3.939  17.548  0.00  0.00    +0.000 A 
ATOM      6  C   UNL     1       5.438   4.437  17.058  0.00  0.00    +0.000 A 
ATOM      7  C   UNL     1       5.647   5.819  16.995  0.00  0.00    +0.000 A 
ATOM      8  C   UNL     1       4.651   6.703  17.417  0.00  0.00    +0.000 A 
ATOM      9  C   UNL     1       3.441   6.190  17.898  0.00  0.00    +0.000 A 
ATOM     10  C   UNL     1       3.200   4.825  17.971  0.00  0.00    +0.000 A 
ATOM     11  N   UNL     1       2.016   4.394  18.434  0.00  0.00    +0.000 NA
ENDROOT
BRANCH   7  12
ATOM     12  N   UNL     1       6.917   6.346  16.479  0.00  0.00    +0.000 N 
ATOM     13  O   UNL     1       7.512   5.676  15.624  0.00  0.00    +0.000 OA
ATOM     14  O   UNL     1       7.317   7.429  16.927  0.00  0.00    +0.000 OA
ENDBRANCH   7  12
TORSDOF 1
ENDMDL
MODEL 6
REMARK VINA RESULT:      -6.4      1.725      2.196
REMARK  Name = 
REMARK  2 active torsions:
REMARK  status: ('A' for Active; 'I' for Inactive)
REMARK    1  A    between atoms: C_1  and  C_2
REMARK    2  A    between atoms: C_7  and  N_8
REMARK                            x       y       z     vdW  Elec       q    Type
REMARK                         _______ _______ _______ _____ _____    ______ ____
ROOT
ATOM      1  C   UNL     1       1.338   2.698  21.577  0.00  0.00    +0.000 C 
ATOM      2  C   UNL     1       2.008   3.688  20.673  0.00  0.00    +0.000 A 
ATOM      3  C   UNL     1       1.777   5.050  20.808  0.00  0.00    +0.000 A 
ATOM      4  C   UNL     1       2.439   5.927  19.955  0.00  0.00    +0.000 A 
ATOM      5  C   UNL     1       3.316   5.427  18.985  0.00  0.00    +0.000 A 
ATOM      6  C   UNL     1       4.014   6.277  18.106  0.00  0.00    +0.000 A 
ATOM      7  C   UNL     1       4.876   5.727  17.150  0.00  0.00    +0.000 A 
ATOM      8  C   UNL     1       5.042   4.344  17.065  0.00  0.00    +0.000 A 
ATOM      9  C   UNL     1       4.342   3.514  17.949  0.00  0.00    +0.000 A 
ATOM     10  C   UNL     1       3.483   4.027  18.911  0.00  0.00    +0.000 A 
ATOM     11  N   UNL     1       2.845   3.181  19.735  0.00  0.00    +0.000 NA
ENDROOT
BRANCH   7  12
ATOM     12  N   UNL     1       5.613   6.608  16.234  0.00  0.00    +0.000 N 
ATOM     13  O   UNL     1       5.149   6.772  15.098  0.00  0.00    +0.000 OA
ATOM     14  O   UNL     1       6.652   7.134  16.653  0.00  0.00    +0.000 OA
ENDBRANCH   7  12
TORSDOF 1
ENDMDL
MODEL 7
REMARK VINA RESULT:      -6.4      1.318      2.004
REMARK  Name = 
REMARK  2 active torsions:
REMARK  status: ('A' for Active; 'I' for Inactive)
REMARK    1  A    between atoms: C_1  and  C_2
REMARK    2  A    between atoms: C_7  and  N_8
REMARK                            x       y       z     vdW  Elec       q    Type
REMARK                         _______ _______ _______ _____ _____    ______ ____
ROOT
ATOM      1  C   UNL     1       0.739   3.138  20.003  0.00  0.00    +0.000 C 
ATOM      2  C   UNL     1       1.897   3.940  19.489  0.00  0.00    +0.000 A 
ATOM      3  C   UNL     1       2.222   5.166  20.052  0.00  0.00    +0.000 A 
ATOM      4  C   UNL     1       3.318   5.860  19.550  0.00  0.00    +0.000 A 
ATOM      5  C   UNL     1       4.064   5.318  18.497  0.00  0.00    +0.000 A 
ATOM      6  C   UNL     1       5.186   5.980  17.963  0.00  0.00    +0.000 A 
ATOM      7  C   UNL     1       5.895   5.397  16.906  0.00  0.00    +0.000 A 
ATOM      8  C   UNL     1       5.494   4.167  16.382  0.00  0.00    +0.000 A 
ATOM      9  C   UNL     1       4.378   3.521  16.927  0.00  0.00    +0.000 A 
ATOM     10  C   UNL     1       3.655   4.070  17.978  0.00  0.00    +0.000 A 
ATOM     11  N   UNL     1       2.598   3.399  18.464  0.00  0.00    +0.000 NA
ENDROOT
BRANCH   7  12
ATOM     12  N   UNL     1       7.070   6.079  16.348  0.00  0.00    +0.000 N 
ATOM     13  O   UNL     1       7.625   5.560  15.370  0.00  0.00    +0.000 OA
ATOM     14  O   UNL     1       7.436   7.132  16.888  0.00  0.00    +0.000 OA
ENDBRANCH   7  12
TORSDOF 1
ENDMDL
MODEL 8
REMARK VINA RESULT:      -6.4      1.832      2.397
REMARK  Name = 
REMARK  2 active torsions:
REMARK  status: ('A' for Active; 'I' for Inactive)
REMARK    1  A    between atoms: C_1  and  C_2
REMARK    2  A    between atoms: C_7  and  N_8
REMARK                            x       y       z     vdW  Elec       q    Type
REMARK                         _______ _______ _______ _____ _____    ______ ____
ROOT
ATOM      1  C   UNL     1       0.786   2.571  18.972  0.00  0.00    +0.000 C 
ATOM      2  C   UNL     1       2.173   3.140  18.933  0.00  0.00    +0.000 A 
ATOM      3  C   UNL     1       3.221   2.513  19.593  0.00  0.00    +0.000 A 
ATOM      4  C   UNL     1       4.491   3.072  19.508  0.00  0.00    +0.000 A 
ATOM      5  C   UNL     1       4.689   4.245  18.770  0.00  0.00    +0.000 A 
ATOM      6  C   UNL     1       5.959   4.842  18.650  0.00  0.00    +0.000 A 
ATOM      7  C   UNL     1       6.103   6.017  17.904  0.00  0.00    +0.000 A 
ATOM      8  C   UNL     1       4.995   6.598  17.283  0.00  0.00    +0.000 A 
ATOM      9  C   UNL     1       3.741   5.989  17.411  0.00  0.00    +0.000 A 
ATOM     10  C   UNL     1       3.564   4.821  18.140  0.00  0.00    +0.000 A 
ATOM     11  N   UNL     1       2.339   4.280  18.220  0.00  0.00    +0.000 NA
ENDROOT
BRANCH   7  12
ATOM     12  N   UNL     1       7.425   6.642  17.768  0.00  0.00    +0.000 N 
ATOM     13  O   UNL     1       7.756   7.050  16.646  0.00  0.00    +0.000 OA
ATOM     14  O   UNL     1       8.129   6.726  18.783  0.00  0.00    +0.000 OA
ENDBRANCH   7  12
TORSDOF 1
ENDMDL
MODEL 9
REMARK VINA RESULT:      -6.4      1.494      1.991
REMARK  Name = 
REMARK  2 active torsions:
REMARK  status: ('A' for Active; 'I' for Inactive)
REMARK    1  A    between atoms: C_1  and  C_2
REMARK    2  A    between atoms: C_7  and  N_8
REMARK                            x       y       z     vdW  Elec       q    Type
REMARK                         _______ _______ _______ _____ _____    ______ ____
ROOT
ATOM      1  C   UNL     1       1.053   3.282  20.605  0.00  0.00    +0.000 C 
ATOM      2  C   UNL     1       2.362   3.644  19.970  0.00  0.00    +0.000 A 
ATOM      3  C   UNL     1       3.473   2.824  20.109  0.00  0.00    +0.000 A 
ATOM      4  C   UNL     1       4.659   3.197  19.483  0.00  0.00    +0.000 A 
ATOM      5  C   UNL     1       4.711   4.379  18.736  0.00  0.00    +0.000 A 
ATOM      6  C   UNL     1       5.886   4.791  18.079  0.00  0.00    +0.000 A 
ATOM      7  C   UNL     1       5.887   5.985  17.347  0.00  0.00    +0.000 A 
ATOM      8  C   UNL     1       4.731   6.764  17.270  0.00  0.00    +0.000 A 
ATOM      9  C   UNL     1       3.572   6.337  17.927  0.00  0.00    +0.000 A 
ATOM     10  C   UNL     1       3.535   5.157  18.657  0.00  0.00    +0.000 A 
ATOM     11  N   UNL     1       2.391   4.796  19.259  0.00  0.00    +0.000 NA
ENDROOT
BRANCH   7  12
ATOM     12  N   UNL     1       7.107   6.418  16.654  0.00  0.00    +0.000 N 
ATOM     13  O   UNL     1       7.520   5.713  15.723  0.00  0.00    +0.000 OA
ATOM     14  O   UNL     1       7.648   7.463  17.039  0.00  0.00    +0.000 OA
ENDBRANCH   7  12
TORSDOF 1
ENDMDL
