MODEL 1
REMARK VINA RESULT:      -7.7      0.000      0.000
REMARK  Name = 
REMARK  10 active torsions:
REMARK  status: ('A' for Active; 'I' for Inactive)
REMARK    1  A    between atoms: C_1  and  N_2
REMARK    2  A    between atoms: N_2  and  C_3
REMARK    3  A    between atoms: N_2  and  S_4
REMARK    4  A    between atoms: S_4  and  C_7
REMARK    5  A    between atoms: C_9  and  N_10
REMARK    6  A    between atoms: C_11  and  C_13
REMARK    7  A    between atoms: C_13  and  O_14
REMARK    8  A    between atoms: O_14  and  C_15
REMARK    9  A    between atoms: C_15  and  C_17
REMARK   10  A    between atoms: C_17  and  C_18
REMARK                            x       y       z     vdW  Elec       q    Type
REMARK                         _______ _______ _______ _____ _____    ______ ____
ROOT
ATOM      1  N   UNL     1       2.019   7.978  19.287  0.00  0.00    +0.000 N 
ATOM      2  C   UNL     1       1.500   9.114  18.681  0.00  0.00    +0.000 C 
ATOM      3  O   UNL     1       1.614   9.411  17.490  0.00  0.00    +0.000 OA
ATOM      4  H   UNL     1       1.905   7.899  20.290  0.00  0.00    +0.000 HD
ENDROOT
BRANCH   1   7
ATOM      5  C   UNL     1       3.666   4.739  18.300  0.00  0.00    +0.000 A 
ATOM      6  C   UNL     1       2.913   5.675  19.038  0.00  0.00    +0.000 A 
ATOM      7  C   UNL     1       2.873   7.023  18.680  0.00  0.00    +0.000 A 
ATOM      8  C   UNL     1       3.692   7.458  17.635  0.00  0.00    +0.000 A 
ATOM      9  C   UNL     1       4.444   6.537  16.897  0.00  0.00    +0.000 A 
ATOM     10  C   UNL     1       4.412   5.169  17.203  0.00  0.00    +0.000 A 
ATOM     11 CL   UNL     1       5.260   4.141  16.108  0.00  0.00    +0.000 Cl
BRANCH   5  12
ATOM     12  S   UNL     1       3.694   3.063  18.906  0.00  0.00    +0.000 S 
ATOM     13  O   UNL     1       4.882   2.928  19.728  0.00  0.00    +0.000 OA
ATOM     14  O   UNL     1       3.492   2.157  17.799  0.00  0.00    +0.000 OA
BRANCH  12  16
ATOM     15  C   UNL     1       1.136   2.315  19.399  0.00  0.00    +0.000 C 
ATOM     16  N   UNL     1       2.341   2.964  19.937  0.00  0.00    +0.000 NA
ATOM     17  C   UNL     1       2.601   2.668  21.353  0.00  0.00    +0.000 C 
ENDBRANCH  12  16
ENDBRANCH   5  12
ENDBRANCH   1   7
BRANCH   2  18
ATOM     18  C   UNL     1       0.746  10.049  19.633  0.00  0.00    +0.000 C 
BRANCH  18  19
ATOM     19  O   UNL     1       0.920  11.427  19.278  0.00  0.00    +0.000 OA
BRANCH  19  20
ATOM     20  C   UNL     1      -0.203  12.015  18.772  0.00  0.00    +0.000 C 
ATOM     21  O   UNL     1      -0.201  13.071  18.150  0.00  0.00    +0.000 OA
BRANCH  20  22
ATOM     22  C   UNL     1      -1.443  11.217  19.131  0.00  0.00    +0.000 C 
BRANCH  22  23
ATOM     23  C   UNL     1      -2.340  10.948  17.946  0.00  0.00    +0.000 A 
ATOM     24  C   UNL     1      -1.928  10.077  16.927  0.00  0.00    +0.000 A 
ATOM     25  C   UNL     1      -2.734   9.862  15.806  0.00  0.00    +0.000 A 
ATOM     26  C   UNL     1      -3.960  10.516  15.693  0.00  0.00    +0.000 A 
ATOM     27  C   UNL     1      -4.386  11.373  16.705  0.00  0.00    +0.000 A 
ATOM     28  C   UNL     1      -3.581  11.589  17.826  0.00  0.00    +0.000 A 
ENDBRANCH  22  23
ENDBRANCH  20  22
ENDBRANCH  19  20
ENDBRANCH  18  19
ENDBRANCH   2  18
TORSDOF 8
ENDMDL
MODEL 2
REMARK VINA RESULT:      -7.4      1.909      3.006
REMARK  Name = 
REMARK  10 active torsions:
REMARK  status: ('A' for Active; 'I' for Inactive)
REMARK    1  A    between atoms: C_1  and  N_2
REMARK    2  A    between atoms: N_2  and  C_3
REMARK    3  A    between atoms: N_2  and  S_4
REMARK    4  A    between atoms: S_4  and  C_7
REMARK    5  A    between atoms: C_9  and  N_10
REMARK    6  A    between atoms: C_11  and  C_13
REMARK    7  A    between atoms: C_13  and  O_14
REMARK    8  A    between atoms: O_14  and  C_15
REMARK    9  A    between atoms: C_15  and  C_17
REMARK   10  A    between atoms: C_17  and  C_18
REMARK                            x       y       z     vdW  Elec       q    Type
REMARK                         _______ _______ _______ _____ _____    ______ ____
ROOT
ATOM      1  N   UNL     1       1.953   8.370  19.683  0.00  0.00    +0.000 N 
ATOM      2  C   UNL     1       1.765   9.185  18.575  0.00  0.00    +0.000 C 
ATOM      3  O   UNL     1       1.781   8.817  17.398  0.00  0.00    +0.000 OA
ATOM      4  H   UNL     1       1.982   8.823  20.588  0.00  0.00    +0.000 HD
ENDROOT
BRANCH   1   7
ATOM      5  C   UNL     1       3.807   5.152  19.058  0.00  0.00    +0.000 A 
ATOM      6  C   UNL     1       3.393   6.493  18.925  0.00  0.00    +0.000 A 
ATOM      7  C   UNL     1       2.318   7.000  19.659  0.00  0.00    +0.000 A 
ATOM      8  C   UNL     1       1.579   6.118  20.450  0.00  0.00    +0.000 A 
ATOM      9  C   UNL     1       1.982   4.784  20.587  0.00  0.00    +0.000 A 
ATOM     10  C   UNL     1       3.115   4.301  19.919  0.00  0.00    +0.000 A 
ATOM     11 CL   UNL     1       3.578   2.687  20.313  0.00  0.00    +0.000 Cl
BRANCH   5  12
ATOM     12  S   UNL     1       5.143   4.610  18.010  0.00  0.00    +0.000 S 
ATOM     13  O   UNL     1       4.576   3.691  17.041  0.00  0.00    +0.000 OA
ATOM     14  O   UNL     1       6.245   4.175  18.837  0.00  0.00    +0.000 OA
BRANCH  12  16
ATOM     15  C   UNL     1       6.939   6.575  17.501  0.00  0.00    +0.000 C 
ATOM     16  N   UNL     1       5.619   6.014  17.171  0.00  0.00    +0.000 NA
ATOM     17  C   UNL     1       5.274   6.090  15.745  0.00  0.00    +0.000 C 
ENDBRANCH  12  16
ENDBRANCH   5  12
ENDBRANCH   1   7
BRANCH   2  18
ATOM     18  C   UNL     1       1.542  10.663  18.910  0.00  0.00    +0.000 C 
BRANCH  18  19
ATOM     19  O   UNL     1       0.323  11.163  18.344  0.00  0.00    +0.000 OA
BRANCH  19  20
ATOM     20  C   UNL     1      -0.703  11.265  19.239  0.00  0.00    +0.000 C 
ATOM     21  O   UNL     1      -0.751  12.103  20.131  0.00  0.00    +0.000 OA
BRANCH  20  22
ATOM     22  C   UNL     1      -1.732  10.175  19.011  0.00  0.00    +0.000 C 
BRANCH  22  23
ATOM     23  C   UNL     1      -2.539  10.373  17.750  0.00  0.00    +0.000 A 
ATOM     24  C   UNL     1      -2.197   9.690  16.574  0.00  0.00    +0.000 A 
ATOM     25  C   UNL     1      -2.911   9.907  15.393  0.00  0.00    +0.000 A 
ATOM     26  C   UNL     1      -3.973  10.809  15.375  0.00  0.00    +0.000 A 
ATOM     27  C   UNL     1      -4.332  11.483  16.540  0.00  0.00    +0.000 A 
ATOM     28  C   UNL     1      -3.619  11.267  17.723  0.00  0.00    +0.000 A 
ENDBRANCH  22  23
ENDBRANCH  20  22
ENDBRANCH  19  20
ENDBRANCH  18  19
ENDBRANCH   2  18
TORSDOF 8
ENDMDL
MODEL 3
REMARK VINA RESULT:      -7.4      3.898      8.193
REMARK  Name = 
REMARK  10 active torsions:
REMARK  status: ('A' for Active; 'I' for Inactive)
REMARK    1  A    between atoms: C_1  and  N_2
REMARK    2  A    between atoms: N_2  and  C_3
REMARK    3  A    between atoms: N_2  and  S_4
REMARK    4  A    between atoms: S_4  and  C_7
REMARK    5  A    between atoms: C_9  and  N_10
REMARK    6  A    between atoms: C_11  and  C_13
REMARK    7  A    between atoms: C_13  and  O_14
REMARK    8  A    between atoms: O_14  and  C_15
REMARK    9  A    between atoms: C_15  and  C_17
REMARK   10  A    between atoms: C_17  and  C_18
REMARK                            x       y       z     vdW  Elec       q    Type
REMARK                         _______ _______ _______ _____ _____    ______ ____
ROOT
ATOM      1  N   UNL     1       2.702   5.764  20.166  0.00  0.00    +0.000 N 
ATOM      2  C   UNL     1       1.868   4.730  20.567  0.00  0.00    +0.000 C 
ATOM      3  O   UNL     1       0.643   4.697  20.426  0.00  0.00    +0.000 OA
ATOM      4  H   UNL     1       3.683   5.684  20.408  0.00  0.00    +0.000 HD
ENDROOT
BRANCH   1   7
ATOM      5  C   UNL     1       1.388   9.278  19.856  0.00  0.00    +0.000 A 
ATOM      6  C   UNL     1       1.637   7.996  20.386  0.00  0.00    +0.000 A 
ATOM      7  C   UNL     1       2.290   7.014  19.639  0.00  0.00    +0.000 A 
ATOM      8  C   UNL     1       2.594   7.286  18.303  0.00  0.00    +0.000 A 
ATOM      9  C   UNL     1       2.349   8.556  17.768  0.00  0.00    +0.000 A 
ATOM     10  C   UNL     1       1.774   9.570  18.548  0.00  0.00    +0.000 A 
ATOM     11 CL   UNL     1       1.685  11.122  17.802  0.00  0.00    +0.000 Cl
BRANCH   5  12
ATOM     12  S   UNL     1       0.480  10.417  20.884  0.00  0.00    +0.000 S 
ATOM     13  O   UNL     1      -0.841  10.555  20.301  0.00  0.00    +0.000 OA
ATOM     14  O   UNL     1       1.283  11.598  21.105  0.00  0.00    +0.000 OA
BRANCH  12  16
ATOM     15  C   UNL     1       1.535   9.307  23.121  0.00  0.00    +0.000 C 
ATOM     16  N   UNL     1       0.305   9.599  22.368  0.00  0.00    +0.000 NA
ATOM     17  C   UNL     1      -0.837   9.980  23.211  0.00  0.00    +0.000 C 
ENDBRANCH  12  16
ENDBRANCH   5  12
ENDBRANCH   1   7
BRANCH   2  18
ATOM     18  C   UNL     1       2.589   3.566  21.254  0.00  0.00    +0.000 C 
BRANCH  18  19
ATOM     19  O   UNL     1       2.704   2.424  20.396  0.00  0.00    +0.000 OA
BRANCH  19  20
ATOM     20  C   UNL     1       3.927   2.296  19.803  0.00  0.00    +0.000 C 
ATOM     21  O   UNL     1       4.956   2.027  20.411  0.00  0.00    +0.000 OA
BRANCH  20  22
ATOM     22  C   UNL     1       3.843   2.585  18.316  0.00  0.00    +0.000 C 
BRANCH  22  23
ATOM     23  C   UNL     1       4.614   3.818  17.906  0.00  0.00    +0.000 A 
ATOM     24  C   UNL     1       5.436   4.480  18.829  0.00  0.00    +0.000 A 
ATOM     25  C   UNL     1       6.112   5.648  18.468  0.00  0.00    +0.000 A 
ATOM     26  C   UNL     1       5.975   6.164  17.180  0.00  0.00    +0.000 A 
ATOM     27  C   UNL     1       5.172   5.507  16.250  0.00  0.00    +0.000 A 
ATOM     28  C   UNL     1       4.494   4.339  16.610  0.00  0.00    +0.000 A 
ENDBRANCH  22  23
ENDBRANCH  20  22
ENDBRANCH  19  20
ENDBRANCH  18  19
ENDBRANCH   2  18
TORSDOF 8
ENDMDL
MODEL 4
REMARK VINA RESULT:      -7.3      3.149      8.271
REMARK  Name = 
REMARK  10 active torsions:
REMARK  status: ('A' for Active; 'I' for Inactive)
REMARK    1  A    between atoms: C_1  and  N_2
REMARK    2  A    between atoms: N_2  and  C_3
REMARK    3  A    between atoms: N_2  and  S_4
REMARK    4  A    between atoms: S_4  and  C_7
REMARK    5  A    between atoms: C_9  and  N_10
REMARK    6  A    between atoms: C_11  and  C_13
REMARK    7  A    between atoms: C_13  and  O_14
REMARK    8  A    between atoms: O_14  and  C_15
REMARK    9  A    between atoms: C_15  and  C_17
REMARK   10  A    between atoms: C_17  and  C_18
REMARK                            x       y       z     vdW  Elec       q    Type
REMARK                         _______ _______ _______ _____ _____    ______ ____
ROOT
ATOM      1  N   UNL     1       2.503   5.674  20.562  0.00  0.00    +0.000 N 
ATOM      2  C   UNL     1       1.653   4.588  20.721  0.00  0.00    +0.000 C 
ATOM      3  O   UNL     1       0.517   4.487  20.250  0.00  0.00    +0.000 OA
ATOM      4  H   UNL     1       3.382   5.647  21.064  0.00  0.00    +0.000 HD
ENDROOT
BRANCH   1   7
ATOM      5  C   UNL     1       1.332   9.202  19.966  0.00  0.00    +0.000 A 
ATOM      6  C   UNL     1       1.494   7.943  20.578  0.00  0.00    +0.000 A 
ATOM      7  C   UNL     1       2.178   6.905  19.940  0.00  0.00    +0.000 A 
ATOM      8  C   UNL     1       2.603   7.100  18.625  0.00  0.00    +0.000 A 
ATOM      9  C   UNL     1       2.446   8.347  18.008  0.00  0.00    +0.000 A 
ATOM     10  C   UNL     1       1.839   9.415  18.684  0.00  0.00    +0.000 A 
ATOM     11 CL   UNL     1       1.864  10.929  17.858  0.00  0.00    +0.000 Cl
BRANCH   5  12
ATOM     12  S   UNL     1       0.376  10.417  20.853  0.00  0.00    +0.000 S 
ATOM     13  O   UNL     1       1.308  11.416  21.342  0.00  0.00    +0.000 OA
ATOM     14  O   UNL     1      -0.493   9.743  21.790  0.00  0.00    +0.000 OA
BRANCH  12  16
ATOM     15  C   UNL     1      -1.582  10.304  18.983  0.00  0.00    +0.000 C 
ATOM     16  N   UNL     1      -0.587  11.154  19.657  0.00  0.00    +0.000 NA
ATOM     17  C   UNL     1      -1.048  12.524  19.920  0.00  0.00    +0.000 C 
ENDBRANCH  12  16
ENDBRANCH   5  12
ENDBRANCH   1   7
BRANCH   2  18
ATOM     18  C   UNL     1       2.226   3.458  21.582  0.00  0.00    +0.000 C 
BRANCH  18  19
ATOM     19  O   UNL     1       2.305   2.222  20.860  0.00  0.00    +0.000 OA
BRANCH  19  20
ATOM     20  C   UNL     1       2.877   2.337  19.625  0.00  0.00    +0.000 C 
ATOM     21  O   UNL     1       2.278   2.146  18.574  0.00  0.00    +0.000 OA
BRANCH  20  22
ATOM     22  C   UNL     1       4.352   2.674  19.739  0.00  0.00    +0.000 C 
BRANCH  22  23
ATOM     23  C   UNL     1       4.802   3.716  18.742  0.00  0.00    +0.000 A 
ATOM     24  C   UNL     1       5.610   4.787  19.151  0.00  0.00    +0.000 A 
ATOM     25  C   UNL     1       5.989   5.778  18.242  0.00  0.00    +0.000 A 
ATOM     26  C   UNL     1       5.564   5.709  16.916  0.00  0.00    +0.000 A 
ATOM     27  C   UNL     1       4.772   4.643  16.495  0.00  0.00    +0.000 A 
ATOM     28  C   UNL     1       4.392   3.651  17.403  0.00  0.00    +0.000 A 
ENDBRANCH  22  23
ENDBRANCH  20  22
ENDBRANCH  19  20
ENDBRANCH  18  19
ENDBRANCH   2  18
TORSDOF 8
ENDMDL
MODEL 5
REMARK VINA RESULT:      -7.3      2.046      3.163
REMARK  Name = 
REMARK  10 active torsions:
REMARK  status: ('A' for Active; 'I' for Inactive)
REMARK    1  A    between atoms: C_1  and  N_2
REMARK    2  A    between atoms: N_2  and  C_3
REMARK    3  A    between atoms: N_2  and  S_4
REMARK    4  A    between atoms: S_4  and  C_7
REMARK    5  A    between atoms: C_9  and  N_10
REMARK    6  A    between atoms: C_11  and  C_13
REMARK    7  A    between atoms: C_13  and  O_14
REMARK    8  A    between atoms: O_14  and  C_15
REMARK    9  A    between atoms: C_15  and  C_17
REMARK   10  A    between atoms: C_17  and  C_18
REMARK                            x       y       z     vdW  Elec       q    Type
REMARK                         _______ _______ _______ _____ _____    ______ ____
ROOT
ATOM      1  N   UNL     1       1.921   8.106  19.620  0.00  0.00    +0.000 N 
ATOM      2  C   UNL     1       1.812   8.959  18.530  0.00  0.00    +0.000 C 
ATOM      3  O   UNL     1       1.996   8.648  17.351  0.00  0.00    +0.000 OA
ATOM      4  H   UNL     1       1.808   8.517  20.539  0.00  0.00    +0.000 HD
ENDROOT
BRANCH   1   7
ATOM      5  C   UNL     1       3.989   5.028  18.966  0.00  0.00    +0.000 A 
ATOM      6  C   UNL     1       3.480   6.337  18.842  0.00  0.00    +0.000 A 
ATOM      7  C   UNL     1       2.381   6.765  19.588  0.00  0.00    +0.000 A 
ATOM      8  C   UNL     1       1.714   5.832  20.385  0.00  0.00    +0.000 A 
ATOM      9  C   UNL     1       2.210   4.529  20.514  0.00  0.00    +0.000 A 
ATOM     10  C   UNL     1       3.368   4.128  19.832  0.00  0.00    +0.000 A 
ATOM     11 CL   UNL     1       3.948   2.550  20.216  0.00  0.00    +0.000 Cl
BRANCH   5  12
ATOM     12  S   UNL     1       5.349   4.583  17.903  0.00  0.00    +0.000 S 
ATOM     13  O   UNL     1       4.851   3.588  16.972  0.00  0.00    +0.000 OA
ATOM     14  O   UNL     1       6.504   4.278  18.715  0.00  0.00    +0.000 OA
BRANCH  12  16
ATOM     15  C   UNL     1       6.929   6.706  17.317  0.00  0.00    +0.000 C 
ATOM     16  N   UNL     1       5.673   6.001  17.016  0.00  0.00    +0.000 NA
ATOM     17  C   UNL     1       5.315   5.994  15.590  0.00  0.00    +0.000 C 
ENDBRANCH  12  16
ENDBRANCH   5  12
ENDBRANCH   1   7
BRANCH   2  18
ATOM     18  C   UNL     1       1.447  10.402  18.892  0.00  0.00    +0.000 C 
BRANCH  18  19
ATOM     19  O   UNL     1       1.002  10.518  20.250  0.00  0.00    +0.000 OA
BRANCH  19  20
ATOM     20  C   UNL     1      -0.193  11.165  20.389  0.00  0.00    +0.000 C 
ATOM     21  O   UNL     1      -0.855  11.163  21.420  0.00  0.00    +0.000 OA
BRANCH  20  22
ATOM     22  C   UNL     1      -0.605  11.829  19.089  0.00  0.00    +0.000 C 
BRANCH  22  23
ATOM     23  C   UNL     1      -1.944  11.354  18.577  0.00  0.00    +0.000 A 
ATOM     24  C   UNL     1      -2.023  10.254  17.710  0.00  0.00    +0.000 A 
ATOM     25  C   UNL     1      -3.255   9.841  17.196  0.00  0.00    +0.000 A 
ATOM     26  C   UNL     1      -4.420  10.522  17.545  0.00  0.00    +0.000 A 
ATOM     27  C   UNL     1      -4.356  11.607  18.418  0.00  0.00    +0.000 A 
ATOM     28  C   UNL     1      -3.125  12.021  18.932  0.00  0.00    +0.000 A 
ENDBRANCH  22  23
ENDBRANCH  20  22
ENDBRANCH  19  20
ENDBRANCH  18  19
ENDBRANCH   2  18
TORSDOF 8
ENDMDL
MODEL 6
REMARK VINA RESULT:      -7.3      3.834      8.600
REMARK  Name = 
REMARK  10 active torsions:
REMARK  status: ('A' for Active; 'I' for Inactive)
REMARK    1  A    between atoms: C_1  and  N_2
REMARK    2  A    between atoms: N_2  and  C_3
REMARK    3  A    between atoms: N_2  and  S_4
REMARK    4  A    between atoms: S_4  and  C_7
REMARK    5  A    between atoms: C_9  and  N_10
REMARK    6  A    between atoms: C_11  and  C_13
REMARK    7  A    between atoms: C_13  and  O_14
REMARK    8  A    between atoms: O_14  and  C_15
REMARK    9  A    between atoms: C_15  and  C_17
REMARK   10  A    between atoms: C_17  and  C_18
REMARK                            x       y       z     vdW  Elec       q    Type
REMARK                         _______ _______ _______ _____ _____    ______ ____
ROOT
ATOM      1  N   UNL     1       2.019   8.911  17.639  0.00  0.00    +0.000 N 
ATOM      2  C   UNL     1       2.635   7.814  18.224  0.00  0.00    +0.000 C 
ATOM      3  O   UNL     1       2.270   7.248  19.258  0.00  0.00    +0.000 OA
ATOM      4  H   UNL     1       2.470   9.313  16.826  0.00  0.00    +0.000 HD
ENDROOT
BRANCH   1   7
ATOM      5  C   UNL     1       0.007  11.440  19.572  0.00  0.00    +0.000 A 
ATOM      6  C   UNL     1       1.087  10.625  19.175  0.00  0.00    +0.000 A 
ATOM      7  C   UNL     1       0.941   9.652  18.184  0.00  0.00    +0.000 A 
ATOM      8  C   UNL     1      -0.335   9.418  17.666  0.00  0.00    +0.000 A 
ATOM      9  C   UNL     1      -1.414  10.222  18.054  0.00  0.00    +0.000 A 
ATOM     10  C   UNL     1      -1.244  11.257  18.984  0.00  0.00    +0.000 A 
ATOM     11 CL   UNL     1      -2.623  12.261  19.239  0.00  0.00    +0.000 Cl
BRANCH   5  12
ATOM     12  S   UNL     1       0.306  12.591  20.899  0.00  0.00    +0.000 S 
ATOM     13  O   UNL     1      -0.094  13.902  20.422  0.00  0.00    +0.000 OA
ATOM     14  O   UNL     1       1.649  12.399  21.398  0.00  0.00    +0.000 OA
BRANCH  12  16
ATOM     15  C   UNL     1      -0.625  10.786  22.693  0.00  0.00    +0.000 C 
ATOM     16  N   UNL     1      -0.793  12.128  22.116  0.00  0.00    +0.000 NA
ATOM     17  C   UNL     1      -1.182  13.157  23.091  0.00  0.00    +0.000 C 
ENDBRANCH  12  16
ENDBRANCH   5  12
ENDBRANCH   1   7
BRANCH   2  18
ATOM     18  C   UNL     1       3.883   7.321  17.484  0.00  0.00    +0.000 C 
BRANCH  18  19
ATOM     19  O   UNL     1       4.665   6.428  18.288  0.00  0.00    +0.000 OA
BRANCH  19  20
ATOM     20  C   UNL     1       5.209   5.387  17.591  0.00  0.00    +0.000 C 
ATOM     21  O   UNL     1       6.393   5.076  17.642  0.00  0.00    +0.000 OA
BRANCH  20  22
ATOM     22  C   UNL     1       4.168   4.717  16.715  0.00  0.00    +0.000 C 
BRANCH  22  23
ATOM     23  C   UNL     1       3.256   3.787  17.481  0.00  0.00    +0.000 A 
ATOM     24  C   UNL     1       1.920   4.139  17.717  0.00  0.00    +0.000 A 
ATOM     25  C   UNL     1       1.087   3.304  18.466  0.00  0.00    +0.000 A 
ATOM     26  C   UNL     1       1.581   2.109  18.985  0.00  0.00    +0.000 A 
ATOM     27  C   UNL     1       2.903   1.742  18.745  0.00  0.00    +0.000 A 
ATOM     28  C   UNL     1       3.738   2.576  17.997  0.00  0.00    +0.000 A 
ENDBRANCH  22  23
ENDBRANCH  20  22
ENDBRANCH  19  20
ENDBRANCH  18  19
ENDBRANCH   2  18
TORSDOF 8
ENDMDL
MODEL 7
REMARK VINA RESULT:      -7.2      6.619      9.814
REMARK  Name = 
REMARK  10 active torsions:
REMARK  status: ('A' for Active; 'I' for Inactive)
REMARK    1  A    between atoms: C_1  and  N_2
REMARK    2  A    between atoms: N_2  and  C_3
REMARK    3  A    between atoms: N_2  and  S_4
REMARK    4  A    between atoms: S_4  and  C_7
REMARK    5  A    between atoms: C_9  and  N_10
REMARK    6  A    between atoms: C_11  and  C_13
REMARK    7  A    between atoms: C_13  and  O_14
REMARK    8  A    between atoms: O_14  and  C_15
REMARK    9  A    between atoms: C_15  and  C_17
REMARK   10  A    between atoms: C_17  and  C_18
REMARK                            x       y       z     vdW  Elec       q    Type
REMARK                         _______ _______ _______ _____ _____    ______ ____
ROOT
ATOM      1  N   UNL     1       9.049   9.114  19.146  0.00  0.00    +0.000 N 
ATOM      2  C   UNL     1       8.236   8.441  18.244  0.00  0.00    +0.000 C 
ATOM      3  O   UNL     1       7.689   8.939  17.258  0.00  0.00    +0.000 OA
ATOM      4  H   UNL     1       9.376   8.591  19.950  0.00  0.00    +0.000 HD
ENDROOT
BRANCH   1   7
ATOM      5  C   UNL     1       9.289  12.705  20.251  0.00  0.00    +0.000 A 
ATOM      6  C   UNL     1       8.886  11.355  20.202  0.00  0.00    +0.000 A 
ATOM      7  C   UNL     1       9.295  10.510  19.169  0.00  0.00    +0.000 A 
ATOM      8  C   UNL     1      10.024  11.057  18.111  0.00  0.00    +0.000 A 
ATOM      9  C   UNL     1      10.428  12.397  18.150  0.00  0.00    +0.000 A 
ATOM     10  C   UNL     1      10.091  13.221  19.233  0.00  0.00    +0.000 A 
ATOM     11 CL   UNL     1      10.796  14.795  19.217  0.00  0.00    +0.000 Cl
BRANCH   5  12
ATOM     12  S   UNL     1       8.637  13.698  21.580  0.00  0.00    +0.000 S 
ATOM     13  O   UNL     1       7.640  14.580  21.002  0.00  0.00    +0.000 OA
ATOM     14  O   UNL     1       9.735  14.265  22.329  0.00  0.00    +0.000 OA
BRANCH  12  16
ATOM     15  C   UNL     1       8.572  12.034  23.719  0.00  0.00    +0.000 C 
ATOM     16  N   UNL     1       7.822  12.584  22.579  0.00  0.00    +0.000 NA
ATOM     17  C   UNL     1       6.407  12.856  22.867  0.00  0.00    +0.000 C 
ENDBRANCH  12  16
ENDBRANCH   5  12
ENDBRANCH   1   7
BRANCH   2  18
ATOM     18  C   UNL     1       8.025   6.959  18.568  0.00  0.00    +0.000 C 
BRANCH  18  19
ATOM     19  O   UNL     1       7.790   6.180  17.387  0.00  0.00    +0.000 OA
BRANCH  19  20
ATOM     20  C   UNL     1       6.932   5.136  17.573  0.00  0.00    +0.000 C 
ATOM     21  O   UNL     1       7.035   4.319  18.480  0.00  0.00    +0.000 OA
BRANCH  20  22
ATOM     22  C   UNL     1       5.879   5.097  16.482  0.00  0.00    +0.000 C 
BRANCH  22  23
ATOM     23  C   UNL     1       4.473   4.959  17.017  0.00  0.00    +0.000 A 
ATOM     24  C   UNL     1       3.821   6.059  17.593  0.00  0.00    +0.000 A 
ATOM     25  C   UNL     1       2.540   5.923  18.132  0.00  0.00    +0.000 A 
ATOM     26  C   UNL     1       1.896   4.687  18.100  0.00  0.00    +0.000 A 
ATOM     27  C   UNL     1       2.527   3.590  17.517  0.00  0.00    +0.000 A 
ATOM     28  C   UNL     1       3.810   3.724  16.978  0.00  0.00    +0.000 A 
ENDBRANCH  22  23
ENDBRANCH  20  22
ENDBRANCH  19  20
ENDBRANCH  18  19
ENDBRANCH   2  18
TORSDOF 8
ENDMDL
MODEL 8
REMARK VINA RESULT:      -7.2      2.048      2.983
REMARK  Name = 
REMARK  10 active torsions:
REMARK  status: ('A' for Active; 'I' for Inactive)
REMARK    1  A    between atoms: C_1  and  N_2
REMARK    2  A    between atoms: N_2  and  C_3
REMARK    3  A    between atoms: N_2  and  S_4
REMARK    4  A    between atoms: S_4  and  C_7
REMARK    5  A    between atoms: C_9  and  N_10
REMARK    6  A    between atoms: C_11  and  C_13
REMARK    7  A    between atoms: C_13  and  O_14
REMARK    8  A    between atoms: O_14  and  C_15
REMARK    9  A    between atoms: C_15  and  C_17
REMARK   10  A    between atoms: C_17  and  C_18
REMARK                            x       y       z     vdW  Elec       q    Type
REMARK                         _______ _______ _______ _____ _____    ______ ____
ROOT
ATOM      1  N   UNL     1       1.836   8.250  19.419  0.00  0.00    +0.000 N 
ATOM      2  C   UNL     1       1.619   9.352  18.602  0.00  0.00    +0.000 C 
ATOM      3  O   UNL     1       1.881   9.419  17.399  0.00  0.00    +0.000 OA
ATOM      4  H   UNL     1       1.634   8.362  20.405  0.00  0.00    +0.000 HD
ENDROOT
BRANCH   1   7
ATOM      5  C   UNL     1       4.150   5.794  17.749  0.00  0.00    +0.000 A 
ATOM      6  C   UNL     1       3.393   6.962  17.977  0.00  0.00    +0.000 A 
ATOM      7  C   UNL     1       2.506   7.057  19.051  0.00  0.00    +0.000 A 
ATOM      8  C   UNL     1       2.292   5.924  19.839  0.00  0.00    +0.000 A 
ATOM      9  C   UNL     1       3.038   4.759  19.619  0.00  0.00    +0.000 A 
ATOM     10  C   UNL     1       3.993   4.697  18.595  0.00  0.00    +0.000 A 
ATOM     11 CL   UNL     1       4.944   3.258  18.552  0.00  0.00    +0.000 Cl
BRANCH   5  12
ATOM     12  S   UNL     1       5.189   5.773  16.301  0.00  0.00    +0.000 S 
ATOM     13  O   UNL     1       4.955   7.017  15.592  0.00  0.00    +0.000 OA
ATOM     14  O   UNL     1       5.007   4.518  15.607  0.00  0.00    +0.000 OA
BRANCH  12  16
ATOM     15  C   UNL     1       7.039   6.773  18.010  0.00  0.00    +0.000 C 
ATOM     16  N   UNL     1       6.776   5.822  16.919  0.00  0.00    +0.000 NA
ATOM     17  C   UNL     1       7.479   4.539  17.058  0.00  0.00    +0.000 C 
ENDBRANCH  12  16
ENDBRANCH   5  12
ENDBRANCH   1   7
BRANCH   2  18
ATOM     18  C   UNL     1       1.017  10.563  19.322  0.00  0.00    +0.000 C 
BRANCH  18  19
ATOM     19  O   UNL     1       0.853  11.682  18.441  0.00  0.00    +0.000 OA
BRANCH  19  20
ATOM     20  C   UNL     1      -0.336  12.337  18.592  0.00  0.00    +0.000 C 
ATOM     21  O   UNL     1      -0.468  13.549  18.478  0.00  0.00    +0.000 OA
BRANCH  20  22
ATOM     22  C   UNL     1      -1.443  11.371  18.971  0.00  0.00    +0.000 C 
BRANCH  22  23
ATOM     23  C   UNL     1      -2.338  11.008  17.809  0.00  0.00    +0.000 A 
ATOM     24  C   UNL     1      -1.907  10.089  16.841  0.00  0.00    +0.000 A 
ATOM     25  C   UNL     1      -2.712   9.787  15.740  0.00  0.00    +0.000 A 
ATOM     26  C   UNL     1      -3.956  10.400  15.596  0.00  0.00    +0.000 A 
ATOM     27  C   UNL     1      -4.401  11.303  16.559  0.00  0.00    +0.000 A 
ATOM     28  C   UNL     1      -3.597  11.607  17.660  0.00  0.00    +0.000 A 
ENDBRANCH  22  23
ENDBRANCH  20  22
ENDBRANCH  19  20
ENDBRANCH  18  19
ENDBRANCH   2  18
TORSDOF 8
ENDMDL
MODEL 9
REMARK VINA RESULT:      -7.2      2.841      4.226
REMARK  Name = 
REMARK  10 active torsions:
REMARK  status: ('A' for Active; 'I' for Inactive)
REMARK    1  A    between atoms: C_1  and  N_2
REMARK    2  A    between atoms: N_2  and  C_3
REMARK    3  A    between atoms: N_2  and  S_4
REMARK    4  A    between atoms: S_4  and  C_7
REMARK    5  A    between atoms: C_9  and  N_10
REMARK    6  A    between atoms: C_11  and  C_13
REMARK    7  A    between atoms: C_13  and  O_14
REMARK    8  A    between atoms: O_14  and  C_15
REMARK    9  A    between atoms: C_15  and  C_17
REMARK   10  A    between atoms: C_17  and  C_18
REMARK                            x       y       z     vdW  Elec       q    Type
REMARK                         _______ _______ _______ _____ _____    ______ ____
ROOT
ATOM      1  N   UNL     1       1.737   6.713  20.900  0.00  0.00    +0.000 N 
ATOM      2  C   UNL     1       1.602   8.012  20.431  0.00  0.00    +0.000 C 
ATOM      3  O   UNL     1       1.757   8.376  19.263  0.00  0.00    +0.000 OA
ATOM      4  H   UNL     1       1.647   6.573  21.900  0.00  0.00    +0.000 HD
ENDROOT
BRANCH   1   7
ATOM      5  C   UNL     1       3.885   4.383  18.867  0.00  0.00    +0.000 A 
ATOM      6  C   UNL     1       3.408   5.568  19.465  0.00  0.00    +0.000 A 
ATOM      7  C   UNL     1       2.194   5.598  20.153  0.00  0.00    +0.000 A 
ATOM      8  C   UNL     1       1.395   4.453  20.143  0.00  0.00    +0.000 A 
ATOM      9  C   UNL     1       1.860   3.272  19.551  0.00  0.00    +0.000 A 
ATOM     10  C   UNL     1       3.120   3.220  18.938  0.00  0.00    +0.000 A 
ATOM     11 CL   UNL     1       3.620   1.660  18.400  0.00  0.00    +0.000 Cl
BRANCH   5  12
ATOM     12  S   UNL     1       5.412   4.495  17.954  0.00  0.00    +0.000 S 
ATOM     13  O   UNL     1       5.226   3.751  16.723  0.00  0.00    +0.000 OA
ATOM     14  O   UNL     1       6.512   4.154  18.828  0.00  0.00    +0.000 OA
BRANCH  12  16
ATOM     15  C   UNL     1       6.816   6.811  17.848  0.00  0.00    +0.000 C 
ATOM     16  N   UNL     1       5.540   6.144  17.545  0.00  0.00    +0.000 NA
ATOM     17  C   UNL     1       4.927   6.568  16.278  0.00  0.00    +0.000 C 
ENDBRANCH  12  16
ENDBRANCH   5  12
ENDBRANCH   1   7
BRANCH   2  18
ATOM     18  C   UNL     1       1.249   9.040  21.511  0.00  0.00    +0.000 C 
BRANCH  18  19
ATOM     19  O   UNL     1       0.114   9.836  21.142  0.00  0.00    +0.000 OA
BRANCH  19  20
ATOM     20  C   UNL     1       0.387  11.168  21.021  0.00  0.00    +0.000 C 
ATOM     21  O   UNL     1       1.387  11.705  21.482  0.00  0.00    +0.000 OA
BRANCH  20  22
ATOM     22  C   UNL     1      -0.733  11.887  20.294  0.00  0.00    +0.000 C 
BRANCH  22  23
ATOM     23  C   UNL     1      -1.898  12.233  21.191  0.00  0.00    +0.000 A 
ATOM     24  C   UNL     1      -1.800  12.061  22.579  0.00  0.00    +0.000 A 
ATOM     25  C   UNL     1      -2.891  12.334  23.408  0.00  0.00    +0.000 A 
ATOM     26  C   UNL     1      -4.090  12.783  22.858  0.00  0.00    +0.000 A 
ATOM     27  C   UNL     1      -4.195  12.972  21.481  0.00  0.00    +0.000 A 
ATOM     28  C   UNL     1      -3.105  12.699  20.651  0.00  0.00    +0.000 A 
ENDBRANCH  22  23
ENDBRANCH  20  22
ENDBRANCH  19  20
ENDBRANCH  18  19
ENDBRANCH   2  18
TORSDOF 8
ENDMDL
