MODEL 1
REMARK VINA RESULT:      -7.2      0.000      0.000
REMARK  Name = 
REMARK  6 active torsions:
REMARK  status: ('A' for Active; 'I' for Inactive)
REMARK    1  A    between atoms: C_1  and  N_2
REMARK    2  A    between atoms: N_2  and  C_3
REMARK    3  A    between atoms: N_2  and  S_4
REMARK    4  A    between atoms: S_4  and  N_7
REMARK    5  A    between atoms: C_8  and  C_10
REMARK    6  A    between atoms: C_11  and  N_12
REMARK                            x       y       z     vdW  Elec       q    Type
REMARK                         _______ _______ _______ _____ _____    ______ ____
ROOT
ATOM      1  C   UNL     1       4.255   4.166  19.580  0.00  0.00    +0.000 C 
ATOM      2  C   UNL     1       3.036   4.732  19.628  0.00  0.00    +0.000 C 
ATOM      3  C   UNL     1       2.076   3.727  20.196  0.00  0.00    +0.000 C 
ATOM      4  O   UNL     1       2.847   2.568  20.479  0.00  0.00    +0.000 OA
ATOM      5  C   UNL     1       4.131   2.816  20.123  0.00  0.00    +0.000 C 
ATOM      6  O   UNL     1       5.051   2.024  20.236  0.00  0.00    +0.000 OA
ENDROOT
BRANCH   2   7
ATOM      7  N   UNL     1       2.567   5.999  19.272  0.00  0.00    +0.000 N 
ATOM      8  C   UNL     1       2.486   6.523  17.903  0.00  0.00    +0.000 C 
ATOM      9  C   UNL     1       2.594   8.030  18.076  0.00  0.00    +0.000 C 
ATOM     10  C   UNL     1       1.836   8.282  19.362  0.00  0.00    +0.000 C 
ATOM     11  C   UNL     1       2.121   7.045  20.209  0.00  0.00    +0.000 C 
ENDBRANCH   2   7
BRANCH   1  13
ATOM     12  N   UNL     1       5.652   4.932  17.728  0.00  0.00    +0.000 N 
ATOM     13  C   UNL     1       5.541   4.717  19.115  0.00  0.00    +0.000 C 
ATOM     14  O   UNL     1       6.469   4.950  19.879  0.00  0.00    +0.000 OA
ATOM     15  H   UNL     1       4.858   5.396  17.280  0.00  0.00    +0.000 HD
BRANCH  12  16
ATOM     16  S   UNL     1       7.123   5.394  17.114  0.00  0.00    +0.000 S 
ATOM     17  O   UNL     1       7.990   4.240  17.033  0.00  0.00    +0.000 OA
ATOM     18  O   UNL     1       7.523   6.623  17.755  0.00  0.00    +0.000 OA
BRANCH  16  20
ATOM     19  C   UNL     1       7.006   4.625  14.610  0.00  0.00    +0.000 C 
ATOM     20  N   UNL     1       6.711   5.777  15.509  0.00  0.00    +0.000 NA
ATOM     21  C   UNL     1       5.332   6.260  15.293  0.00  0.00    +0.000 C 
ENDBRANCH  16  20
ENDBRANCH  12  16
ENDBRANCH   1  13
TORSDOF 4
ENDMDL
MODEL 2
REMARK VINA RESULT:      -6.8      0.852      1.220
REMARK  Name = 
REMARK  6 active torsions:
REMARK  status: ('A' for Active; 'I' for Inactive)
REMARK    1  A    between atoms: C_1  and  N_2
REMARK    2  A    between atoms: N_2  and  C_3
REMARK    3  A    between atoms: N_2  and  S_4
REMARK    4  A    between atoms: S_4  and  N_7
REMARK    5  A    between atoms: C_8  and  C_10
REMARK    6  A    between atoms: C_11  and  N_12
REMARK                            x       y       z     vdW  Elec       q    Type
REMARK                         _______ _______ _______ _____ _____    ______ ____
ROOT
ATOM      1  C   UNL     1       4.322   4.631  19.282  0.00  0.00    +0.000 C 
ATOM      2  C   UNL     1       3.205   5.360  19.456  0.00  0.00    +0.000 C 
ATOM      3  C   UNL     1       2.197   4.507  20.171  0.00  0.00    +0.000 C 
ATOM      4  O   UNL     1       2.835   3.258  20.400  0.00  0.00    +0.000 OA
ATOM      5  C   UNL     1       4.086   3.321  19.884  0.00  0.00    +0.000 C 
ATOM      6  O   UNL     1       4.899   2.412  19.913  0.00  0.00    +0.000 OA
ENDROOT
BRANCH   2   7
ATOM      7  N   UNL     1       2.869   6.672  19.115  0.00  0.00    +0.000 N 
ATOM      8  C   UNL     1       2.130   7.611  19.968  0.00  0.00    +0.000 C 
ATOM      9  C   UNL     1       1.451   8.550  18.982  0.00  0.00    +0.000 C 
ATOM     10  C   UNL     1       2.479   8.692  17.880  0.00  0.00    +0.000 C 
ATOM     11  C   UNL     1       3.153   7.324  17.824  0.00  0.00    +0.000 C 
ENDBRANCH   2   7
BRANCH   1  13
ATOM     12  N   UNL     1       5.582   5.105  17.243  0.00  0.00    +0.000 N 
ATOM     13  C   UNL     1       5.602   4.991  18.647  0.00  0.00    +0.000 C 
ATOM     14  O   UNL     1       6.630   5.157  19.291  0.00  0.00    +0.000 OA
ATOM     15  H   UNL     1       4.801   5.633  16.847  0.00  0.00    +0.000 HD
BRANCH  12  16
ATOM     16  S   UNL     1       7.017   5.345  16.447  0.00  0.00    +0.000 S 
ATOM     17  O   UNL     1       7.865   4.188  16.631  0.00  0.00    +0.000 OA
ATOM     18  O   UNL     1       7.470   6.689  16.711  0.00  0.00    +0.000 OA
BRANCH  16  20
ATOM     19  C   UNL     1       7.689   5.138  13.921  0.00  0.00    +0.000 C 
ATOM     20  N   UNL     1       6.513   5.296  14.823  0.00  0.00    +0.000 NA
ATOM     21  C   UNL     1       5.476   4.296  14.499  0.00  0.00    +0.000 C 
ENDBRANCH  16  20
ENDBRANCH  12  16
ENDBRANCH   1  13
TORSDOF 4
ENDMDL
MODEL 3
REMARK VINA RESULT:      -6.8      1.002      1.209
REMARK  Name = 
REMARK  6 active torsions:
REMARK  status: ('A' for Active; 'I' for Inactive)
REMARK    1  A    between atoms: C_1  and  N_2
REMARK    2  A    between atoms: N_2  and  C_3
REMARK    3  A    between atoms: N_2  and  S_4
REMARK    4  A    between atoms: S_4  and  N_7
REMARK    5  A    between atoms: C_8  and  C_10
REMARK    6  A    between atoms: C_11  and  N_12
REMARK                            x       y       z     vdW  Elec       q    Type
REMARK                         _______ _______ _______ _____ _____    ______ ____
ROOT
ATOM      1  C   UNL     1       4.119   4.030  19.521  0.00  0.00    +0.000 C 
ATOM      2  C   UNL     1       2.912   4.623  19.555  0.00  0.00    +0.000 C 
ATOM      3  C   UNL     1       1.914   3.624  20.063  0.00  0.00    +0.000 C 
ATOM      4  O   UNL     1       2.650   2.438  20.327  0.00  0.00    +0.000 OA
ATOM      5  C   UNL     1       3.948   2.666  20.015  0.00  0.00    +0.000 C 
ATOM      6  O   UNL     1       4.846   1.848  20.125  0.00  0.00    +0.000 OA
ENDROOT
BRANCH   2   7
ATOM      7  N   UNL     1       2.483   5.912  19.230  0.00  0.00    +0.000 N 
ATOM      8  C   UNL     1       2.348   6.446  17.869  0.00  0.00    +0.000 C 
ATOM      9  C   UNL     1       2.536   7.946  18.039  0.00  0.00    +0.000 C 
ATOM     10  C   UNL     1       1.865   8.227  19.367  0.00  0.00    +0.000 C 
ATOM     11  C   UNL     1       2.140   6.973  20.193  0.00  0.00    +0.000 C 
ENDBRANCH   2   7
BRANCH   1  13
ATOM     12  N   UNL     1       5.797   4.329  17.770  0.00  0.00    +0.000 N 
ATOM     13  C   UNL     1       5.429   4.564  19.110  0.00  0.00    +0.000 C 
ATOM     14  O   UNL     1       6.170   5.154  19.886  0.00  0.00    +0.000 OA
ATOM     15  H   UNL     1       5.077   4.513  17.068  0.00  0.00    +0.000 HD
BRANCH  12  16
ATOM     16  S   UNL     1       7.324   4.756  17.282  0.00  0.00    +0.000 S 
ATOM     17  O   UNL     1       7.679   3.996  16.104  0.00  0.00    +0.000 OA
ATOM     18  O   UNL     1       8.175   4.830  18.445  0.00  0.00    +0.000 OA
BRANCH  16  20
ATOM     19  C   UNL     1       5.633   6.561  16.413  0.00  0.00    +0.000 C 
ATOM     20  N   UNL     1       7.070   6.350  16.745  0.00  0.00    +0.000 NA
ATOM     21  C   UNL     1       7.556   7.419  17.641  0.00  0.00    +0.000 C 
ENDBRANCH  16  20
ENDBRANCH  12  16
ENDBRANCH   1  13
TORSDOF 4
ENDMDL
MODEL 4
REMARK VINA RESULT:      -6.7      1.873      2.247
REMARK  Name = 
REMARK  6 active torsions:
REMARK  status: ('A' for Active; 'I' for Inactive)
REMARK    1  A    between atoms: C_1  and  N_2
REMARK    2  A    between atoms: N_2  and  C_3
REMARK    3  A    between atoms: N_2  and  S_4
REMARK    4  A    between atoms: S_4  and  N_7
REMARK    5  A    between atoms: C_8  and  C_10
REMARK    6  A    between atoms: C_11  and  N_12
REMARK                            x       y       z     vdW  Elec       q    Type
REMARK                         _______ _______ _______ _____ _____    ______ ____
ROOT
ATOM      1  C   UNL     1       3.556   3.906  18.314  0.00  0.00    +0.000 C 
ATOM      2  C   UNL     1       2.559   4.808  18.261  0.00  0.00    +0.000 C 
ATOM      3  C   UNL     1       1.312   4.101  17.817  0.00  0.00    +0.000 C 
ATOM      4  O   UNL     1       1.677   2.738  17.644  0.00  0.00    +0.000 OA
ATOM      5  C   UNL     1       2.994   2.613  17.936  0.00  0.00    +0.000 C 
ATOM      6  O   UNL     1       3.622   1.568  17.887  0.00  0.00    +0.000 OA
ENDROOT
BRANCH   2   7
ATOM      7  N   UNL     1       2.507   6.176  18.538  0.00  0.00    +0.000 N 
ATOM      8  C   UNL     1       2.370   6.769  19.874  0.00  0.00    +0.000 C 
ATOM      9  C   UNL     1       1.697   8.109  19.618  0.00  0.00    +0.000 C 
ATOM     10  C   UNL     1       2.312   8.557  18.309  0.00  0.00    +0.000 C 
ATOM     11  C   UNL     1       2.528   7.258  17.537  0.00  0.00    +0.000 C 
ENDBRANCH   2   7
BRANCH   1  13
ATOM     12  N   UNL     1       5.685   5.060  17.983  0.00  0.00    +0.000 N 
ATOM     13  C   UNL     1       4.971   4.074  18.692  0.00  0.00    +0.000 C 
ATOM     14  O   UNL     1       5.506   3.384  19.551  0.00  0.00    +0.000 OA
ATOM     15  H   UNL     1       5.214   5.960  17.870  0.00  0.00    +0.000 HD
BRANCH  12  16
ATOM     16  S   UNL     1       7.318   5.192  18.239  0.00  0.00    +0.000 S 
ATOM     17  O   UNL     1       8.009   4.216  17.427  0.00  0.00    +0.000 OA
ATOM     18  O   UNL     1       7.552   5.328  19.656  0.00  0.00    +0.000 OA
BRANCH  16  20
ATOM     19  C   UNL     1       6.406   7.278  16.938  0.00  0.00    +0.000 C 
ATOM     20  N   UNL     1       7.648   6.702  17.529  0.00  0.00    +0.000 NA
ATOM     21  C   UNL     1       8.314   7.694  18.398  0.00  0.00    +0.000 C 
ENDBRANCH  16  20
ENDBRANCH  12  16
ENDBRANCH   1  13
TORSDOF 4
ENDMDL
MODEL 5
REMARK VINA RESULT:      -6.6      1.870      2.449
REMARK  Name = 
REMARK  6 active torsions:
REMARK  status: ('A' for Active; 'I' for Inactive)
REMARK    1  A    between atoms: C_1  and  N_2
REMARK    2  A    between atoms: N_2  and  C_3
REMARK    3  A    between atoms: N_2  and  S_4
REMARK    4  A    between atoms: S_4  and  N_7
REMARK    5  A    between atoms: C_8  and  C_10
REMARK    6  A    between atoms: C_11  and  N_12
REMARK                            x       y       z     vdW  Elec       q    Type
REMARK                         _______ _______ _______ _____ _____    ______ ____
ROOT
ATOM      1  C   UNL     1       3.494   3.846  18.189  0.00  0.00    +0.000 C 
ATOM      2  C   UNL     1       2.669   4.674  18.856  0.00  0.00    +0.000 C 
ATOM      3  C   UNL     1       1.722   3.838  19.666  0.00  0.00    +0.000 C 
ATOM      4  O   UNL     1       2.087   2.487  19.420  0.00  0.00    +0.000 OA
ATOM      5  C   UNL     1       3.129   2.481  18.555  0.00  0.00    +0.000 C 
ATOM      6  O   UNL     1       3.683   1.477  18.137  0.00  0.00    +0.000 OA
ENDROOT
BRANCH   2   7
ATOM      7  N   UNL     1       2.571   6.066  18.914  0.00  0.00    +0.000 N 
ATOM      8  C   UNL     1       2.313   6.852  20.127  0.00  0.00    +0.000 C 
ATOM      9  C   UNL     1       1.642   8.117  19.614  0.00  0.00    +0.000 C 
ATOM     10  C   UNL     1       2.358   8.377  18.305  0.00  0.00    +0.000 C 
ATOM     11  C   UNL     1       2.659   6.983  17.763  0.00  0.00    +0.000 C 
ENDBRANCH   2   7
BRANCH   1  13
ATOM     12  N   UNL     1       5.707   4.817  17.827  0.00  0.00    +0.000 N 
ATOM     13  C   UNL     1       4.601   4.149  17.265  0.00  0.00    +0.000 C 
ATOM     14  O   UNL     1       4.558   3.865  16.074  0.00  0.00    +0.000 OA
ATOM     15  H   UNL     1       6.048   4.448  18.718  0.00  0.00    +0.000 HD
BRANCH  12  16
ATOM     16  S   UNL     1       6.916   5.335  16.816  0.00  0.00    +0.000 S 
ATOM     17  O   UNL     1       6.370   6.268  15.857  0.00  0.00    +0.000 OA
ATOM     18  O   UNL     1       7.709   4.194  16.426  0.00  0.00    +0.000 OA
BRANCH  16  20
ATOM     19  C   UNL     1       7.643   7.718  17.633  0.00  0.00    +0.000 C 
ATOM     20  N   UNL     1       7.865   6.265  17.878  0.00  0.00    +0.000 NA
ATOM     21  C   UNL     1       7.719   5.956  19.315  0.00  0.00    +0.000 C 
ENDBRANCH  16  20
ENDBRANCH  12  16
ENDBRANCH   1  13
TORSDOF 4
ENDMDL
MODEL 6
REMARK VINA RESULT:      -6.6      1.931      2.509
REMARK  Name = 
REMARK  6 active torsions:
REMARK  status: ('A' for Active; 'I' for Inactive)
REMARK    1  A    between atoms: C_1  and  N_2
REMARK    2  A    between atoms: N_2  and  C_3
REMARK    3  A    between atoms: N_2  and  S_4
REMARK    4  A    between atoms: S_4  and  N_7
REMARK    5  A    between atoms: C_8  and  C_10
REMARK    6  A    between atoms: C_11  and  N_12
REMARK                            x       y       z     vdW  Elec       q    Type
REMARK                         _______ _______ _______ _____ _____    ______ ____
ROOT
ATOM      1  C   UNL     1       3.161   4.908  19.128  0.00  0.00    +0.000 C 
ATOM      2  C   UNL     1       2.411   5.918  19.605  0.00  0.00    +0.000 C 
ATOM      3  C   UNL     1       1.642   5.410  20.790  0.00  0.00    +0.000 C 
ATOM      4  O   UNL     1       2.027   4.053  20.952  0.00  0.00    +0.000 OA
ATOM      5  C   UNL     1       2.922   3.748  19.982  0.00  0.00    +0.000 C 
ATOM      6  O   UNL     1       3.450   2.657  19.838  0.00  0.00    +0.000 OA
ENDROOT
BRANCH   2   7
ATOM      7  N   UNL     1       2.258   7.249  19.211  0.00  0.00    +0.000 N 
ATOM      8  C   UNL     1       1.717   8.328  20.047  0.00  0.00    +0.000 C 
ATOM      9  C   UNL     1       1.134   9.315  19.047  0.00  0.00    +0.000 C 
ATOM     10  C   UNL     1       2.109   9.248  17.891  0.00  0.00    +0.000 C 
ATOM     11  C   UNL     1       2.566   7.792  17.875  0.00  0.00    +0.000 C 
ENDBRANCH   2   7
BRANCH   1  13
ATOM     12  N   UNL     1       5.360   5.453  18.213  0.00  0.00    +0.000 N 
ATOM     13  C   UNL     1       4.095   4.873  17.989  0.00  0.00    +0.000 C 
ATOM     14  O   UNL     1       3.790   4.396  16.904  0.00  0.00    +0.000 OA
ATOM     15  H   UNL     1       5.821   5.198  19.089  0.00  0.00    +0.000 HD
BRANCH  12  16
ATOM     16  S   UNL     1       6.403   5.597  16.931  0.00  0.00    +0.000 S 
ATOM     17  O   UNL     1       5.879   6.568  15.996  0.00  0.00    +0.000 OA
ATOM     18  O   UNL     1       6.819   4.276  16.526  0.00  0.00    +0.000 OA
BRANCH  16  20
ATOM     19  C   UNL     1       7.657   7.822  17.523  0.00  0.00    +0.000 C 
ATOM     20  N   UNL     1       7.742   6.341  17.670  0.00  0.00    +0.000 NA
ATOM     21  C   UNL     1       7.988   5.975  19.079  0.00  0.00    +0.000 C 
ENDBRANCH  16  20
ENDBRANCH  12  16
ENDBRANCH   1  13
TORSDOF 4
ENDMDL
MODEL 7
REMARK VINA RESULT:      -6.5      1.683      2.002
REMARK  Name = 
REMARK  6 active torsions:
REMARK  status: ('A' for Active; 'I' for Inactive)
REMARK    1  A    between atoms: C_1  and  N_2
REMARK    2  A    between atoms: N_2  and  C_3
REMARK    3  A    between atoms: N_2  and  S_4
REMARK    4  A    between atoms: S_4  and  N_7
REMARK    5  A    between atoms: C_8  and  C_10
REMARK    6  A    between atoms: C_11  and  N_12
REMARK                            x       y       z     vdW  Elec       q    Type
REMARK                         _______ _______ _______ _____ _____    ______ ____
ROOT
ATOM      1  C   UNL     1       3.999   3.798  19.212  0.00  0.00    +0.000 C 
ATOM      2  C   UNL     1       3.027   4.588  19.703  0.00  0.00    +0.000 C 
ATOM      3  C   UNL     1       2.408   3.890  20.880  0.00  0.00    +0.000 C 
ATOM      4  O   UNL     1       3.114   2.666  21.023  0.00  0.00    +0.000 OA
ATOM      5  C   UNL     1       4.053   2.602  20.049  0.00  0.00    +0.000 C 
ATOM      6  O   UNL     1       4.832   1.677  19.890  0.00  0.00    +0.000 OA
ENDROOT
BRANCH   2   7
ATOM      7  N   UNL     1       2.552   5.847  19.328  0.00  0.00    +0.000 N 
ATOM      8  C   UNL     1       2.512   6.367  17.956  0.00  0.00    +0.000 C 
ATOM      9  C   UNL     1       2.591   7.876  18.130  0.00  0.00    +0.000 C 
ATOM     10  C   UNL     1       1.785   8.119  19.388  0.00  0.00    +0.000 C 
ATOM     11  C   UNL     1       2.058   6.888  20.247  0.00  0.00    +0.000 C 
ENDBRANCH   2   7
BRANCH   1  13
ATOM     12  N   UNL     1       6.021   4.840  18.320  0.00  0.00    +0.000 N 
ATOM     13  C   UNL     1       4.910   4.009  18.073  0.00  0.00    +0.000 C 
ATOM     14  O   UNL     1       4.708   3.517  16.970  0.00  0.00    +0.000 OA
ATOM     15  H   UNL     1       6.533   4.660  19.186  0.00  0.00    +0.000 HD
BRANCH  12  16
ATOM     16  S   UNL     1       6.998   5.255  17.044  0.00  0.00    +0.000 S 
ATOM     17  O   UNL     1       6.198   5.877  16.013  0.00  0.00    +0.000 OA
ATOM     18  O   UNL     1       7.893   4.156  16.776  0.00  0.00    +0.000 OA
BRANCH  16  20
ATOM     19  C   UNL     1       7.357   7.832  17.363  0.00  0.00    +0.000 C 
ATOM     20  N   UNL     1       7.928   6.505  17.727  0.00  0.00    +0.000 NA
ATOM     21  C   UNL     1       8.152   6.421  19.184  0.00  0.00    +0.000 C 
ENDBRANCH  16  20
ENDBRANCH  12  16
ENDBRANCH   1  13
TORSDOF 4
ENDMDL
MODEL 8
REMARK VINA RESULT:      -6.5      1.457      1.669
REMARK  Name = 
REMARK  6 active torsions:
REMARK  status: ('A' for Active; 'I' for Inactive)
REMARK    1  A    between atoms: C_1  and  N_2
REMARK    2  A    between atoms: N_2  and  C_3
REMARK    3  A    between atoms: N_2  and  S_4
REMARK    4  A    between atoms: S_4  and  N_7
REMARK    5  A    between atoms: C_8  and  C_10
REMARK    6  A    between atoms: C_11  and  N_12
REMARK                            x       y       z     vdW  Elec       q    Type
REMARK                         _______ _______ _______ _____ _____    ______ ____
ROOT
ATOM      1  C   UNL     1       3.541   3.388  18.686  0.00  0.00    +0.000 C 
ATOM      2  C   UNL     1       2.427   4.074  18.998  0.00  0.00    +0.000 C 
ATOM      3  C   UNL     1       1.309   3.091  19.188  0.00  0.00    +0.000 C 
ATOM      4  O   UNL     1       1.879   1.807  18.978  0.00  0.00    +0.000 OA
ATOM      5  C   UNL     1       3.192   1.970  18.684  0.00  0.00    +0.000 C 
ATOM      6  O   UNL     1       3.972   1.061  18.448  0.00  0.00    +0.000 OA
ENDROOT
BRANCH   2   7
ATOM      7  N   UNL     1       2.174   5.437  19.168  0.00  0.00    +0.000 N 
ATOM      8  C   UNL     1       2.139   6.437  18.094  0.00  0.00    +0.000 C 
ATOM      9  C   UNL     1       2.513   7.739  18.786  0.00  0.00    +0.000 C 
ATOM     10  C   UNL     1       1.854   7.607  20.143  0.00  0.00    +0.000 C 
ATOM     11  C   UNL     1       1.948   6.116  20.457  0.00  0.00    +0.000 C 
ENDBRANCH   2   7
BRANCH   1  13
ATOM     12  N   UNL     1       5.183   4.185  17.061  0.00  0.00    +0.000 N 
ATOM     13  C   UNL     1       4.906   3.867  18.405  0.00  0.00    +0.000 C 
ATOM     14  O   UNL     1       5.760   3.961  19.278  0.00  0.00    +0.000 OA
ATOM     15  H   UNL     1       4.478   4.748  16.579  0.00  0.00    +0.000 HD
BRANCH  12  16
ATOM     16  S   UNL     1       6.741   4.574  16.645  0.00  0.00    +0.000 S 
ATOM     17  O   UNL     1       7.033   4.036  15.335  0.00  0.00    +0.000 OA
ATOM     18  O   UNL     1       7.593   4.344  17.786  0.00  0.00    +0.000 OA
BRANCH  16  20
ATOM     19  C   UNL     1       5.213   6.646  16.150  0.00  0.00    +0.000 C 
ATOM     20  N   UNL     1       6.623   6.258  16.438  0.00  0.00    +0.000 NA
ATOM     21  C   UNL     1       7.172   7.083  17.533  0.00  0.00    +0.000 C 
ENDBRANCH  16  20
ENDBRANCH  12  16
ENDBRANCH   1  13
TORSDOF 4
ENDMDL
MODEL 9
REMARK VINA RESULT:      -6.5      2.580      4.138
REMARK  Name = 
REMARK  6 active torsions:
REMARK  status: ('A' for Active; 'I' for Inactive)
REMARK    1  A    between atoms: C_1  and  N_2
REMARK    2  A    between atoms: N_2  and  C_3
REMARK    3  A    between atoms: N_2  and  S_4
REMARK    4  A    between atoms: S_4  and  N_7
REMARK    5  A    between atoms: C_8  and  C_10
REMARK    6  A    between atoms: C_11  and  N_12
REMARK                            x       y       z     vdW  Elec       q    Type
REMARK                         _______ _______ _______ _____ _____    ______ ____
ROOT
ATOM      1  C   UNL     1       2.677   6.395  18.823  0.00  0.00    +0.000 C 
ATOM      2  C   UNL     1       2.025   5.980  19.924  0.00  0.00    +0.000 C 
ATOM      3  C   UNL     1       1.407   7.179  20.583  0.00  0.00    +0.000 C 
ATOM      4  O   UNL     1       1.744   8.290  19.764  0.00  0.00    +0.000 OA
ATOM      5  C   UNL     1       2.488   7.840  18.725  0.00  0.00    +0.000 C 
ATOM      6  O   UNL     1       2.941   8.542  17.835  0.00  0.00    +0.000 OA
ENDROOT
BRANCH   2   7
ATOM      7  N   UNL     1       1.841   4.718  20.495  0.00  0.00    +0.000 N 
ATOM      8  C   UNL     1       2.543   4.209  21.679  0.00  0.00    +0.000 C 
ATOM      9  C   UNL     1       2.542   2.699  21.490  0.00  0.00    +0.000 C 
ATOM     10  C   UNL     1       1.194   2.435  20.852  0.00  0.00    +0.000 C 
ATOM     11  C   UNL     1       0.951   3.663  19.979  0.00  0.00    +0.000 C 
ENDBRANCH   2   7
BRANCH   1  13
ATOM     12  N   UNL     1       4.752   6.079  17.573  0.00  0.00    +0.000 N 
ATOM     13  C   UNL     1       3.442   5.627  17.826  0.00  0.00    +0.000 C 
ATOM     14  O   UNL     1       2.966   4.669  17.229  0.00  0.00    +0.000 OA
ATOM     15  H   UNL     1       5.318   6.298  18.397  0.00  0.00    +0.000 HD
BRANCH  12  16
ATOM     16  S   UNL     1       5.614   5.366  16.348  0.00  0.00    +0.000 S 
ATOM     17  O   UNL     1       5.458   6.145  15.139  0.00  0.00    +0.000 OA
ATOM     18  O   UNL     1       5.381   3.943  16.390  0.00  0.00    +0.000 OA
BRANCH  16  20
ATOM     19  C   UNL     1       7.362   7.011  17.403  0.00  0.00    +0.000 C 
ATOM     20  N   UNL     1       7.213   5.629  16.864  0.00  0.00    +0.000 NA
ATOM     21  C   UNL     1       7.753   4.642  17.821  0.00  0.00    +0.000 C 
ENDBRANCH  16  20
ENDBRANCH  12  16
ENDBRANCH   1  13
TORSDOF 4
ENDMDL
