MODEL 1
REMARK VINA RESULT:      -8.4      0.000      0.000
REMARK  Name = 
REMARK  9 active torsions:
REMARK  status: ('A' for Active; 'I' for Inactive)
REMARK    1  A    between atoms: C_2  and  O_3
REMARK    2  A    between atoms: C_2  and  C_4
REMARK    3  A    between atoms: N_8  and  C_9
REMARK    4  A    between atoms: C_9  and  C_10
REMARK    5  A    between atoms: C_10  and  C_11
REMARK    6  A    between atoms: C_11  and  C_12
REMARK    7  A    between atoms: C_13  and  C_14
REMARK    8  A    between atoms: C_18  and  N_19
REMARK    9  A    between atoms: N_20  and  C_21
REMARK                            x       y       z     vdW  Elec       q    Type
REMARK                         _______ _______ _______ _____ _____    ______ ____
ROOT
ATOM      1  C   UNL     1       2.296   8.456  18.331  0.00  0.00    +0.000 A 
ATOM      2  C   UNL     1       1.896   7.833  19.517  0.00  0.00    +0.000 A 
ATOM      3  C   UNL     1       1.180   8.545  20.481  0.00  0.00    +0.000 A 
ATOM      4  C   UNL     1       0.855   9.887  20.263  0.00  0.00    +0.000 A 
ATOM      5  C   UNL     1       1.253  10.539  19.089  0.00  0.00    +0.000 A 
ATOM      6  C   UNL     1       1.988   9.811  18.142  0.00  0.00    +0.000 A 
ENDROOT
BRANCH   1   8
ATOM      7  C   UNL     1       3.942   6.747  17.647  0.00  0.00    +0.000 C 
ATOM      8  C   UNL     1       3.038   7.686  17.326  0.00  0.00    +0.000 C 
BRANCH   7   9
ATOM      9  C   UNL     1       4.722   5.962  16.637  0.00  0.00    +0.000 C 
BRANCH   9  10
ATOM     10  C   UNL     1       4.568   4.448  16.808  0.00  0.00    +0.000 C 
BRANCH  10  11
ATOM     11  C   UNL     1       4.814   3.961  18.244  0.00  0.00    +0.000 C 
BRANCH  11  16
ATOM     12  C   UNL     1       1.947   4.011  20.718  0.00  0.00    +0.000 C 
ATOM     13  C   UNL     1       0.777   3.711  19.779  0.00  0.00    +0.000 C 
ATOM     14  C   UNL     1       1.202   2.810  18.624  0.00  0.00    +0.000 C 
ATOM     15  C   UNL     1       2.473   3.316  17.944  0.00  0.00    +0.000 C 
ATOM     16  N   UNL     1       3.575   3.492  18.914  0.00  0.00    +0.000 NA
ATOM     17  C   UNL     1       3.177   4.482  19.949  0.00  0.00    +0.000 C 
BRANCH  12  19
ATOM     18  O   UNL     1       1.395   2.325  22.364  0.00  0.00    +0.000 OA
ATOM     19  C   UNL     1       2.235   2.822  21.620  0.00  0.00    +0.000 C 
BRANCH  19  20
ATOM     20  O   UNL     1       3.476   2.301  21.499  0.00  0.00    +0.000 OA
ATOM     21  H   UNL     1       3.714   1.721  22.259  0.00  0.00    +0.000 HD
ENDBRANCH  19  20
ENDBRANCH  12  19
ENDBRANCH  11  16
ENDBRANCH  10  11
ENDBRANCH   9  10
ENDBRANCH   7   9
ENDBRANCH   1   8
BRANCH   5  22
ATOM     22  N   UNL     1       0.860  11.879  18.862  0.00  0.00    +0.000 NA
ATOM     23  N   UNL     1       1.324  12.622  19.751  0.00  0.00    +0.000 NA
BRANCH  23  24
ATOM     24  C   UNL     1       0.938  13.979  19.646  0.00  0.00    +0.000 A 
ATOM     25  C   UNL     1      -0.344  14.288  20.137  0.00  0.00    +0.000 A 
ATOM     26  C   UNL     1      -0.945  15.517  19.871  0.00  0.00    +0.000 A 
ATOM     27  C   UNL     1      -0.286  16.439  19.066  0.00  0.00    +0.000 A 
ATOM     28  C   UNL     1       0.995  16.171  18.564  0.00  0.00    +0.000 A 
ATOM     29  C   UNL     1       1.613  17.097  17.704  0.00  0.00    +0.000 A 
ATOM     30  C   UNL     1       2.896  16.874  17.211  0.00  0.00    +0.000 A 
ATOM     31  C   UNL     1       3.594  15.741  17.599  0.00  0.00    +0.000 A 
ATOM     32  C   UNL     1       2.977  14.794  18.419  0.00  0.00    +0.000 A 
ATOM     33  C   UNL     1       1.653  14.959  18.894  0.00  0.00    +0.000 A 
ENDBRANCH  23  24
ENDBRANCH   5  22
TORSDOF 9
ENDMDL
MODEL 2
REMARK VINA RESULT:      -8.2      4.576     10.190
REMARK  Name = 
REMARK  9 active torsions:
REMARK  status: ('A' for Active; 'I' for Inactive)
REMARK    1  A    between atoms: C_2  and  O_3
REMARK    2  A    between atoms: C_2  and  C_4
REMARK    3  A    between atoms: N_8  and  C_9
REMARK    4  A    between atoms: C_9  and  C_10
REMARK    5  A    between atoms: C_10  and  C_11
REMARK    6  A    between atoms: C_11  and  C_12
REMARK    7  A    between atoms: C_13  and  C_14
REMARK    8  A    between atoms: C_18  and  N_19
REMARK    9  A    between atoms: N_20  and  C_21
REMARK                            x       y       z     vdW  Elec       q    Type
REMARK                         _______ _______ _______ _____ _____    ______ ____
ROOT
ATOM      1  C   UNL     1       0.176  10.732  20.402  0.00  0.00    +0.000 A 
ATOM      2  C   UNL     1       0.646  11.892  19.778  0.00  0.00    +0.000 A 
ATOM      3  C   UNL     1       1.509  11.804  18.683  0.00  0.00    +0.000 A 
ATOM      4  C   UNL     1       1.906  10.551  18.203  0.00  0.00    +0.000 A 
ATOM      5  C   UNL     1       1.460   9.375  18.817  0.00  0.00    +0.000 A 
ATOM      6  C   UNL     1       0.609   9.485  19.926  0.00  0.00    +0.000 A 
ENDROOT
BRANCH   1   8
ATOM      7  C   UNL     1      -1.423  11.968  21.821  0.00  0.00    +0.000 C 
ATOM      8  C   UNL     1      -0.739  10.847  21.544  0.00  0.00    +0.000 C 
BRANCH   7   9
ATOM      9  C   UNL     1      -2.349  12.111  22.990  0.00  0.00    +0.000 C 
BRANCH   9  10
ATOM     10  C   UNL     1      -3.760  12.546  22.585  0.00  0.00    +0.000 C 
BRANCH  10  11
ATOM     11  C   UNL     1      -3.855  13.066  21.143  0.00  0.00    +0.000 C 
BRANCH  11  16
ATOM     12  C   UNL     1      -6.786  11.729  19.154  0.00  0.00    +0.000 C 
ATOM     13  C   UNL     1      -6.093  11.428  17.823  0.00  0.00    +0.000 C 
ATOM     14  C   UNL     1      -4.640  11.015  18.030  0.00  0.00    +0.000 C 
ATOM     15  C   UNL     1      -3.897  11.983  18.950  0.00  0.00    +0.000 C 
ATOM     16  N   UNL     1      -4.593  12.143  20.245  0.00  0.00    +0.000 NA
ATOM     17  C   UNL     1      -5.960  12.679  20.015  0.00  0.00    +0.000 C 
BRANCH  12  19
ATOM     18  O   UNL     1      -7.202  10.352  21.100  0.00  0.00    +0.000 OA
ATOM     19  C   UNL     1      -7.150  10.442  19.877  0.00  0.00    +0.000 C 
BRANCH  19  20
ATOM     20  O   UNL     1      -7.480   9.409  19.072  0.00  0.00    +0.000 OA
ATOM     21  H   UNL     1      -8.086   8.770  19.514  0.00  0.00    +0.000 HD
ENDBRANCH  19  20
ENDBRANCH  12  19
ENDBRANCH  11  16
ENDBRANCH  10  11
ENDBRANCH   9  10
ENDBRANCH   7   9
ENDBRANCH   1   8
BRANCH   5  22
ATOM     22  N   UNL     1       1.824   8.120  18.276  0.00  0.00    +0.000 NA
ATOM     23  N   UNL     1       2.575   7.510  19.065  0.00  0.00    +0.000 NA
BRANCH  23  24
ATOM     24  C   UNL     1       3.045   6.263  18.589  0.00  0.00    +0.000 A 
ATOM     25  C   UNL     1       4.019   6.326  17.574  0.00  0.00    +0.000 A 
ATOM     26  C   UNL     1       4.379   5.194  16.846  0.00  0.00    +0.000 A 
ATOM     27  C   UNL     1       3.733   3.988  17.093  0.00  0.00    +0.000 A 
ATOM     28  C   UNL     1       2.762   3.884  18.100  0.00  0.00    +0.000 A 
ATOM     29  C   UNL     1       2.082   2.668  18.287  0.00  0.00    +0.000 A 
ATOM     30  C   UNL     1       1.134   2.523  19.297  0.00  0.00    +0.000 A 
ATOM     31  C   UNL     1       0.878   3.580  20.155  0.00  0.00    +0.000 A 
ATOM     32  C   UNL     1       1.515   4.806  19.955  0.00  0.00    +0.000 A 
ATOM     33  C   UNL     1       2.444   5.008  18.904  0.00  0.00    +0.000 A 
ENDBRANCH  23  24
ENDBRANCH   5  22
TORSDOF 9
ENDMDL
MODEL 3
REMARK VINA RESULT:      -8.1      4.609     10.682
REMARK  Name = 
REMARK  9 active torsions:
REMARK  status: ('A' for Active; 'I' for Inactive)
REMARK    1  A    between atoms: C_2  and  O_3
REMARK    2  A    between atoms: C_2  and  C_4
REMARK    3  A    between atoms: N_8  and  C_9
REMARK    4  A    between atoms: C_9  and  C_10
REMARK    5  A    between atoms: C_10  and  C_11
REMARK    6  A    between atoms: C_11  and  C_12
REMARK    7  A    between atoms: C_13  and  C_14
REMARK    8  A    between atoms: C_18  and  N_19
REMARK    9  A    between atoms: N_20  and  C_21
REMARK                            x       y       z     vdW  Elec       q    Type
REMARK                         _______ _______ _______ _____ _____    ______ ____
ROOT
ATOM      1  C   UNL     1       0.307  10.723  20.037  0.00  0.00    +0.000 A 
ATOM      2  C   UNL     1       0.888  11.849  19.444  0.00  0.00    +0.000 A 
ATOM      3  C   UNL     1       1.829  11.702  18.423  0.00  0.00    +0.000 A 
ATOM      4  C   UNL     1       2.194  10.425  17.985  0.00  0.00    +0.000 A 
ATOM      5  C   UNL     1       1.637   9.281  18.569  0.00  0.00    +0.000 A 
ATOM      6  C   UNL     1       0.708   9.450  19.607  0.00  0.00    +0.000 A 
ENDROOT
BRANCH   1   8
ATOM      7  C   UNL     1      -0.622  11.890  22.005  0.00  0.00    +0.000 C 
ATOM      8  C   UNL     1      -0.688  10.901  21.101  0.00  0.00    +0.000 C 
BRANCH   7   9
ATOM      9  C   UNL     1      -1.618  12.079  23.108  0.00  0.00    +0.000 C 
BRANCH   9  10
ATOM     10  C   UNL     1      -1.692  13.526  23.605  0.00  0.00    +0.000 C 
BRANCH  10  11
ATOM     11  C   UNL     1      -2.733  14.379  22.864  0.00  0.00    +0.000 C 
BRANCH  11  16
ATOM     12  C   UNL     1      -6.408  13.674  23.438  0.00  0.00    +0.000 C 
ATOM     13  C   UNL     1      -6.880  13.512  21.992  0.00  0.00    +0.000 C 
ATOM     14  C   UNL     1      -5.785  12.925  21.108  0.00  0.00    +0.000 C 
ATOM     15  C   UNL     1      -4.455  13.658  21.284  0.00  0.00    +0.000 C 
ATOM     16  N   UNL     1      -4.036  13.687  22.702  0.00  0.00    +0.000 NA
ATOM     17  C   UNL     1      -5.064  14.390  23.513  0.00  0.00    +0.000 C 
BRANCH  12  19
ATOM     18  O   UNL     1      -7.305  11.508  24.041  0.00  0.00    +0.000 OA
ATOM     19  C   UNL     1      -6.406  12.335  24.160  0.00  0.00    +0.000 C 
BRANCH  19  20
ATOM     20  O   UNL     1      -5.302  12.088  24.897  0.00  0.00    +0.000 OA
ATOM     21  H   UNL     1      -5.518  11.683  25.769  0.00  0.00    +0.000 HD
ENDBRANCH  19  20
ENDBRANCH  12  19
ENDBRANCH  11  16
ENDBRANCH  10  11
ENDBRANCH   9  10
ENDBRANCH   7   9
ENDBRANCH   1   8
BRANCH   5  22
ATOM     22  N   UNL     1       1.975   8.002  18.069  0.00  0.00    +0.000 NA
ATOM     23  N   UNL     1       2.756   7.423  18.851  0.00  0.00    +0.000 NA
BRANCH  23  24
ATOM     24  C   UNL     1       3.201   6.154  18.410  0.00  0.00    +0.000 A 
ATOM     25  C   UNL     1       4.211   6.170  17.429  0.00  0.00    +0.000 A 
ATOM     26  C   UNL     1       4.558   5.016  16.731  0.00  0.00    +0.000 A 
ATOM     27  C   UNL     1       3.866   3.835  16.973  0.00  0.00    +0.000 A 
ATOM     28  C   UNL     1       2.859   3.778  17.947  0.00  0.00    +0.000 A 
ATOM     29  C   UNL     1       2.134   2.587  18.129  0.00  0.00    +0.000 A 
ATOM     30  C   UNL     1       1.148   2.488  19.108  0.00  0.00    +0.000 A 
ATOM     31  C   UNL     1       0.897   3.567  19.941  0.00  0.00    +0.000 A 
ATOM     32  C   UNL     1       1.580   4.769  19.744  0.00  0.00    +0.000 A 
ATOM     33  C   UNL     1       2.550   4.924  18.723  0.00  0.00    +0.000 A 
ENDBRANCH  23  24
ENDBRANCH   5  22
TORSDOF 9
ENDMDL
MODEL 4
REMARK VINA RESULT:      -7.9      4.991     10.180
REMARK  Name = 
REMARK  9 active torsions:
REMARK  status: ('A' for Active; 'I' for Inactive)
REMARK    1  A    between atoms: C_2  and  O_3
REMARK    2  A    between atoms: C_2  and  C_4
REMARK    3  A    between atoms: N_8  and  C_9
REMARK    4  A    between atoms: C_9  and  C_10
REMARK    5  A    between atoms: C_10  and  C_11
REMARK    6  A    between atoms: C_11  and  C_12
REMARK    7  A    between atoms: C_13  and  C_14
REMARK    8  A    between atoms: C_18  and  N_19
REMARK    9  A    between atoms: N_20  and  C_21
REMARK                            x       y       z     vdW  Elec       q    Type
REMARK                         _______ _______ _______ _____ _____    ______ ____
ROOT
ATOM      1  C   UNL     1      -0.775  10.613  19.053  0.00  0.00    +0.000 A 
ATOM      2  C   UNL     1      -0.702  10.881  20.424  0.00  0.00    +0.000 A 
ATOM      3  C   UNL     1       0.327  10.335  21.195  0.00  0.00    +0.000 A 
ATOM      4  C   UNL     1       1.292   9.518  20.598  0.00  0.00    +0.000 A 
ATOM      5  C   UNL     1       1.235   9.224  19.230  0.00  0.00    +0.000 A 
ATOM      6  C   UNL     1       0.183   9.766  18.477  0.00  0.00    +0.000 A 
ENDROOT
BRANCH   1   8
ATOM      7  C   UNL     1      -2.097  10.869  16.982  0.00  0.00    +0.000 C 
ATOM      8  C   UNL     1      -1.858  11.206  18.259  0.00  0.00    +0.000 C 
BRANCH   7   9
ATOM      9  C   UNL     1      -3.186  11.474  16.151  0.00  0.00    +0.000 C 
BRANCH   9  10
ATOM     10  C   UNL     1      -4.582  10.983  16.546  0.00  0.00    +0.000 C 
BRANCH  10  11
ATOM     11  C   UNL     1      -5.467  12.074  17.167  0.00  0.00    +0.000 C 
BRANCH  11  16
ATOM     12  C   UNL     1      -6.504  12.876  20.720  0.00  0.00    +0.000 C 
ATOM     13  C   UNL     1      -7.539  11.774  20.953  0.00  0.00    +0.000 C 
ATOM     14  C   UNL     1      -7.190  10.506  20.181  0.00  0.00    +0.000 C 
ATOM     15  C   UNL     1      -6.866  10.799  18.717  0.00  0.00    +0.000 C 
ATOM     16  N   UNL     1      -5.794  11.810  18.591  0.00  0.00    +0.000 NA
ATOM     17  C   UNL     1      -6.225  13.079  19.234  0.00  0.00    +0.000 C 
BRANCH  12  19
ATOM     18  O   UNL     1      -5.255  12.361  22.728  0.00  0.00    +0.000 OA
ATOM     19  C   UNL     1      -5.242  12.613  21.526  0.00  0.00    +0.000 C 
BRANCH  19  20
ATOM     20  O   UNL     1      -4.097  12.611  20.810  0.00  0.00    +0.000 OA
ATOM     21  H   UNL     1      -4.247  12.852  19.866  0.00  0.00    +0.000 HD
ENDBRANCH  19  20
ENDBRANCH  12  19
ENDBRANCH  11  16
ENDBRANCH  10  11
ENDBRANCH   9  10
ENDBRANCH   7   9
ENDBRANCH   1   8
BRANCH   5  22
ATOM     22  N   UNL     1       2.256   8.446  18.636  0.00  0.00    +0.000 NA
ATOM     23  N   UNL     1       1.989   7.231  18.736  0.00  0.00    +0.000 NA
BRANCH  23  24
ATOM     24  C   UNL     1       2.982   6.364  18.222  0.00  0.00    +0.000 A 
ATOM     25  C   UNL     1       4.014   6.984  17.493  0.00  0.00    +0.000 A 
ATOM     26  C   UNL     1       4.906   6.237  16.726  0.00  0.00    +0.000 A 
ATOM     27  C   UNL     1       4.748   4.859  16.641  0.00  0.00    +0.000 A 
ATOM     28  C   UNL     1       3.736   4.205  17.358  0.00  0.00    +0.000 A 
ATOM     29  C   UNL     1       3.562   2.818  17.206  0.00  0.00    +0.000 A 
ATOM     30  C   UNL     1       2.586   2.133  17.927  0.00  0.00    +0.000 A 
ATOM     31  C   UNL     1       1.794   2.820  18.834  0.00  0.00    +0.000 A 
ATOM     32  C   UNL     1       1.928   4.203  18.964  0.00  0.00    +0.000 A 
ATOM     33  C   UNL     1       2.872   4.942  18.207  0.00  0.00    +0.000 A 
ENDBRANCH  23  24
ENDBRANCH   5  22
TORSDOF 9
ENDMDL
MODEL 5
REMARK VINA RESULT:      -7.9      5.490     11.360
REMARK  Name = 
REMARK  9 active torsions:
REMARK  status: ('A' for Active; 'I' for Inactive)
REMARK    1  A    between atoms: C_2  and  O_3
REMARK    2  A    between atoms: C_2  and  C_4
REMARK    3  A    between atoms: N_8  and  C_9
REMARK    4  A    between atoms: C_9  and  C_10
REMARK    5  A    between atoms: C_10  and  C_11
REMARK    6  A    between atoms: C_11  and  C_12
REMARK    7  A    between atoms: C_13  and  C_14
REMARK    8  A    between atoms: C_18  and  N_19
REMARK    9  A    between atoms: N_20  and  C_21
REMARK                            x       y       z     vdW  Elec       q    Type
REMARK                         _______ _______ _______ _____ _____    ______ ____
ROOT
ATOM      1  C   UNL     1       0.433  10.451  20.227  0.00  0.00    +0.000 A 
ATOM      2  C   UNL     1       0.768  11.660  19.610  0.00  0.00    +0.000 A 
ATOM      3  C   UNL     1       1.599  11.673  18.488  0.00  0.00    +0.000 A 
ATOM      4  C   UNL     1       2.098  10.472  17.972  0.00  0.00    +0.000 A 
ATOM      5  C   UNL     1       1.787   9.249  18.577  0.00  0.00    +0.000 A 
ATOM      6  C   UNL     1       0.967   9.260  19.715  0.00  0.00    +0.000 A 
ENDROOT
BRANCH   1   8
ATOM      7  C   UNL     1      -0.773  11.582  22.062  0.00  0.00    +0.000 C 
ATOM      8  C   UNL     1      -0.451  10.460  21.399  0.00  0.00    +0.000 C 
BRANCH   7   9
ATOM      9  C   UNL     1      -1.659  11.610  23.270  0.00  0.00    +0.000 C 
BRANCH   9  10
ATOM     10  C   UNL     1      -3.007  12.289  23.006  0.00  0.00    +0.000 C 
BRANCH  10  11
ATOM     11  C   UNL     1      -3.943  12.293  24.224  0.00  0.00    +0.000 C 
BRANCH  11  16
ATOM     12  C   UNL     1      -5.600  15.464  22.983  0.00  0.00    +0.000 C 
ATOM     13  C   UNL     1      -7.053  14.992  22.896  0.00  0.00    +0.000 C 
ATOM     14  C   UNL     1      -7.366  13.945  23.959  0.00  0.00    +0.000 C 
ATOM     15  C   UNL     1      -6.318  12.834  23.993  0.00  0.00    +0.000 C 
ATOM     16  N   UNL     1      -4.955  13.379  24.169  0.00  0.00    +0.000 NA
ATOM     17  C   UNL     1      -4.630  14.288  23.039  0.00  0.00    +0.000 C 
BRANCH  12  19
ATOM     18  O   UNL     1      -6.087  17.457  24.268  0.00  0.00    +0.000 OA
ATOM     19  C   UNL     1      -5.416  16.437  24.137  0.00  0.00    +0.000 C 
BRANCH  19  20
ATOM     20  O   UNL     1      -4.498  16.065  25.055  0.00  0.00    +0.000 OA
ATOM     21  H   UNL     1      -4.325  15.095  25.038  0.00  0.00    +0.000 HD
ENDBRANCH  19  20
ENDBRANCH  12  19
ENDBRANCH  11  16
ENDBRANCH  10  11
ENDBRANCH   9  10
ENDBRANCH   7   9
ENDBRANCH   1   8
BRANCH   5  22
ATOM     22  N   UNL     1       2.252   8.043  18.002  0.00  0.00    +0.000 NA
ATOM     23  N   UNL     1       2.565   7.230  18.895  0.00  0.00    +0.000 NA
BRANCH  23  24
ATOM     24  C   UNL     1       3.100   6.009  18.421  0.00  0.00    +0.000 A 
ATOM     25  C   UNL     1       4.148   6.124  17.488  0.00  0.00    +0.000 A 
ATOM     26  C   UNL     1       4.589   5.023  16.758  0.00  0.00    +0.000 A 
ATOM     27  C   UNL     1       3.955   3.796  16.918  0.00  0.00    +0.000 A 
ATOM     28  C   UNL     1       2.913   3.640  17.843  0.00  0.00    +0.000 A 
ATOM     29  C   UNL     1       2.249   2.404  17.942  0.00  0.00    +0.000 A 
ATOM     30  C   UNL     1       1.230   2.208  18.871  0.00  0.00    +0.000 A 
ATOM     31  C   UNL     1       0.884   3.233  19.736  0.00  0.00    +0.000 A 
ATOM     32  C   UNL     1       1.505   4.478  19.622  0.00  0.00    +0.000 A 
ATOM     33  C   UNL     1       2.507   4.732  18.652  0.00  0.00    +0.000 A 
ENDBRANCH  23  24
ENDBRANCH   5  22
TORSDOF 9
ENDMDL
MODEL 6
REMARK VINA RESULT:      -7.9      3.111      4.737
REMARK  Name = 
REMARK  9 active torsions:
REMARK  status: ('A' for Active; 'I' for Inactive)
REMARK    1  A    between atoms: C_2  and  O_3
REMARK    2  A    between atoms: C_2  and  C_4
REMARK    3  A    between atoms: N_8  and  C_9
REMARK    4  A    between atoms: C_9  and  C_10
REMARK    5  A    between atoms: C_10  and  C_11
REMARK    6  A    between atoms: C_11  and  C_12
REMARK    7  A    between atoms: C_13  and  C_14
REMARK    8  A    between atoms: C_18  and  N_19
REMARK    9  A    between atoms: N_20  and  C_21
REMARK                            x       y       z     vdW  Elec       q    Type
REMARK                         _______ _______ _______ _____ _____    ______ ____
ROOT
ATOM      1  C   UNL     1       1.956   8.097  19.195  0.00  0.00    +0.000 A 
ATOM      2  C   UNL     1       2.271   8.865  18.070  0.00  0.00    +0.000 A 
ATOM      3  C   UNL     1       1.860  10.197  17.988  0.00  0.00    +0.000 A 
ATOM      4  C   UNL     1       1.132  10.771  19.036  0.00  0.00    +0.000 A 
ATOM      5  C   UNL     1       0.794  10.022  20.168  0.00  0.00    +0.000 A 
ATOM      6  C   UNL     1       1.199   8.680  20.222  0.00  0.00    +0.000 A 
ENDROOT
BRANCH   1   8
ATOM      7  C   UNL     1       2.099   5.885  20.285  0.00  0.00    +0.000 C 
ATOM      8  C   UNL     1       2.408   6.702  19.266  0.00  0.00    +0.000 C 
BRANCH   7   9
ATOM      9  C   UNL     1       2.563   4.464  20.382  0.00  0.00    +0.000 C 
BRANCH   9  10
ATOM     10  C   UNL     1       3.325   3.997  19.138  0.00  0.00    +0.000 C 
BRANCH  10  11
ATOM     11  C   UNL     1       4.790   3.629  19.414  0.00  0.00    +0.000 C 
BRANCH  11  16
ATOM     12  C   UNL     1       5.913   5.802  16.523  0.00  0.00    +0.000 C 
ATOM     13  C   UNL     1       6.886   6.733  17.248  0.00  0.00    +0.000 C 
ATOM     14  C   UNL     1       7.575   6.028  18.411  0.00  0.00    +0.000 C 
ATOM     15  C   UNL     1       6.578   5.297  19.308  0.00  0.00    +0.000 C 
ATOM     16  N   UNL     1       5.742   4.354  18.534  0.00  0.00    +0.000 NA
ATOM     17  C   UNL     1       4.977   5.096  17.499  0.00  0.00    +0.000 C 
BRANCH  12  19
ATOM     18  O   UNL     1       7.597   5.175  14.901  0.00  0.00    +0.000 OA
ATOM     19  C   UNL     1       6.663   4.834  15.620  0.00  0.00    +0.000 C 
BRANCH  19  20
ATOM     20  O   UNL     1       6.269   3.545  15.715  0.00  0.00    +0.000 OA
ATOM     21  H   UNL     1       5.904   3.331  16.604  0.00  0.00    +0.000 HD
ENDBRANCH  19  20
ENDBRANCH  12  19
ENDBRANCH  11  16
ENDBRANCH  10  11
ENDBRANCH   9  10
ENDBRANCH   7   9
ENDBRANCH   1   8
BRANCH   5  22
ATOM     22  N   UNL     1       0.111  10.640  21.241  0.00  0.00    +0.000 NA
ATOM     23  N   UNL     1      -0.032  11.859  21.019  0.00  0.00    +0.000 NA
BRANCH  23  24
ATOM     24  C   UNL     1      -0.655  12.582  22.064  0.00  0.00    +0.000 A 
ATOM     25  C   UNL     1      -1.800  11.982  22.621  0.00  0.00    +0.000 A 
ATOM     26  C   UNL     1      -2.647  12.691  23.470  0.00  0.00    +0.000 A 
ATOM     27  C   UNL     1      -2.383  14.029  23.738  0.00  0.00    +0.000 A 
ATOM     28  C   UNL     1      -1.247  14.659  23.208  0.00  0.00    +0.000 A 
ATOM     29  C   UNL     1      -1.037  16.029  23.447  0.00  0.00    +0.000 A 
ATOM     30  C   UNL     1       0.095  16.678  22.960  0.00  0.00    +0.000 A 
ATOM     31  C   UNL     1       1.049  15.959  22.257  0.00  0.00    +0.000 A 
ATOM     32  C   UNL     1       0.833  14.608  21.977  0.00  0.00    +0.000 A 
ATOM     33  C   UNL     1      -0.333  13.928  22.408  0.00  0.00    +0.000 A 
ENDBRANCH  23  24
ENDBRANCH   5  22
TORSDOF 9
ENDMDL
MODEL 7
REMARK VINA RESULT:      -7.9      3.035      4.260
REMARK  Name = 
REMARK  9 active torsions:
REMARK  status: ('A' for Active; 'I' for Inactive)
REMARK    1  A    between atoms: C_2  and  O_3
REMARK    2  A    between atoms: C_2  and  C_4
REMARK    3  A    between atoms: N_8  and  C_9
REMARK    4  A    between atoms: C_9  and  C_10
REMARK    5  A    between atoms: C_10  and  C_11
REMARK    6  A    between atoms: C_11  and  C_12
REMARK    7  A    between atoms: C_13  and  C_14
REMARK    8  A    between atoms: C_18  and  N_19
REMARK    9  A    between atoms: N_20  and  C_21
REMARK                            x       y       z     vdW  Elec       q    Type
REMARK                         _______ _______ _______ _____ _____    ______ ____
ROOT
ATOM      1  C   UNL     1       1.434   8.959  18.967  0.00  0.00    +0.000 A 
ATOM      2  C   UNL     1       1.489   8.443  20.266  0.00  0.00    +0.000 A 
ATOM      3  C   UNL     1       0.657   8.956  21.264  0.00  0.00    +0.000 A 
ATOM      4  C   UNL     1      -0.240   9.987  20.967  0.00  0.00    +0.000 A 
ATOM      5  C   UNL     1      -0.307  10.528  19.678  0.00  0.00    +0.000 A 
ATOM      6  C   UNL     1       0.551  10.013  18.695  0.00  0.00    +0.000 A 
ENDROOT
BRANCH   1   8
ATOM      7  C   UNL     1       3.150   7.377  18.159  0.00  0.00    +0.000 C 
ATOM      8  C   UNL     1       2.310   8.398  17.931  0.00  0.00    +0.000 C 
BRANCH   7   9
ATOM      9  C   UNL     1       4.063   6.801  17.120  0.00  0.00    +0.000 C 
BRANCH   9  10
ATOM     10  C   UNL     1       4.583   5.408  17.487  0.00  0.00    +0.000 C 
BRANCH  10  11
ATOM     11  C   UNL     1       4.526   5.105  18.992  0.00  0.00    +0.000 C 
BRANCH  11  16
ATOM     12  C   UNL     1       1.392   3.643  20.534  0.00  0.00    +0.000 C 
ATOM     13  C   UNL     1       0.851   2.850  19.343  0.00  0.00    +0.000 C 
ATOM     14  C   UNL     1       1.979   2.322  18.463  0.00  0.00    +0.000 C 
ATOM     15  C   UNL     1       2.992   3.413  18.117  0.00  0.00    +0.000 C 
ATOM     16  N   UNL     1       3.526   4.062  19.333  0.00  0.00    +0.000 NA
ATOM     17  C   UNL     1       2.414   4.687  20.096  0.00  0.00    +0.000 C 
BRANCH  12  19
ATOM     18  O   UNL     1       1.208   2.163  22.441  0.00  0.00    +0.000 OA
ATOM     19  C   UNL     1       1.927   2.708  21.608  0.00  0.00    +0.000 C 
BRANCH  19  20
ATOM     20  O   UNL     1       3.253   2.464  21.542  0.00  0.00    +0.000 OA
ATOM     21  H   UNL     1       3.727   3.122  20.983  0.00  0.00    +0.000 HD
ENDBRANCH  19  20
ENDBRANCH  12  19
ENDBRANCH  11  16
ENDBRANCH  10  11
ENDBRANCH   9  10
ENDBRANCH   7   9
ENDBRANCH   1   8
BRANCH   5  22
ATOM     22  N   UNL     1      -1.264  11.528  19.385  0.00  0.00    +0.000 NA
ATOM     23  N   UNL     1      -2.032  11.690  20.356  0.00  0.00    +0.000 NA
BRANCH  23  24
ATOM     24  C   UNL     1      -3.066  12.632  20.140  0.00  0.00    +0.000 A 
ATOM     25  C   UNL     1      -2.982  13.814  20.900  0.00  0.00    +0.000 A 
ATOM     26  C   UNL     1      -4.052  14.702  20.976  0.00  0.00    +0.000 A 
ATOM     27  C   UNL     1      -5.242  14.396  20.327  0.00  0.00    +0.000 A 
ATOM     28  C   UNL     1      -5.362  13.232  19.554  0.00  0.00    +0.000 A 
ATOM     29  C   UNL     1      -6.596  12.917  18.958  0.00  0.00    +0.000 A 
ATOM     30  C   UNL     1      -6.741  11.785  18.161  0.00  0.00    +0.000 A 
ATOM     31  C   UNL     1      -5.646  10.970  17.921  0.00  0.00    +0.000 A 
ATOM     32  C   UNL     1      -4.425  11.248  18.540  0.00  0.00    +0.000 A 
ATOM     33  C   UNL     1      -4.255  12.359  19.402  0.00  0.00    +0.000 A 
ENDBRANCH  23  24
ENDBRANCH   5  22
TORSDOF 9
ENDMDL
MODEL 8
REMARK VINA RESULT:      -7.8      1.158      1.493
REMARK  Name = 
REMARK  9 active torsions:
REMARK  status: ('A' for Active; 'I' for Inactive)
REMARK    1  A    between atoms: C_2  and  O_3
REMARK    2  A    between atoms: C_2  and  C_4
REMARK    3  A    between atoms: N_8  and  C_9
REMARK    4  A    between atoms: C_9  and  C_10
REMARK    5  A    between atoms: C_10  and  C_11
REMARK    6  A    between atoms: C_11  and  C_12
REMARK    7  A    between atoms: C_13  and  C_14
REMARK    8  A    between atoms: C_18  and  N_19
REMARK    9  A    between atoms: N_20  and  C_21
REMARK                            x       y       z     vdW  Elec       q    Type
REMARK                         _______ _______ _______ _____ _____    ______ ____
ROOT
ATOM      1  C   UNL     1       2.134   8.590  18.402  0.00  0.00    +0.000 A 
ATOM      2  C   UNL     1       1.717   8.034  19.616  0.00  0.00    +0.000 A 
ATOM      3  C   UNL     1       1.044   8.818  20.556  0.00  0.00    +0.000 A 
ATOM      4  C   UNL     1       0.782  10.165  20.286  0.00  0.00    +0.000 A 
ATOM      5  C   UNL     1       1.198  10.748  19.084  0.00  0.00    +0.000 A 
ATOM      6  C   UNL     1       1.889   9.949  18.162  0.00  0.00    +0.000 A 
ENDROOT
BRANCH   1   8
ATOM      7  C   UNL     1       4.148   7.500  17.477  0.00  0.00    +0.000 C 
ATOM      8  C   UNL     1       2.830   7.745  17.424  0.00  0.00    +0.000 C 
BRANCH   7   9
ATOM      9  C   UNL     1       4.879   6.654  16.479  0.00  0.00    +0.000 C 
BRANCH   9  10
ATOM     10  C   UNL     1       4.657   5.154  16.691  0.00  0.00    +0.000 C 
BRANCH  10  11
ATOM     11  C   UNL     1       4.895   4.693  18.137  0.00  0.00    +0.000 C 
BRANCH  11  16
ATOM     12  C   UNL     1       2.559   2.230  19.815  0.00  0.00    +0.000 C 
ATOM     13  C   UNL     1       2.102   3.065  21.012  0.00  0.00    +0.000 C 
ATOM     14  C   UNL     1       2.055   4.551  20.673  0.00  0.00    +0.000 C 
ATOM     15  C   UNL     1       3.342   5.024  19.999  0.00  0.00    +0.000 C 
ATOM     16  N   UNL     1       3.657   4.215  18.802  0.00  0.00    +0.000 NA
ATOM     17  C   UNL     1       3.833   2.792  19.191  0.00  0.00    +0.000 C 
BRANCH  12  19
ATOM     18  O   UNL     1       0.245   2.120  19.115  0.00  0.00    +0.000 OA
ATOM     19  C   UNL     1       1.432   2.066  18.807  0.00  0.00    +0.000 C 
BRANCH  19  20
ATOM     20  O   UNL     1       1.830   1.920  17.525  0.00  0.00    +0.000 OA
ATOM     21  H   UNL     1       1.129   1.522  16.959  0.00  0.00    +0.000 HD
ENDBRANCH  19  20
ENDBRANCH  12  19
ENDBRANCH  11  16
ENDBRANCH  10  11
ENDBRANCH   9  10
ENDBRANCH   7   9
ENDBRANCH   1   8
BRANCH   5  22
ATOM     22  N   UNL     1       0.867  12.096  18.807  0.00  0.00    +0.000 NA
ATOM     23  N   UNL     1       1.229  12.833  19.746  0.00  0.00    +0.000 NA
BRANCH  23  24
ATOM     24  C   UNL     1       0.890  14.198  19.590  0.00  0.00    +0.000 A 
ATOM     25  C   UNL     1      -0.395  14.561  20.036  0.00  0.00    +0.000 A 
ATOM     26  C   UNL     1      -0.948  15.799  19.716  0.00  0.00    +0.000 A 
ATOM     27  C   UNL     1      -0.239  16.675  18.903  0.00  0.00    +0.000 A 
ATOM     28  C   UNL     1       1.046  16.352  18.445  0.00  0.00    +0.000 A 
ATOM     29  C   UNL     1       1.716  17.231  17.575  0.00  0.00    +0.000 A 
ATOM     30  C   UNL     1       3.005  16.955  17.126  0.00  0.00    +0.000 A 
ATOM     31  C   UNL     1       3.655  15.813  17.567  0.00  0.00    +0.000 A 
ATOM     32  C   UNL     1       2.986  14.911  18.397  0.00  0.00    +0.000 A 
ATOM     33  C   UNL     1       1.655  15.131  18.830  0.00  0.00    +0.000 A 
ENDBRANCH  23  24
ENDBRANCH   5  22
TORSDOF 9
ENDMDL
MODEL 9
REMARK VINA RESULT:      -7.8      5.320     10.780
REMARK  Name = 
REMARK  9 active torsions:
REMARK  status: ('A' for Active; 'I' for Inactive)
REMARK    1  A    between atoms: C_2  and  O_3
REMARK    2  A    between atoms: C_2  and  C_4
REMARK    3  A    between atoms: N_8  and  C_9
REMARK    4  A    between atoms: C_9  and  C_10
REMARK    5  A    between atoms: C_10  and  C_11
REMARK    6  A    between atoms: C_11  and  C_12
REMARK    7  A    between atoms: C_13  and  C_14
REMARK    8  A    between atoms: C_18  and  N_19
REMARK    9  A    between atoms: N_20  and  C_21
REMARK                            x       y       z     vdW  Elec       q    Type
REMARK                         _______ _______ _______ _____ _____    ______ ____
ROOT
ATOM      1  C   UNL     1       1.550  11.932  18.781  0.00  0.00    +0.000 A 
ATOM      2  C   UNL     1       0.175  11.875  19.029  0.00  0.00    +0.000 A 
ATOM      3  C   UNL     1      -0.547  10.718  18.732  0.00  0.00    +0.000 A 
ATOM      4  C   UNL     1       0.103   9.607  18.186  0.00  0.00    +0.000 A 
ATOM      5  C   UNL     1       1.477   9.641  17.917  0.00  0.00    +0.000 A 
ATOM      6  C   UNL     1       2.181  10.820  18.205  0.00  0.00    +0.000 A 
ENDROOT
BRANCH   1   8
ATOM      7  C   UNL     1       3.222  13.686  18.303  0.00  0.00    +0.000 C 
ATOM      8  C   UNL     1       2.293  13.155  19.112  0.00  0.00    +0.000 C 
BRANCH   7   9
ATOM      9  C   UNL     1       4.002  14.923  18.630  0.00  0.00    +0.000 C 
BRANCH   9  10
ATOM     10  C   UNL     1       5.289  15.052  17.810  0.00  0.00    +0.000 C 
BRANCH  10  11
ATOM     11  C   UNL     1       6.493  15.546  18.627  0.00  0.00    +0.000 C 
BRANCH  11  16
ATOM     12  C   UNL     1      10.254  15.164  18.398  0.00  0.00    +0.000 C 
ATOM     13  C   UNL     1      10.359  13.650  18.199  0.00  0.00    +0.000 C 
ATOM     14  C   UNL     1       9.161  13.102  17.431  0.00  0.00    +0.000 C 
ATOM     15  C   UNL     1       7.836  13.596  18.011  0.00  0.00    +0.000 C 
ATOM     16  N   UNL     1       7.791  15.072  18.084  0.00  0.00    +0.000 NA
ATOM     17  C   UNL     1       8.891  15.564  18.954  0.00  0.00    +0.000 C 
BRANCH  12  19
ATOM     18  O   UNL     1      10.307  17.076  16.915  0.00  0.00    +0.000 OA
ATOM     19  C   UNL     1      10.610  15.904  17.119  0.00  0.00    +0.000 C 
BRANCH  19  20
ATOM     20  O   UNL     1      11.347  15.195  16.237  0.00  0.00    +0.000 OA
ATOM     21  H   UNL     1      11.606  15.730  15.451  0.00  0.00    +0.000 HD
ENDBRANCH  19  20
ENDBRANCH  12  19
ENDBRANCH  11  16
ENDBRANCH  10  11
ENDBRANCH   9  10
ENDBRANCH   7   9
ENDBRANCH   1   8
BRANCH   5  22
ATOM     22  N   UNL     1       2.125   8.485  17.422  0.00  0.00    +0.000 NA
ATOM     23  N   UNL     1       2.631   7.838  18.361  0.00  0.00    +0.000 NA
BRANCH  23  24
ATOM     24  C   UNL     1       3.356   6.690  17.963  0.00  0.00    +0.000 A 
ATOM     25  C   UNL     1       4.483   6.930  17.154  0.00  0.00    +0.000 A 
ATOM     26  C   UNL     1       5.131   5.891  16.490  0.00  0.00    +0.000 A 
ATOM     27  C   UNL     1       4.631   4.598  16.589  0.00  0.00    +0.000 A 
ATOM     28  C   UNL     1       3.515   4.318  17.391  0.00  0.00    +0.000 A 
ATOM     29  C   UNL     1       2.994   3.012  17.425  0.00  0.00    +0.000 A 
ATOM     30  C   UNL     1       1.905   2.694  18.234  0.00  0.00    +0.000 A 
ATOM     31  C   UNL     1       1.345   3.668  19.045  0.00  0.00    +0.000 A 
ATOM     32  C   UNL     1       1.825   4.978  18.989  0.00  0.00    +0.000 A 
ATOM     33  C   UNL     1       2.894   5.351  18.138  0.00  0.00    +0.000 A 
ENDBRANCH  23  24
ENDBRANCH   5  22
TORSDOF 9
ENDMDL
