MODEL 1
REMARK VINA RESULT:      -7.7      0.000      0.000
REMARK  Name = 
REMARK  3 active torsions:
REMARK  status: ('A' for Active; 'I' for Inactive)
REMARK    1  A    between atoms: N_3  and  C_4
REMARK    2  A    between atoms: C_4  and  C_5
REMARK    3  A    between atoms: C_16  and  C_17
REMARK                            x       y       z     vdW  Elec       q    Type
REMARK                         _______ _______ _______ _____ _____    ______ ____
ROOT
ATOM      1  O   UNL     1       0.649   9.279  21.778  0.00  0.00    +0.000 OA
ATOM      2  C   UNL     1       1.170   8.589  20.907  0.00  0.00    +0.000 C 
ATOM      3  N   UNL     1       1.503   9.066  19.677  0.00  0.00    +0.000 N 
ATOM      4  N   UNL     1       1.356   7.258  21.131  0.00  0.00    +0.000 N 
ATOM      5  C   UNL     1       1.935   6.384  20.261  0.00  0.00    +0.000 A 
ATOM      6  N   UNL     1       2.652   6.668  19.201  0.00  0.00    +0.000 NA
ATOM      7  C   UNL     1       3.036   5.489  18.582  0.00  0.00    +0.000 A 
ATOM      8  C   UNL     1       2.524   4.338  19.156  0.00  0.00    +0.000 A 
ATOM      9  S   UNL     1       1.660   4.738  20.589  0.00  0.00    +0.000 S 
ATOM     10  H   UNL     1       1.990   8.437  19.045  0.00  0.00    +0.000 HD
ATOM     11  H   UNL     1       0.954   6.895  21.982  0.00  0.00    +0.000 HD
ENDROOT
BRANCH   7  12
ATOM     12  C   UNL     1       3.946   5.509  17.446  0.00  0.00    +0.000 A 
ATOM     13  C   UNL     1       4.405   6.739  16.965  0.00  0.00    +0.000 A 
ATOM     14  C   UNL     1       5.292   6.745  15.903  0.00  0.00    +0.000 A 
ATOM     15  N   UNL     1       5.736   5.625  15.295  0.00  0.00    +0.000 NA
ATOM     16  C   UNL     1       5.271   4.451  15.767  0.00  0.00    +0.000 A 
ATOM     17  C   UNL     1       4.386   4.339  16.828  0.00  0.00    +0.000 A 
ENDBRANCH   7  12
BRANCH   3  18
ATOM     18  C   UNL     1       1.202  10.402  19.232  0.00  0.00    +0.000 C 
BRANCH  18  19
ATOM     19  C   UNL     1      -0.232  10.526  18.774  0.00  0.00    +0.000 A 
ATOM     20  C   UNL     1      -1.127  11.379  19.441  0.00  0.00    +0.000 A 
ATOM     21  C   UNL     1      -2.439  11.516  18.984  0.00  0.00    +0.000 A 
ATOM     22  F   UNL     1      -3.277  12.336  19.633  0.00  0.00    +0.000 F 
ATOM     23  C   UNL     1      -2.887  10.826  17.870  0.00  0.00    +0.000 A 
ATOM     24  C   UNL     1      -2.005   9.982  17.211  0.00  0.00    +0.000 A 
ATOM     25  F   UNL     1      -2.419   9.312  16.129  0.00  0.00    +0.000 F 
ATOM     26  C   UNL     1      -0.690   9.826  17.651  0.00  0.00    +0.000 A 
ENDBRANCH  18  19
ENDBRANCH   3  18
TORSDOF 3
ENDMDL
MODEL 2
REMARK VINA RESULT:      -7.6      0.193      1.939
REMARK  Name = 
REMARK  3 active torsions:
REMARK  status: ('A' for Active; 'I' for Inactive)
REMARK    1  A    between atoms: N_3  and  C_4
REMARK    2  A    between atoms: C_4  and  C_5
REMARK    3  A    between atoms: C_16  and  C_17
REMARK                            x       y       z     vdW  Elec       q    Type
REMARK                         _______ _______ _______ _____ _____    ______ ____
ROOT
ATOM      1  O   UNL     1       0.553   9.525  21.672  0.00  0.00    +0.000 OA
ATOM      2  C   UNL     1       1.080   8.794  20.838  0.00  0.00    +0.000 C 
ATOM      3  N   UNL     1       1.421   9.212  19.589  0.00  0.00    +0.000 N 
ATOM      4  N   UNL     1       1.266   7.476  21.127  0.00  0.00    +0.000 N 
ATOM      5  C   UNL     1       1.853   6.562  20.304  0.00  0.00    +0.000 A 
ATOM      6  N   UNL     1       2.577   6.796  19.237  0.00  0.00    +0.000 NA
ATOM      7  C   UNL     1       2.967   5.590  18.677  0.00  0.00    +0.000 A 
ATOM      8  C   UNL     1       2.452   4.467  19.302  0.00  0.00    +0.000 A 
ATOM      9  S   UNL     1       1.578   4.934  20.708  0.00  0.00    +0.000 S 
ATOM     10  H   UNL     1       1.914   8.555  18.991  0.00  0.00    +0.000 HD
ATOM     11  H   UNL     1       0.859   7.153  21.992  0.00  0.00    +0.000 HD
ENDROOT
BRANCH   7  12
ATOM     12  C   UNL     1       3.884   5.556  17.547  0.00  0.00    +0.000 A 
ATOM     13  C   UNL     1       4.246   4.320  17.003  0.00  0.00    +0.000 A 
ATOM     14  C   UNL     1       5.096   4.302  15.910  0.00  0.00    +0.000 A 
ATOM     15  N   UNL     1       5.605   5.415  15.342  0.00  0.00    +0.000 NA
ATOM     16  C   UNL     1       5.253   6.595  15.892  0.00  0.00    +0.000 A 
ATOM     17  C   UNL     1       4.405   6.719  16.981  0.00  0.00    +0.000 A 
ENDBRANCH   7  12
BRANCH   3  18
ATOM     18  C   UNL     1       1.122  10.526  19.079  0.00  0.00    +0.000 C 
BRANCH  18  19
ATOM     19  C   UNL     1      -0.323  10.640  18.653  0.00  0.00    +0.000 A 
ATOM     20  C   UNL     1      -0.811   9.895  17.567  0.00  0.00    +0.000 A 
ATOM     21  C   UNL     1      -2.157   9.979  17.208  0.00  0.00    +0.000 A 
ATOM     22  F   UNL     1      -2.605   9.258  16.170  0.00  0.00    +0.000 F 
ATOM     23  C   UNL     1      -3.039  10.786  17.907  0.00  0.00    +0.000 A 
ATOM     24  C   UNL     1      -2.557  11.524  18.979  0.00  0.00    +0.000 A 
ATOM     25  F   UNL     1      -3.397  12.305  19.671  0.00  0.00    +0.000 F 
ATOM     26  C   UNL     1      -1.216  11.460  19.355  0.00  0.00    +0.000 A 
ENDBRANCH  18  19
ENDBRANCH   3  18
TORSDOF 3
ENDMDL
MODEL 3
REMARK VINA RESULT:      -7.5      5.371      8.415
REMARK  Name = 
REMARK  3 active torsions:
REMARK  status: ('A' for Active; 'I' for Inactive)
REMARK    1  A    between atoms: N_3  and  C_4
REMARK    2  A    between atoms: C_4  and  C_5
REMARK    3  A    between atoms: C_16  and  C_17
REMARK                            x       y       z     vdW  Elec       q    Type
REMARK                         _______ _______ _______ _____ _____    ______ ____
ROOT
ATOM      1  O   UNL     1       7.465   7.278  16.645  0.00  0.00    +0.000 OA
ATOM      2  C   UNL     1       6.406   6.747  16.969  0.00  0.00    +0.000 C 
ATOM      3  N   UNL     1       6.177   5.411  16.856  0.00  0.00    +0.000 N 
ATOM      4  N   UNL     1       5.368   7.525  17.385  0.00  0.00    +0.000 N 
ATOM      5  C   UNL     1       4.150   7.066  17.789  0.00  0.00    +0.000 A 
ATOM      6  N   UNL     1       3.826   5.839  18.115  0.00  0.00    +0.000 NA
ATOM      7  C   UNL     1       2.482   5.797  18.449  0.00  0.00    +0.000 A 
ATOM      8  C   UNL     1       1.805   6.993  18.286  0.00  0.00    +0.000 A 
ATOM      9  S   UNL     1       2.913   8.232  17.842  0.00  0.00    +0.000 S 
ATOM     10  H   UNL     1       5.295   5.053  17.212  0.00  0.00    +0.000 HD
ATOM     11  H   UNL     1       5.506   8.521  17.305  0.00  0.00    +0.000 HD
ENDROOT
BRANCH   7  12
ATOM     12  C   UNL     1       1.883   4.576  18.969  0.00  0.00    +0.000 A 
ATOM     13  C   UNL     1       1.578   3.539  18.083  0.00  0.00    +0.000 A 
ATOM     14  C   UNL     1       1.036   2.371  18.592  0.00  0.00    +0.000 A 
ATOM     15  N   UNL     1       0.776   2.178  19.902  0.00  0.00    +0.000 NA
ATOM     16  C   UNL     1       1.067   3.197  20.737  0.00  0.00    +0.000 A 
ATOM     17  C   UNL     1       1.616   4.402  20.327  0.00  0.00    +0.000 A 
ENDBRANCH   7  12
BRANCH   3  18
ATOM     18  C   UNL     1       7.113   4.488  16.265  0.00  0.00    +0.000 C 
BRANCH  18  19
ATOM     19  C   UNL     1       7.001   4.473  14.758  0.00  0.00    +0.000 A 
ATOM     20  C   UNL     1       7.746   5.368  13.975  0.00  0.00    +0.000 A 
ATOM     21  C   UNL     1       7.665   5.318  12.582  0.00  0.00    +0.000 A 
ATOM     22  F   UNL     1       8.386   6.179  11.851  0.00  0.00    +0.000 F 
ATOM     23  C   UNL     1       6.860   4.390  11.942  0.00  0.00    +0.000 A 
ATOM     24  C   UNL     1       6.121   3.506  12.715  0.00  0.00    +0.000 A 
ATOM     25  F   UNL     1       5.342   2.598  12.114  0.00  0.00    +0.000 F 
ATOM     26  C   UNL     1       6.183   3.539  14.109  0.00  0.00    +0.000 A 
ENDBRANCH  18  19
ENDBRANCH   3  18
TORSDOF 3
ENDMDL
MODEL 4
REMARK VINA RESULT:      -7.4      5.353      8.451
REMARK  Name = 
REMARK  3 active torsions:
REMARK  status: ('A' for Active; 'I' for Inactive)
REMARK    1  A    between atoms: N_3  and  C_4
REMARK    2  A    between atoms: C_4  and  C_5
REMARK    3  A    between atoms: C_16  and  C_17
REMARK                            x       y       z     vdW  Elec       q    Type
REMARK                         _______ _______ _______ _____ _____    ______ ____
ROOT
ATOM      1  O   UNL     1       7.492   7.292  16.657  0.00  0.00    +0.000 OA
ATOM      2  C   UNL     1       6.433   6.760  16.976  0.00  0.00    +0.000 C 
ATOM      3  N   UNL     1       6.211   5.421  16.879  0.00  0.00    +0.000 N 
ATOM      4  N   UNL     1       5.385   7.538  17.369  0.00  0.00    +0.000 N 
ATOM      5  C   UNL     1       4.165   7.079  17.764  0.00  0.00    +0.000 A 
ATOM      6  N   UNL     1       3.843   5.855  18.104  0.00  0.00    +0.000 NA
ATOM      7  C   UNL     1       2.495   5.810  18.422  0.00  0.00    +0.000 A 
ATOM      8  C   UNL     1       1.815   7.000  18.234  0.00  0.00    +0.000 A 
ATOM      9  S   UNL     1       2.922   8.238  17.787  0.00  0.00    +0.000 S 
ATOM     10  H   UNL     1       5.327   5.063  17.229  0.00  0.00    +0.000 HD
ATOM     11  H   UNL     1       5.519   8.534  17.277  0.00  0.00    +0.000 HD
ENDROOT
BRANCH   7  12
ATOM     12  C   UNL     1       1.897   4.593  18.953  0.00  0.00    +0.000 A 
ATOM     13  C   UNL     1       1.609   3.541  18.078  0.00  0.00    +0.000 A 
ATOM     14  C   UNL     1       1.067   2.378  18.597  0.00  0.00    +0.000 A 
ATOM     15  N   UNL     1       0.792   2.203  19.906  0.00  0.00    +0.000 NA
ATOM     16  C   UNL     1       1.066   3.235  20.730  0.00  0.00    +0.000 A 
ATOM     17  C   UNL     1       1.614   4.437  20.309  0.00  0.00    +0.000 A 
ENDBRANCH   7  12
BRANCH   3  18
ATOM     18  C   UNL     1       7.159   4.495  16.311  0.00  0.00    +0.000 C 
BRANCH  18  19
ATOM     19  C   UNL     1       7.066   4.459  14.804  0.00  0.00    +0.000 A 
ATOM     20  C   UNL     1       6.207   3.553  14.161  0.00  0.00    +0.000 A 
ATOM     21  C   UNL     1       6.099   3.556  12.769  0.00  0.00    +0.000 A 
ATOM     22  F   UNL     1       5.273   2.686  12.173  0.00  0.00    +0.000 F 
ATOM     23  C   UNL     1       6.824   4.447  11.994  0.00  0.00    +0.000 A 
ATOM     24  C   UNL     1       7.674   5.341  12.629  0.00  0.00    +0.000 A 
ATOM     25  F   UNL     1       8.378   6.213  11.896  0.00  0.00    +0.000 F 
ATOM     26  C   UNL     1       7.801   5.355  14.018  0.00  0.00    +0.000 A 
ENDBRANCH  18  19
ENDBRANCH   3  18
TORSDOF 3
ENDMDL
MODEL 5
REMARK VINA RESULT:      -7.2      3.738      7.228
REMARK  Name = 
REMARK  3 active torsions:
REMARK  status: ('A' for Active; 'I' for Inactive)
REMARK    1  A    between atoms: N_3  and  C_4
REMARK    2  A    between atoms: C_4  and  C_5
REMARK    3  A    between atoms: C_16  and  C_17
REMARK                            x       y       z     vdW  Elec       q    Type
REMARK                         _______ _______ _______ _____ _____    ______ ____
ROOT
ATOM      1  O   UNL     1       0.441   9.561  23.910  0.00  0.00    +0.000 OA
ATOM      2  C   UNL     1      -0.024   9.924  22.834  0.00  0.00    +0.000 C 
ATOM      3  N   UNL     1       0.102   9.206  21.686  0.00  0.00    +0.000 N 
ATOM      4  N   UNL     1      -0.627  11.143  22.745  0.00  0.00    +0.000 N 
ATOM      5  C   UNL     1      -1.199  11.660  21.621  0.00  0.00    +0.000 A 
ATOM      6  N   UNL     1      -1.526  11.022  20.524  0.00  0.00    +0.000 NA
ATOM      7  C   UNL     1      -2.064  11.922  19.617  0.00  0.00    +0.000 A 
ATOM      8  C   UNL     1      -2.054  13.242  20.033  0.00  0.00    +0.000 A 
ATOM      9  S   UNL     1      -1.489  13.335  21.656  0.00  0.00    +0.000 S 
ATOM     10  H   UNL     1      -0.374   9.555  20.858  0.00  0.00    +0.000 HD
ATOM     11  H   UNL     1      -0.565  11.726  23.566  0.00  0.00    +0.000 HD
ENDROOT
BRANCH   7  12
ATOM     12  C   UNL     1      -2.625  11.460  18.356  0.00  0.00    +0.000 A 
ATOM     13  C   UNL     1      -1.834  10.677  17.508  0.00  0.00    +0.000 A 
ATOM     14  C   UNL     1      -2.388  10.219  16.325  0.00  0.00    +0.000 A 
ATOM     15  N   UNL     1      -3.651  10.492  15.936  0.00  0.00    +0.000 NA
ATOM     16  C   UNL     1      -4.391  11.258  16.763  0.00  0.00    +0.000 A 
ATOM     17  C   UNL     1      -3.931  11.761  17.971  0.00  0.00    +0.000 A 
ENDBRANCH   7  12
BRANCH   3  18
ATOM     18  C   UNL     1       0.867   7.990  21.587  0.00  0.00    +0.000 C 
BRANCH  18  19
ATOM     19  C   UNL     1       1.594   7.896  20.266  0.00  0.00    +0.000 A 
ATOM     20  C   UNL     1       2.334   6.750  19.934  0.00  0.00    +0.000 A 
ATOM     21  C   UNL     1       2.968   6.659  18.694  0.00  0.00    +0.000 A 
ATOM     22  F   UNL     1       3.669   5.556  18.395  0.00  0.00    +0.000 F 
ATOM     23  C   UNL     1       2.881   7.683  17.764  0.00  0.00    +0.000 A 
ATOM     24  C   UNL     1       2.151   8.816  18.092  0.00  0.00    +0.000 A 
ATOM     25  F   UNL     1       2.050   9.814  17.204  0.00  0.00    +0.000 F 
ATOM     26  C   UNL     1       1.511   8.932  19.326  0.00  0.00    +0.000 A 
ENDBRANCH  18  19
ENDBRANCH   3  18
TORSDOF 3
ENDMDL
MODEL 6
REMARK VINA RESULT:      -7.1      0.805      1.880
REMARK  Name = 
REMARK  3 active torsions:
REMARK  status: ('A' for Active; 'I' for Inactive)
REMARK    1  A    between atoms: N_3  and  C_4
REMARK    2  A    between atoms: C_4  and  C_5
REMARK    3  A    between atoms: C_16  and  C_17
REMARK                            x       y       z     vdW  Elec       q    Type
REMARK                         _______ _______ _______ _____ _____    ______ ____
ROOT
ATOM      1  O   UNL     1       0.096   9.200  21.871  0.00  0.00    +0.000 OA
ATOM      2  C   UNL     1       0.830   8.599  21.093  0.00  0.00    +0.000 C 
ATOM      3  N   UNL     1       1.394   9.180  19.999  0.00  0.00    +0.000 N 
ATOM      4  N   UNL     1       1.038   7.264  21.266  0.00  0.00    +0.000 N 
ATOM      5  C   UNL     1       1.839   6.482  20.489  0.00  0.00    +0.000 A 
ATOM      6  N   UNL     1       2.751   6.873  19.633  0.00  0.00    +0.000 NA
ATOM      7  C   UNL     1       3.325   5.761  19.039  0.00  0.00    +0.000 A 
ATOM      8  C   UNL     1       2.766   4.551  19.411  0.00  0.00    +0.000 A 
ATOM      9  S   UNL     1       1.593   4.807  20.642  0.00  0.00    +0.000 S 
ATOM     10  H   UNL     1       2.041   8.621  19.450  0.00  0.00    +0.000 HD
ATOM     11  H   UNL     1       0.482   6.822  21.983  0.00  0.00    +0.000 HD
ENDROOT
BRANCH   7  12
ATOM     12  C   UNL     1       4.456   5.903  18.133  0.00  0.00    +0.000 A 
ATOM     13  C   UNL     1       4.259   6.518  16.892  0.00  0.00    +0.000 A 
ATOM     14  C   UNL     1       5.347   6.673  16.051  0.00  0.00    +0.000 A 
ATOM     15  N   UNL     1       6.593   6.256  16.358  0.00  0.00    +0.000 NA
ATOM     16  C   UNL     1       6.758   5.655  17.554  0.00  0.00    +0.000 A 
ATOM     17  C   UNL     1       5.734   5.457  18.468  0.00  0.00    +0.000 A 
ENDBRANCH   7  12
BRANCH   3  18
ATOM     18  C   UNL     1       1.121  10.533  19.586  0.00  0.00    +0.000 C 
BRANCH  18  19
ATOM     19  C   UNL     1      -0.246  10.658  18.956  0.00  0.00    +0.000 A 
ATOM     20  C   UNL     1      -0.575   9.922  17.807  0.00  0.00    +0.000 A 
ATOM     21  C   UNL     1      -1.855  10.014  17.257  0.00  0.00    +0.000 A 
ATOM     22  F   UNL     1      -2.151   9.303  16.161  0.00  0.00    +0.000 F 
ATOM     23  C   UNL     1      -2.826  10.822  17.827  0.00  0.00    +0.000 A 
ATOM     24  C   UNL     1      -2.501  11.550  18.962  0.00  0.00    +0.000 A 
ATOM     25  F   UNL     1      -3.428  12.331  19.531  0.00  0.00    +0.000 F 
ATOM     26  C   UNL     1      -1.228  11.477  19.528  0.00  0.00    +0.000 A 
ENDBRANCH  18  19
ENDBRANCH   3  18
TORSDOF 3
ENDMDL
MODEL 7
REMARK VINA RESULT:      -7.0      3.061      4.296
REMARK  Name = 
REMARK  3 active torsions:
REMARK  status: ('A' for Active; 'I' for Inactive)
REMARK    1  A    between atoms: N_3  and  C_4
REMARK    2  A    between atoms: C_4  and  C_5
REMARK    3  A    between atoms: C_16  and  C_17
REMARK                            x       y       z     vdW  Elec       q    Type
REMARK                         _______ _______ _______ _____ _____    ______ ____
ROOT
ATOM      1  O   UNL     1       1.510   3.446  22.184  0.00  0.00    +0.000 OA
ATOM      2  C   UNL     1       2.178   3.664  21.178  0.00  0.00    +0.000 C 
ATOM      3  N   UNL     1       2.439   4.916  20.713  0.00  0.00    +0.000 N 
ATOM      4  N   UNL     1       2.620   2.616  20.428  0.00  0.00    +0.000 N 
ATOM      5  C   UNL     1       3.382   2.715  19.303  0.00  0.00    +0.000 A 
ATOM      6  N   UNL     1       4.054   3.759  18.882  0.00  0.00    +0.000 NA
ATOM      7  C   UNL     1       4.679   3.446  17.686  0.00  0.00    +0.000 A 
ATOM      8  C   UNL     1       4.393   2.184  17.194  0.00  0.00    +0.000 A 
ATOM      9  S   UNL     1       3.434   1.321  18.331  0.00  0.00    +0.000 S 
ATOM     10  H   UNL     1       3.057   5.001  19.910  0.00  0.00    +0.000 HD
ATOM     11  H   UNL     1       2.279   1.706  20.700  0.00  0.00    +0.000 HD
ENDROOT
BRANCH   7  12
ATOM     12  C   UNL     1       5.593   4.388  17.056  0.00  0.00    +0.000 A 
ATOM     13  C   UNL     1       5.869   5.599  17.699  0.00  0.00    +0.000 A 
ATOM     14  C   UNL     1       6.762   6.474  17.105  0.00  0.00    +0.000 A 
ATOM     15  N   UNL     1       7.380   6.229  15.932  0.00  0.00    +0.000 NA
ATOM     16  C   UNL     1       7.090   5.060  15.323  0.00  0.00    +0.000 A 
ATOM     17  C   UNL     1       6.215   4.116  15.838  0.00  0.00    +0.000 A 
ENDBRANCH   7  12
BRANCH   3  18
ATOM     18  C   UNL     1       1.889   6.113  21.295  0.00  0.00    +0.000 C 
BRANCH  18  19
ATOM     19  C   UNL     1       1.852   7.249  20.299  0.00  0.00    +0.000 A 
ATOM     20  C   UNL     1       2.496   7.135  19.057  0.00  0.00    +0.000 A 
ATOM     21  C   UNL     1       2.421   8.175  18.129  0.00  0.00    +0.000 A 
ATOM     22  F   UNL     1       3.041   8.046  16.948  0.00  0.00    +0.000 F 
ATOM     23  C   UNL     1       1.712   9.333  18.404  0.00  0.00    +0.000 A 
ATOM     24  C   UNL     1       1.077   9.448  19.632  0.00  0.00    +0.000 A 
ATOM     25  F   UNL     1       0.382  10.558  19.912  0.00  0.00    +0.000 F 
ATOM     26  C   UNL     1       1.140   8.424  20.576  0.00  0.00    +0.000 A 
ENDBRANCH  18  19
ENDBRANCH   3  18
TORSDOF 3
ENDMDL
MODEL 8
REMARK VINA RESULT:      -6.9      3.072      4.046
REMARK  Name = 
REMARK  3 active torsions:
REMARK  status: ('A' for Active; 'I' for Inactive)
REMARK    1  A    between atoms: N_3  and  C_4
REMARK    2  A    between atoms: C_4  and  C_5
REMARK    3  A    between atoms: C_16  and  C_17
REMARK                            x       y       z     vdW  Elec       q    Type
REMARK                         _______ _______ _______ _____ _____    ______ ____
ROOT
ATOM      1  O   UNL     1       1.470   3.478  22.161  0.00  0.00    +0.000 OA
ATOM      2  C   UNL     1       2.162   3.690  21.170  0.00  0.00    +0.000 C 
ATOM      3  N   UNL     1       2.461   4.940  20.723  0.00  0.00    +0.000 N 
ATOM      4  N   UNL     1       2.592   2.639  20.417  0.00  0.00    +0.000 N 
ATOM      5  C   UNL     1       3.377   2.732  19.308  0.00  0.00    +0.000 A 
ATOM      6  N   UNL     1       4.081   3.763  18.910  0.00  0.00    +0.000 NA
ATOM      7  C   UNL     1       4.721   3.447  17.722  0.00  0.00    +0.000 A 
ATOM      8  C   UNL     1       4.414   2.198  17.211  0.00  0.00    +0.000 A 
ATOM      9  S   UNL     1       3.413   1.347  18.322  0.00  0.00    +0.000 S 
ATOM     10  H   UNL     1       3.096   5.018  19.933  0.00  0.00    +0.000 HD
ATOM     11  H   UNL     1       2.224   1.736  20.673  0.00  0.00    +0.000 HD
ENDROOT
BRANCH   7  12
ATOM     12  C   UNL     1       5.670   4.373  17.120  0.00  0.00    +0.000 A 
ATOM     13  C   UNL     1       6.107   4.142  15.812  0.00  0.00    +0.000 A 
ATOM     14  C   UNL     1       6.986   5.045  15.239  0.00  0.00    +0.000 A 
ATOM     15  N   UNL     1       7.455   6.137  15.877  0.00  0.00    +0.000 NA
ATOM     16  C   UNL     1       7.031   6.333  17.142  0.00  0.00    +0.000 A 
ATOM     17  C   UNL     1       6.148   5.492  17.801  0.00  0.00    +0.000 A 
ENDBRANCH   7  12
BRANCH   3  18
ATOM     18  C   UNL     1       1.929   6.144  21.308  0.00  0.00    +0.000 C 
BRANCH  18  19
ATOM     19  C   UNL     1       1.820   7.255  20.290  0.00  0.00    +0.000 A 
ATOM     20  C   UNL     1       1.117   8.433  20.588  0.00  0.00    +0.000 A 
ATOM     21  C   UNL     1       1.057   9.470  19.654  0.00  0.00    +0.000 A 
ATOM     22  F   UNL     1       0.382  10.587  19.957  0.00  0.00    +0.000 F 
ATOM     23  C   UNL     1       1.688   9.368  18.425  0.00  0.00    +0.000 A 
ATOM     24  C   UNL     1       2.382   8.203  18.130  0.00  0.00    +0.000 A 
ATOM     25  F   UNL     1       3.004   8.089  16.950  0.00  0.00    +0.000 F 
ATOM     26  C   UNL     1       2.453   7.153  19.045  0.00  0.00    +0.000 A 
ENDBRANCH  18  19
ENDBRANCH   3  18
TORSDOF 3
ENDMDL
MODEL 9
REMARK VINA RESULT:      -6.8      2.172      3.864
REMARK  Name = 
REMARK  3 active torsions:
REMARK  status: ('A' for Active; 'I' for Inactive)
REMARK    1  A    between atoms: N_3  and  C_4
REMARK    2  A    between atoms: C_4  and  C_5
REMARK    3  A    between atoms: C_16  and  C_17
REMARK                            x       y       z     vdW  Elec       q    Type
REMARK                         _______ _______ _______ _____ _____    ______ ____
ROOT
ATOM      1  O   UNL     1       2.027  10.968  17.588  0.00  0.00    +0.000 OA
ATOM      2  C   UNL     1       2.082   9.800  17.961  0.00  0.00    +0.000 C 
ATOM      3  N   UNL     1       1.287   9.292  18.941  0.00  0.00    +0.000 N 
ATOM      4  N   UNL     1       3.034   8.977  17.440  0.00  0.00    +0.000 N 
ATOM      5  C   UNL     1       3.195   7.660  17.751  0.00  0.00    +0.000 A 
ATOM      6  N   UNL     1       2.345   6.874  18.366  0.00  0.00    +0.000 NA
ATOM      7  C   UNL     1       2.905   5.614  18.500  0.00  0.00    +0.000 A 
ATOM      8  C   UNL     1       4.209   5.507  18.048  0.00  0.00    +0.000 A 
ATOM      9  S   UNL     1       4.690   6.983  17.307  0.00  0.00    +0.000 S 
ATOM     10  H   UNL     1       1.358   8.297  19.136  0.00  0.00    +0.000 HD
ATOM     11  H   UNL     1       3.714   9.416  16.839  0.00  0.00    +0.000 HD
ENDROOT
BRANCH   7  12
ATOM     12  C   UNL     1       2.127   4.508  19.041  0.00  0.00    +0.000 A 
ATOM     13  C   UNL     1       1.631   3.536  18.166  0.00  0.00    +0.000 A 
ATOM     14  C   UNL     1       0.917   2.474  18.694  0.00  0.00    +0.000 A 
ATOM     15  N   UNL     1       0.663   2.326  20.011  0.00  0.00    +0.000 NA
ATOM     16  C   UNL     1       1.141   3.282  20.835  0.00  0.00    +0.000 A 
ATOM     17  C   UNL     1       1.871   4.380  20.405  0.00  0.00    +0.000 A 
ENDBRANCH   7  12
BRANCH   3  18
ATOM     18  C   UNL     1       0.360  10.085  19.707  0.00  0.00    +0.000 C 
BRANCH  18  19
ATOM     19  C   UNL     1      -0.880  10.415  18.911  0.00  0.00    +0.000 A 
ATOM     20  C   UNL     1      -1.144   9.766  17.694  0.00  0.00    +0.000 A 
ATOM     21  C   UNL     1      -2.314  10.050  16.987  0.00  0.00    +0.000 A 
ATOM     22  F   UNL     1      -2.549   9.419  15.828  0.00  0.00    +0.000 F 
ATOM     23  C   UNL     1      -3.238  10.965  17.463  0.00  0.00    +0.000 A 
ATOM     24  C   UNL     1      -2.977  11.609  18.664  0.00  0.00    +0.000 A 
ATOM     25  F   UNL     1      -3.861  12.492  19.144  0.00  0.00    +0.000 F 
ATOM     26  C   UNL     1      -1.814  11.344  19.388  0.00  0.00    +0.000 A 
ENDBRANCH  18  19
ENDBRANCH   3  18
TORSDOF 3
ENDMDL
