MODEL 1
REMARK VINA RESULT:      -6.8      0.000      0.000
REMARK  Name = 
REMARK  2 active torsions:
REMARK  status: ('A' for Active; 'I' for Inactive)
REMARK    1  A    between atoms: C_1  and  N_2
REMARK    2  A    between atoms: N_11  and  C_12
REMARK                            x       y       z     vdW  Elec       q    Type
REMARK                         _______ _______ _______ _____ _____    ______ ____
ROOT
ATOM      1  C   UNL     1       2.483   2.960  21.665  0.00  0.00    +0.000 C 
ATOM      2  N   UNL     1       2.937   2.489  20.346  0.00  0.00    +0.000 N 
ATOM      3  C   UNL     1       4.293   2.431  20.114  0.00  0.00    +0.000 A 
ATOM      4  O   UNL     1       5.070   1.583  20.482  0.00  0.00    +0.000 OA
ATOM      5  C   UNL     1       4.690   3.518  19.285  0.00  0.00    +0.000 A 
ATOM      6  N   UNL     1       5.925   4.005  19.042  0.00  0.00    +0.000 N 
ATOM      7  C   UNL     1       5.741   5.116  18.265  0.00  0.00    +0.000 A 
ATOM      8 BR   UNL     1       7.137   6.228  17.721  0.00  0.00    +0.000 Br
ATOM      9  N   UNL     1       4.472   5.287  17.935  0.00  0.00    +0.000 NA
ATOM     10  C   UNL     1       3.818   4.291  18.580  0.00  0.00    +0.000 A 
ATOM     11  N   UNL     1       2.480   3.953  18.546  0.00  0.00    +0.000 N 
ATOM     12  C   UNL     1       1.536   4.444  17.571  0.00  0.00    +0.000 C 
ATOM     13  C   UNL     1       2.127   2.806  19.247  0.00  0.00    +0.000 A 
ATOM     14  O   UNL     1       1.213   2.060  18.863  0.00  0.00    +0.000 OA
ATOM     15  H   UNL     1       6.805   3.643  19.392  0.00  0.00    +0.000 HD
ENDROOT
TORSDOF 0
ENDMDL
MODEL 2
REMARK VINA RESULT:      -6.3      1.453      1.573
REMARK  Name = 
REMARK  2 active torsions:
REMARK  status: ('A' for Active; 'I' for Inactive)
REMARK    1  A    between atoms: C_1  and  N_2
REMARK    2  A    between atoms: N_11  and  C_12
REMARK                            x       y       z     vdW  Elec       q    Type
REMARK                         _______ _______ _______ _____ _____    ______ ____
ROOT
ATOM      1  C   UNL     1       1.624   2.660  20.227  0.00  0.00    +0.000 C 
ATOM      2  N   UNL     1       2.253   2.904  18.918  0.00  0.00    +0.000 N 
ATOM      3  C   UNL     1       3.556   2.494  18.743  0.00  0.00    +0.000 A 
ATOM      4  O   UNL     1       3.956   1.377  18.522  0.00  0.00    +0.000 OA
ATOM      5  C   UNL     1       4.429   3.619  18.791  0.00  0.00    +0.000 A 
ATOM      6  N   UNL     1       5.769   3.658  18.944  0.00  0.00    +0.000 N 
ATOM      7  C   UNL     1       6.095   4.983  19.030  0.00  0.00    +0.000 A 
ATOM      8 BR   UNL     1       7.830   5.593  19.345  0.00  0.00    +0.000 Br
ATOM      9  N   UNL     1       5.046   5.767  18.841  0.00  0.00    +0.000 NA
ATOM     10  C   UNL     1       4.006   4.910  18.700  0.00  0.00    +0.000 A 
ATOM     11  N   UNL     1       2.681   5.176  18.420  0.00  0.00    +0.000 N 
ATOM     12  C   UNL     1       2.183   6.443  17.940  0.00  0.00    +0.000 C 
ATOM     13  C   UNL     1       1.865   4.066  18.237  0.00  0.00    +0.000 A 
ATOM     14  O   UNL     1       0.912   4.079  17.443  0.00  0.00    +0.000 OA
ATOM     15  H   UNL     1       6.400   2.868  19.017  0.00  0.00    +0.000 HD
ENDROOT
TORSDOF 0
ENDMDL
MODEL 3
REMARK VINA RESULT:      -6.2      3.317      4.810
REMARK  Name = 
REMARK  2 active torsions:
REMARK  status: ('A' for Active; 'I' for Inactive)
REMARK    1  A    between atoms: C_1  and  N_2
REMARK    2  A    between atoms: N_11  and  C_12
REMARK                            x       y       z     vdW  Elec       q    Type
REMARK                         _______ _______ _______ _____ _____    ______ ____
ROOT
ATOM      1  C   UNL     1       6.988   4.973  15.344  0.00  0.00    +0.000 C 
ATOM      2  N   UNL     1       6.959   5.545  16.701  0.00  0.00    +0.000 N 
ATOM      3  C   UNL     1       7.105   4.684  17.766  0.00  0.00    +0.000 A 
ATOM      4  O   UNL     1       8.125   4.197  18.189  0.00  0.00    +0.000 OA
ATOM      5  C   UNL     1       5.843   4.469  18.391  0.00  0.00    +0.000 A 
ATOM      6  N   UNL     1       5.472   3.512  19.267  0.00  0.00    +0.000 N 
ATOM      7  C   UNL     1       4.132   3.693  19.470  0.00  0.00    +0.000 A 
ATOM      8 BR   UNL     1       3.095   2.564  20.534  0.00  0.00    +0.000 Br
ATOM      9  N   UNL     1       3.675   4.766  18.845  0.00  0.00    +0.000 NA
ATOM     10  C   UNL     1       4.745   5.243  18.167  0.00  0.00    +0.000 A 
ATOM     11  N   UNL     1       4.858   6.381  17.393  0.00  0.00    +0.000 N 
ATOM     12  C   UNL     1       3.902   7.461  17.379  0.00  0.00    +0.000 C 
ATOM     13  C   UNL     1       6.130   6.656  16.903  0.00  0.00    +0.000 A 
ATOM     14  O   UNL     1       6.533   7.819  16.748  0.00  0.00    +0.000 OA
ATOM     15  H   UNL     1       6.057   2.786  19.665  0.00  0.00    +0.000 HD
ENDROOT
TORSDOF 0
ENDMDL
MODEL 4
REMARK VINA RESULT:      -6.1      1.534      1.548
REMARK  Name = 
REMARK  2 active torsions:
REMARK  status: ('A' for Active; 'I' for Inactive)
REMARK    1  A    between atoms: C_1  and  N_2
REMARK    2  A    between atoms: N_11  and  C_12
REMARK                            x       y       z     vdW  Elec       q    Type
REMARK                         _______ _______ _______ _____ _____    ______ ____
ROOT
ATOM      1  C   UNL     1       2.560   2.243  21.650  0.00  0.00    +0.000 C 
ATOM      2  N   UNL     1       2.484   2.741  20.267  0.00  0.00    +0.000 N 
ATOM      3  C   UNL     1       3.525   2.442  19.416  0.00  0.00    +0.000 A 
ATOM      4  O   UNL     1       3.733   1.404  18.837  0.00  0.00    +0.000 OA
ATOM      5  C   UNL     1       4.346   3.592  19.234  0.00  0.00    +0.000 A 
ATOM      6  N   UNL     1       5.593   3.683  18.727  0.00  0.00    +0.000 N 
ATOM      7  C   UNL     1       5.961   4.992  18.876  0.00  0.00    +0.000 A 
ATOM      8 BR   UNL     1       7.650   5.641  18.418  0.00  0.00    +0.000 Br
ATOM      9  N   UNL     1       4.976   5.733  19.358  0.00  0.00    +0.000 NA
ATOM     10  C   UNL     1       3.972   4.853  19.587  0.00  0.00    +0.000 A 
ATOM     11  N   UNL     1       2.687   5.085  20.032  0.00  0.00    +0.000 N 
ATOM     12  C   UNL     1       2.058   6.383  20.083  0.00  0.00    +0.000 C 
ATOM     13  C   UNL     1       1.850   3.976  20.073  0.00  0.00    +0.000 A 
ATOM     14  O   UNL     1       0.633   4.066  19.852  0.00  0.00    +0.000 OA
ATOM     15  H   UNL     1       6.156   2.930  18.346  0.00  0.00    +0.000 HD
ENDROOT
TORSDOF 0
ENDMDL
MODEL 5
REMARK VINA RESULT:      -6.0      1.795      2.888
REMARK  Name = 
REMARK  2 active torsions:
REMARK  status: ('A' for Active; 'I' for Inactive)
REMARK    1  A    between atoms: C_1  and  N_2
REMARK    2  A    between atoms: N_11  and  C_12
REMARK                            x       y       z     vdW  Elec       q    Type
REMARK                         _______ _______ _______ _____ _____    ______ ____
ROOT
ATOM      1  C   UNL     1       0.912   3.407  19.476  0.00  0.00    +0.000 C 
ATOM      2  N   UNL     1       1.977   3.940  20.342  0.00  0.00    +0.000 N 
ATOM      3  C   UNL     1       2.496   5.178  20.037  0.00  0.00    +0.000 A 
ATOM      4  O   UNL     1       2.015   6.260  20.272  0.00  0.00    +0.000 OA
ATOM      5  C   UNL     1       3.778   5.030  19.433  0.00  0.00    +0.000 A 
ATOM      6  N   UNL     1       4.506   5.928  18.737  0.00  0.00    +0.000 N 
ATOM      7  C   UNL     1       5.604   5.248  18.288  0.00  0.00    +0.000 A 
ATOM      8 BR   UNL     1       6.900   6.010  17.182  0.00  0.00    +0.000 Br
ATOM      9  N   UNL     1       5.644   4.008  18.747  0.00  0.00    +0.000 NA
ATOM     10  C   UNL     1       4.497   3.874  19.455  0.00  0.00    +0.000 A 
ATOM     11  N   UNL     1       4.047   2.804  20.202  0.00  0.00    +0.000 N 
ATOM     12  C   UNL     1       4.863   1.686  20.607  0.00  0.00    +0.000 C 
ATOM     13  C   UNL     1       2.863   3.009  20.902  0.00  0.00    +0.000 A 
ATOM     14  O   UNL     1       2.652   2.474  22.001  0.00  0.00    +0.000 OA
ATOM     15  H   UNL     1       4.271   6.897  18.555  0.00  0.00    +0.000 HD
ENDROOT
TORSDOF 0
ENDMDL
MODEL 6
REMARK VINA RESULT:      -6.0      3.592      4.563
REMARK  Name = 
REMARK  2 active torsions:
REMARK  status: ('A' for Active; 'I' for Inactive)
REMARK    1  A    between atoms: C_1  and  N_2
REMARK    2  A    between atoms: N_11  and  C_12
REMARK                            x       y       z     vdW  Elec       q    Type
REMARK                         _______ _______ _______ _____ _____    ______ ____
ROOT
ATOM      1  C   UNL     1       7.728   6.917  18.448  0.00  0.00    +0.000 C 
ATOM      2  N   UNL     1       7.087   5.592  18.418  0.00  0.00    +0.000 N 
ATOM      3  C   UNL     1       7.612   4.642  17.571  0.00  0.00    +0.000 A 
ATOM      4  O   UNL     1       8.594   3.960  17.743  0.00  0.00    +0.000 OA
ATOM      5  C   UNL     1       6.777   4.497  16.427  0.00  0.00    +0.000 A 
ATOM      6  N   UNL     1       7.039   3.905  15.243  0.00  0.00    +0.000 N 
ATOM      7  C   UNL     1       5.943   4.138  14.459  0.00  0.00    +0.000 A 
ATOM      8 BR   UNL     1       5.829   3.609  12.674  0.00  0.00    +0.000 Br
ATOM      9  N   UNL     1       4.980   4.756  15.123  0.00  0.00    +0.000 NA
ATOM     10  C   UNL     1       5.508   4.985  16.349  0.00  0.00    +0.000 A 
ATOM     11  N   UNL     1       4.923   5.547  17.465  0.00  0.00    +0.000 N 
ATOM     12  C   UNL     1       3.504   5.757  17.629  0.00  0.00    +0.000 C 
ATOM     13  C   UNL     1       5.700   5.555  18.618  0.00  0.00    +0.000 A 
ATOM     14  O   UNL     1       5.198   5.438  19.746  0.00  0.00    +0.000 OA
ATOM     15  H   UNL     1       7.888   3.418  14.977  0.00  0.00    +0.000 HD
ENDROOT
TORSDOF 0
ENDMDL
MODEL 7
REMARK VINA RESULT:      -5.9      2.696      3.581
REMARK  Name = 
REMARK  2 active torsions:
REMARK  status: ('A' for Active; 'I' for Inactive)
REMARK    1  A    between atoms: C_1  and  N_2
REMARK    2  A    between atoms: N_11  and  C_12
REMARK                            x       y       z     vdW  Elec       q    Type
REMARK                         _______ _______ _______ _____ _____    ______ ____
ROOT
ATOM      1  C   UNL     1       2.059   1.870  19.296  0.00  0.00    +0.000 C 
ATOM      2  N   UNL     1       2.900   2.679  20.194  0.00  0.00    +0.000 N 
ATOM      3  C   UNL     1       2.268   3.515  21.087  0.00  0.00    +0.000 A 
ATOM      4  O   UNL     1       1.750   3.220  22.137  0.00  0.00    +0.000 OA
ATOM      5  C   UNL     1       2.358   4.863  20.637  0.00  0.00    +0.000 A 
ATOM      6  N   UNL     1       1.663   5.949  21.035  0.00  0.00    +0.000 N 
ATOM      7  C   UNL     1       2.058   6.967  20.212  0.00  0.00    +0.000 A 
ATOM      8 BR   UNL     1       1.324   8.681  20.277  0.00  0.00    +0.000 Br
ATOM      9  N   UNL     1       3.028   6.595  19.392  0.00  0.00    +0.000 NA
ATOM     10  C   UNL     1       3.207   5.278  19.656  0.00  0.00    +0.000 A 
ATOM     11  N   UNL     1       4.133   4.397  19.135  0.00  0.00    +0.000 N 
ATOM     12  C   UNL     1       5.303   4.786  18.386  0.00  0.00    +0.000 C 
ATOM     13  C   UNL     1       4.129   3.120  19.684  0.00  0.00    +0.000 A 
ATOM     14  O   UNL     1       5.170   2.455  19.802  0.00  0.00    +0.000 OA
ATOM     15  H   UNL     1       0.965   5.993  21.769  0.00  0.00    +0.000 HD
ENDROOT
TORSDOF 0
ENDMDL
MODEL 8
REMARK VINA RESULT:      -5.9      3.427      4.960
REMARK  Name = 
REMARK  2 active torsions:
REMARK  status: ('A' for Active; 'I' for Inactive)
REMARK    1  A    between atoms: C_1  and  N_2
REMARK    2  A    between atoms: N_11  and  C_12
REMARK                            x       y       z     vdW  Elec       q    Type
REMARK                         _______ _______ _______ _____ _____    ______ ____
ROOT
ATOM      1  C   UNL     1       6.055   3.810  14.868  0.00  0.00    +0.000 C 
ATOM      2  N   UNL     1       6.007   3.983  16.330  0.00  0.00    +0.000 N 
ATOM      3  C   UNL     1       4.772   3.975  16.939  0.00  0.00    +0.000 A 
ATOM      4  O   UNL     1       4.088   3.018  17.212  0.00  0.00    +0.000 OA
ATOM      5  C   UNL     1       4.397   5.303  17.291  0.00  0.00    +0.000 A 
ATOM      6  N   UNL     1       3.188   5.789  17.640  0.00  0.00    +0.000 N 
ATOM      7  C   UNL     1       3.353   7.140  17.771  0.00  0.00    +0.000 A 
ATOM      8 BR   UNL     1       1.952   8.311  18.154  0.00  0.00    +0.000 Br
ATOM      9  N   UNL     1       4.616   7.504  17.619  0.00  0.00    +0.000 NA
ATOM     10  C   UNL     1       5.263   6.354  17.311  0.00  0.00    +0.000 A 
ATOM     11  N   UNL     1       6.610   6.133  17.107  0.00  0.00    +0.000 N 
ATOM     12  C   UNL     1       7.656   7.063  17.459  0.00  0.00    +0.000 C 
ATOM     13  C   UNL     1       6.983   4.810  16.902  0.00  0.00    +0.000 A 
ATOM     14  O   UNL     1       8.075   4.370  17.293  0.00  0.00    +0.000 OA
ATOM     15  H   UNL     1       2.326   5.266  17.747  0.00  0.00    +0.000 HD
ENDROOT
TORSDOF 0
ENDMDL
MODEL 9
REMARK VINA RESULT:      -5.8      2.418      3.371
REMARK  Name = 
REMARK  2 active torsions:
REMARK  status: ('A' for Active; 'I' for Inactive)
REMARK    1  A    between atoms: C_1  and  N_2
REMARK    2  A    between atoms: N_11  and  C_12
REMARK                            x       y       z     vdW  Elec       q    Type
REMARK                         _______ _______ _______ _____ _____    ______ ____
ROOT
ATOM      1  C   UNL     1       2.155   2.221  19.282  0.00  0.00    +0.000 C 
ATOM      2  N   UNL     1       3.060   3.214  19.884  0.00  0.00    +0.000 N 
ATOM      3  C   UNL     1       2.502   4.352  20.422  0.00  0.00    +0.000 A 
ATOM      4  O   UNL     1       1.955   4.474  21.491  0.00  0.00    +0.000 OA
ATOM      5  C   UNL     1       2.715   5.456  19.547  0.00  0.00    +0.000 A 
ATOM      6  N   UNL     1       2.118   6.666  19.532  0.00  0.00    +0.000 N 
ATOM      7  C   UNL     1       2.607   7.309  18.429  0.00  0.00    +0.000 A 
ATOM      8 BR   UNL     1       2.029   8.998  17.887  0.00  0.00    +0.000 Br
ATOM      9  N   UNL     1       3.543   6.603  17.816  0.00  0.00    +0.000 NA
ATOM     10  C   UNL     1       3.602   5.443  18.514  0.00  0.00    +0.000 A 
ATOM     11  N   UNL     1       4.447   4.364  18.353  0.00  0.00    +0.000 N 
ATOM     12  C   UNL     1       5.651   4.378  17.557  0.00  0.00    +0.000 C 
ATOM     13  C   UNL     1       4.326   3.353  19.299  0.00  0.00    +0.000 A 
ATOM     14  O   UNL     1       5.302   2.684  19.670  0.00  0.00    +0.000 OA
ATOM     15  H   UNL     1       1.423   7.014  20.184  0.00  0.00    +0.000 HD
ENDROOT
TORSDOF 0
ENDMDL
