MODEL 1
REMARK VINA RESULT:      -7.6      0.000      0.000
REMARK  Name = 
REMARK  5 active torsions:
REMARK  status: ('A' for Active; 'I' for Inactive)
REMARK    1  A    between atoms: S_2  and  C_3
REMARK    2  A    between atoms: S_2  and  C_18
REMARK    3  A    between atoms: C_3  and  C_4
REMARK    4  A    between atoms: C_6  and  O_7
REMARK    5  A    between atoms: O_7  and  C_8
REMARK                            x       y       z     vdW  Elec       q    Type
REMARK                         _______ _______ _______ _____ _____    ______ ____
ROOT
ATOM      1  C   UNL     1       0.976   9.306  20.041  0.00  0.00    +0.000 A 
ATOM      2  C   UNL     1       1.685   8.163  20.387  0.00  0.00    +0.000 A 
ATOM      3  C   UNL     1       2.374   7.472  19.392  0.00  0.00    +0.000 A 
ATOM      4  C   UNL     1       2.464   8.018  18.118  0.00  0.00    +0.000 A 
ATOM      5  C   UNL     1       1.804   9.207  17.878  0.00  0.00    +0.000 A 
ATOM      6  N   UNL     1       1.062   9.852  18.802  0.00  0.00    +0.000 NA
ENDROOT
BRANCH   1   7
ATOM      7  C   UNL     1       0.106  10.022  21.038  0.00  0.00    +0.000 C 
BRANCH   7   9
ATOM      8  O   UNL     1      -0.239  12.551  22.206  0.00  0.00    +0.000 OA
ATOM      9  S   UNL     1      -0.084  11.809  20.829  0.00  0.00    +0.000 S 
BRANCH   9  10
ATOM     10  C   UNL     1      -1.629  11.933  20.029  0.00  0.00    +0.000 A 
ATOM     11  N   UNL     1      -2.741  12.472  20.580  0.00  0.00    +0.000 NA
ATOM     12  C   UNL     1      -3.662  12.282  19.594  0.00  0.00    +0.000 A 
ATOM     13  C   UNL     1      -4.975  12.581  19.443  0.00  0.00    +0.000 A 
ATOM     14  S   UNL     1      -5.486  11.975  17.885  0.00  0.00    +0.000 S 
ATOM     15  C   UNL     1      -3.911  11.348  17.486  0.00  0.00    +0.000 A 
ATOM     16  C   UNL     1      -3.109  11.630  18.524  0.00  0.00    +0.000 A 
ATOM     17  N   UNL     1      -1.792  11.376  18.736  0.00  0.00    +0.000 N 
ATOM     18  H   UNL     1      -1.109  10.916  18.153  0.00  0.00    +0.000 HD
ENDBRANCH   9  10
ENDBRANCH   7   9
ENDBRANCH   1   7
BRANCH   3  19
ATOM     19  O   UNL     1       3.023   6.273  19.588  0.00  0.00    +0.000 OA
BRANCH  19  20
ATOM     20  C   UNL     1       2.381   5.093  19.278  0.00  0.00    +0.000 A 
ATOM     21  C   UNL     1       2.490   4.432  18.048  0.00  0.00    +0.000 A 
ATOM     22  C   UNL     1       1.746   3.277  17.807  0.00  0.00    +0.000 A 
ATOM     23  C   UNL     1       0.954   2.750  18.819  0.00  0.00    +0.000 A 
ATOM     24  F   UNL     1       0.241   1.641  18.586  0.00  0.00    +0.000 F 
ATOM     25  C   UNL     1       0.896   3.353  20.071  0.00  0.00    +0.000 A 
ATOM     26  C   UNL     1       1.612   4.529  20.301  0.00  0.00    +0.000 A 
ENDBRANCH  19  20
ENDBRANCH   3  19
TORSDOF 5
ENDMDL
MODEL 2
REMARK VINA RESULT:      -7.4      0.948      1.436
REMARK  Name = 
REMARK  5 active torsions:
REMARK  status: ('A' for Active; 'I' for Inactive)
REMARK    1  A    between atoms: S_2  and  C_3
REMARK    2  A    between atoms: S_2  and  C_18
REMARK    3  A    between atoms: C_3  and  C_4
REMARK    4  A    between atoms: C_6  and  O_7
REMARK    5  A    between atoms: O_7  and  C_8
REMARK                            x       y       z     vdW  Elec       q    Type
REMARK                         _______ _______ _______ _____ _____    ______ ____
ROOT
ATOM      1  C   UNL     1       0.961   9.342  19.891  0.00  0.00    +0.000 A 
ATOM      2  C   UNL     1       1.590   8.172  20.294  0.00  0.00    +0.000 A 
ATOM      3  C   UNL     1       2.410   7.503  19.386  0.00  0.00    +0.000 A 
ATOM      4  C   UNL     1       2.701   8.094  18.164  0.00  0.00    +0.000 A 
ATOM      5  C   UNL     1       2.105   9.306  17.875  0.00  0.00    +0.000 A 
ATOM      6  N   UNL     1       1.242   9.932  18.702  0.00  0.00    +0.000 NA
ENDROOT
BRANCH   1   7
ATOM      7  C   UNL     1      -0.038  10.040  20.774  0.00  0.00    +0.000 C 
BRANCH   7   9
ATOM      8  O   UNL     1      -1.128  12.496  21.586  0.00  0.00    +0.000 OA
ATOM      9  S   UNL     1      -0.403  11.771  20.395  0.00  0.00    +0.000 S 
BRANCH   9  10
ATOM     10  C   UNL     1      -1.579  11.637  19.113  0.00  0.00    +0.000 A 
ATOM     11  N   UNL     1      -2.915  11.768  19.278  0.00  0.00    +0.000 NA
ATOM     12  C   UNL     1      -3.376  11.529  18.019  0.00  0.00    +0.000 A 
ATOM     13  C   UNL     1      -4.601  11.505  17.439  0.00  0.00    +0.000 A 
ATOM     14  S   UNL     1      -4.389  11.075  15.757  0.00  0.00    +0.000 S 
ATOM     15  C   UNL     1      -2.656  10.952  15.891  0.00  0.00    +0.000 A 
ATOM     16  C   UNL     1      -2.346  11.240  17.164  0.00  0.00    +0.000 A 
ATOM     17  N   UNL     1      -1.151  11.296  17.806  0.00  0.00    +0.000 N 
ATOM     18  H   UNL     1      -0.214  11.137  17.467  0.00  0.00    +0.000 HD
ENDBRANCH   9  10
ENDBRANCH   7   9
ENDBRANCH   1   7
BRANCH   3  19
ATOM     19  O   UNL     1       3.002   6.284  19.630  0.00  0.00    +0.000 OA
BRANCH  19  20
ATOM     20  C   UNL     1       2.271   5.127  19.463  0.00  0.00    +0.000 A 
ATOM     21  C   UNL     1       1.599   4.459  20.495  0.00  0.00    +0.000 A 
ATOM     22  C   UNL     1       0.942   3.257  20.238  0.00  0.00    +0.000 A 
ATOM     23  C   UNL     1       0.898   2.765  18.939  0.00  0.00    +0.000 A 
ATOM     24  F   UNL     1       0.266   1.611  18.693  0.00  0.00    +0.000 F 
ATOM     25  C   UNL     1       1.494   3.458  17.891  0.00  0.00    +0.000 A 
ATOM     26  C   UNL     1       2.184   4.643  18.154  0.00  0.00    +0.000 A 
ENDBRANCH  19  20
ENDBRANCH   3  19
TORSDOF 5
ENDMDL
MODEL 3
REMARK VINA RESULT:      -7.4      0.643      1.568
REMARK  Name = 
REMARK  5 active torsions:
REMARK  status: ('A' for Active; 'I' for Inactive)
REMARK    1  A    between atoms: S_2  and  C_3
REMARK    2  A    between atoms: S_2  and  C_18
REMARK    3  A    between atoms: C_3  and  C_4
REMARK    4  A    between atoms: C_6  and  O_7
REMARK    5  A    between atoms: O_7  and  C_8
REMARK                            x       y       z     vdW  Elec       q    Type
REMARK                         _______ _______ _______ _____ _____    ______ ____
ROOT
ATOM      1  C   UNL     1       0.681   9.621  19.791  0.00  0.00    +0.000 A 
ATOM      2  C   UNL     1       1.338   8.501  20.283  0.00  0.00    +0.000 A 
ATOM      3  C   UNL     1       2.180   7.787  19.431  0.00  0.00    +0.000 A 
ATOM      4  C   UNL     1       2.461   8.292  18.168  0.00  0.00    +0.000 A 
ATOM      5  C   UNL     1       1.835   9.463  17.787  0.00  0.00    +0.000 A 
ATOM      6  N   UNL     1       0.953  10.127  18.562  0.00  0.00    +0.000 NA
ENDROOT
BRANCH   1   7
ATOM      7  C   UNL     1      -0.340  10.357  20.616  0.00  0.00    +0.000 C 
BRANCH   7   9
ATOM      8  O   UNL     1      -0.827  13.006  21.405  0.00  0.00    +0.000 OA
ATOM      9  S   UNL     1      -0.694  12.070  20.151  0.00  0.00    +0.000 S 
BRANCH   9  10
ATOM     10  C   UNL     1      -2.289  11.950  19.456  0.00  0.00    +0.000 A 
ATOM     11  N   UNL     1      -2.562  11.426  18.239  0.00  0.00    +0.000 NA
ATOM     12  C   UNL     1      -3.909  11.612  18.150  0.00  0.00    +0.000 A 
ATOM     13  C   UNL     1      -4.854  11.322  17.223  0.00  0.00    +0.000 A 
ATOM     14  S   UNL     1      -6.387  11.914  17.818  0.00  0.00    +0.000 S 
ATOM     15  C   UNL     1      -5.704  12.523  19.301  0.00  0.00    +0.000 A 
ATOM     16  C   UNL     1      -4.392  12.247  19.263  0.00  0.00    +0.000 A 
ATOM     17  N   UNL     1      -3.397  12.492  20.154  0.00  0.00    +0.000 N 
ATOM     18  H   UNL     1      -3.419  12.939  21.058  0.00  0.00    +0.000 HD
ENDBRANCH   9  10
ENDBRANCH   7   9
ENDBRANCH   1   7
BRANCH   3  19
ATOM     19  O   UNL     1       2.802   6.606  19.768  0.00  0.00    +0.000 OA
BRANCH  19  20
ATOM     20  C   UNL     1       2.157   5.409  19.541  0.00  0.00    +0.000 A 
ATOM     21  C   UNL     1       1.470   4.682  20.521  0.00  0.00    +0.000 A 
ATOM     22  C   UNL     1       0.906   3.445  20.208  0.00  0.00    +0.000 A 
ATOM     23  C   UNL     1       0.970   2.976  18.902  0.00  0.00    +0.000 A 
ATOM     24  F   UNL     1       0.428   1.789  18.602  0.00  0.00    +0.000 F 
ATOM     25  C   UNL     1       1.582   3.723  17.901  0.00  0.00    +0.000 A 
ATOM     26  C   UNL     1       2.177   4.944  18.222  0.00  0.00    +0.000 A 
ENDBRANCH  19  20
ENDBRANCH   3  19
TORSDOF 5
ENDMDL
MODEL 4
REMARK VINA RESULT:      -7.3      2.325      2.677
REMARK  Name = 
REMARK  5 active torsions:
REMARK  status: ('A' for Active; 'I' for Inactive)
REMARK    1  A    between atoms: S_2  and  C_3
REMARK    2  A    between atoms: S_2  and  C_18
REMARK    3  A    between atoms: C_3  and  C_4
REMARK    4  A    between atoms: C_6  and  O_7
REMARK    5  A    between atoms: O_7  and  C_8
REMARK                            x       y       z     vdW  Elec       q    Type
REMARK                         _______ _______ _______ _____ _____    ______ ____
ROOT
ATOM      1  C   UNL     1       0.425   9.605  19.902  0.00  0.00    +0.000 A 
ATOM      2  C   UNL     1       1.148   8.511  20.358  0.00  0.00    +0.000 A 
ATOM      3  C   UNL     1       2.047   7.891  19.490  0.00  0.00    +0.000 A 
ATOM      4  C   UNL     1       2.311   8.466  18.254  0.00  0.00    +0.000 A 
ATOM      5  C   UNL     1       1.614   9.609  17.912  0.00  0.00    +0.000 A 
ATOM      6  N   UNL     1       0.680  10.180  18.700  0.00  0.00    +0.000 NA
ENDROOT
BRANCH   1   7
ATOM      7  C   UNL     1      -0.653  10.237  20.740  0.00  0.00    +0.000 C 
BRANCH   7   9
ATOM      8  O   UNL     1       0.087  10.032  23.440  0.00  0.00    +0.000 OA
ATOM      9  S   UNL     1      -0.133  11.055  22.268  0.00  0.00    +0.000 S 
BRANCH   9  10
ATOM     10  C   UNL     1      -1.542  11.992  22.693  0.00  0.00    +0.000 A 
ATOM     11  N   UNL     1      -2.582  11.529  23.424  0.00  0.00    +0.000 NA
ATOM     12  C   UNL     1      -3.421  12.603  23.426  0.00  0.00    +0.000 A 
ATOM     13  C   UNL     1      -4.635  12.865  23.969  0.00  0.00    +0.000 A 
ATOM     14  S   UNL     1      -5.095  14.484  23.495  0.00  0.00    +0.000 S 
ATOM     15  C   UNL     1      -3.632  14.755  22.588  0.00  0.00    +0.000 A 
ATOM     16  C   UNL     1      -2.898  13.637  22.698  0.00  0.00    +0.000 A 
ATOM     17  N   UNL     1      -1.678  13.312  22.197  0.00  0.00    +0.000 N 
ATOM     18  H   UNL     1      -1.039  13.844  21.625  0.00  0.00    +0.000 HD
ENDBRANCH   9  10
ENDBRANCH   7   9
ENDBRANCH   1   7
BRANCH   3  19
ATOM     19  O   UNL     1       2.740   6.739  19.787  0.00  0.00    +0.000 OA
BRANCH  19  20
ATOM     20  C   UNL     1       2.208   5.515  19.441  0.00  0.00    +0.000 A 
ATOM     21  C   UNL     1       2.303   4.944  18.165  0.00  0.00    +0.000 A 
ATOM     22  C   UNL     1       1.672   3.730  17.894  0.00  0.00    +0.000 A 
ATOM     23  C   UNL     1       1.011   3.060  18.916  0.00  0.00    +0.000 A 
ATOM     24  F   UNL     1       0.406   1.894  18.655  0.00  0.00    +0.000 F 
ATOM     25  C   UNL     1       0.974   3.578  20.206  0.00  0.00    +0.000 A 
ATOM     26  C   UNL     1       1.575   4.811  20.469  0.00  0.00    +0.000 A 
ENDBRANCH  19  20
ENDBRANCH   3  19
TORSDOF 5
ENDMDL
MODEL 5
REMARK VINA RESULT:      -7.2      2.069      2.407
REMARK  Name = 
REMARK  5 active torsions:
REMARK  status: ('A' for Active; 'I' for Inactive)
REMARK    1  A    between atoms: S_2  and  C_3
REMARK    2  A    between atoms: S_2  and  C_18
REMARK    3  A    between atoms: C_3  and  C_4
REMARK    4  A    between atoms: C_6  and  O_7
REMARK    5  A    between atoms: O_7  and  C_8
REMARK                            x       y       z     vdW  Elec       q    Type
REMARK                         _______ _______ _______ _____ _____    ______ ____
ROOT
ATOM      1  C   UNL     1       0.412   9.694  19.487  0.00  0.00    +0.000 A 
ATOM      2  C   UNL     1       1.035   8.617  20.105  0.00  0.00    +0.000 A 
ATOM      3  C   UNL     1       2.031   7.929  19.413  0.00  0.00    +0.000 A 
ATOM      4  C   UNL     1       2.482   8.421  18.196  0.00  0.00    +0.000 A 
ATOM      5  C   UNL     1       1.870   9.552  17.690  0.00  0.00    +0.000 A 
ATOM      6  N   UNL     1       0.848  10.187  18.301  0.00  0.00    +0.000 NA
ENDROOT
BRANCH   1   7
ATOM      7  C   UNL     1      -0.757  10.395  20.124  0.00  0.00    +0.000 C 
BRANCH   7   9
ATOM      8  O   UNL     1       0.740  12.044  21.832  0.00  0.00    +0.000 OA
ATOM      9  S   UNL     1      -0.454  12.042  20.809  0.00  0.00    +0.000 S 
BRANCH   9  10
ATOM     10  C   UNL     1      -1.899  12.334  21.742  0.00  0.00    +0.000 A 
ATOM     11  N   UNL     1      -1.986  12.207  23.087  0.00  0.00    +0.000 NA
ATOM     12  C   UNL     1      -3.301  12.487  23.308  0.00  0.00    +0.000 A 
ATOM     13  C   UNL     1      -4.089  12.563  24.408  0.00  0.00    +0.000 A 
ATOM     14  S   UNL     1      -5.710  12.946  23.880  0.00  0.00    +0.000 S 
ATOM     15  C   UNL     1      -5.270  12.999  22.196  0.00  0.00    +0.000 A 
ATOM     16  C   UNL     1      -3.956  12.737  22.132  0.00  0.00    +0.000 A 
ATOM     17  N   UNL     1      -3.106  12.659  21.076  0.00  0.00    +0.000 N 
ATOM     18  H   UNL     1      -3.271  12.786  20.088  0.00  0.00    +0.000 HD
ENDBRANCH   9  10
ENDBRANCH   7   9
ENDBRANCH   1   7
BRANCH   3  19
ATOM     19  O   UNL     1       2.646   6.787  19.874  0.00  0.00    +0.000 OA
BRANCH  19  20
ATOM     20  C   UNL     1       2.145   5.553  19.518  0.00  0.00    +0.000 A 
ATOM     21  C   UNL     1       2.195   5.023  18.222  0.00  0.00    +0.000 A 
ATOM     22  C   UNL     1       1.599   3.793  17.946  0.00  0.00    +0.000 A 
ATOM     23  C   UNL     1       1.019   3.067  18.980  0.00  0.00    +0.000 A 
ATOM     24  F   UNL     1       0.448   1.885  18.714  0.00  0.00    +0.000 F 
ATOM     25  C   UNL     1       1.031   3.545  20.285  0.00  0.00    +0.000 A 
ATOM     26  C   UNL     1       1.595   4.793  20.555  0.00  0.00    +0.000 A 
ENDBRANCH  19  20
ENDBRANCH   3  19
TORSDOF 5
ENDMDL
MODEL 6
REMARK VINA RESULT:      -7.2      7.142      9.500
REMARK  Name = 
REMARK  5 active torsions:
REMARK  status: ('A' for Active; 'I' for Inactive)
REMARK    1  A    between atoms: S_2  and  C_3
REMARK    2  A    between atoms: S_2  and  C_18
REMARK    3  A    between atoms: C_3  and  C_4
REMARK    4  A    between atoms: C_6  and  O_7
REMARK    5  A    between atoms: O_7  and  C_8
REMARK                            x       y       z     vdW  Elec       q    Type
REMARK                         _______ _______ _______ _____ _____    ______ ____
ROOT
ATOM      1  C   UNL     1       7.847   8.252  17.968  0.00  0.00    +0.000 A 
ATOM      2  C   UNL     1       6.834   7.768  17.151  0.00  0.00    +0.000 A 
ATOM      3  C   UNL     1       6.548   6.404  17.170  0.00  0.00    +0.000 A 
ATOM      4  C   UNL     1       7.169   5.589  18.108  0.00  0.00    +0.000 A 
ATOM      5  C   UNL     1       8.101   6.166  18.948  0.00  0.00    +0.000 A 
ATOM      6  N   UNL     1       8.455   7.467  18.893  0.00  0.00    +0.000 NA
ENDROOT
BRANCH   1   7
ATOM      7  C   UNL     1       8.293   9.687  17.899  0.00  0.00    +0.000 C 
BRANCH   7   9
ATOM      8  O   UNL     1       9.020  10.494  20.487  0.00  0.00    +0.000 OA
ATOM      9  S   UNL     1       9.589  10.202  19.052  0.00  0.00    +0.000 S 
BRANCH   9  10
ATOM     10  C   UNL     1      10.085  11.741  18.398  0.00  0.00    +0.000 A 
ATOM     11  N   UNL     1      11.275  11.976  17.799  0.00  0.00    +0.000 NA
ATOM     12  C   UNL     1      11.192  13.307  17.524  0.00  0.00    +0.000 A 
ATOM     13  C   UNL     1      12.004  14.211  16.924  0.00  0.00    +0.000 A 
ATOM     14  S   UNL     1      11.207  15.766  16.979  0.00  0.00    +0.000 S 
ATOM     15  C   UNL     1       9.802  15.143  17.799  0.00  0.00    +0.000 A 
ATOM     16  C   UNL     1      10.010  13.830  17.976  0.00  0.00    +0.000 A 
ATOM     17  N   UNL     1       9.241  12.869  18.550  0.00  0.00    +0.000 N 
ATOM     18  H   UNL     1       8.327  12.924  18.975  0.00  0.00    +0.000 HD
ENDBRANCH   9  10
ENDBRANCH   7   9
ENDBRANCH   1   7
BRANCH   3  19
ATOM     19  O   UNL     1       5.644   5.790  16.333  0.00  0.00    +0.000 OA
BRANCH  19  20
ATOM     20  C   UNL     1       4.501   5.228  16.860  0.00  0.00    +0.000 A 
ATOM     21  C   UNL     1       4.176   3.868  16.777  0.00  0.00    +0.000 A 
ATOM     22  C   UNL     1       2.962   3.406  17.284  0.00  0.00    +0.000 A 
ATOM     23  C   UNL     1       2.111   4.292  17.933  0.00  0.00    +0.000 A 
ATOM     24  F   UNL     1       0.945   3.848  18.420  0.00  0.00    +0.000 F 
ATOM     25  C   UNL     1       2.455   5.630  18.092  0.00  0.00    +0.000 A 
ATOM     26  C   UNL     1       3.654   6.100  17.553  0.00  0.00    +0.000 A 
ENDBRANCH  19  20
ENDBRANCH   3  19
TORSDOF 5
ENDMDL
MODEL 7
REMARK VINA RESULT:      -7.1      5.072      8.882
REMARK  Name = 
REMARK  5 active torsions:
REMARK  status: ('A' for Active; 'I' for Inactive)
REMARK    1  A    between atoms: S_2  and  C_3
REMARK    2  A    between atoms: S_2  and  C_18
REMARK    3  A    between atoms: C_3  and  C_4
REMARK    4  A    between atoms: C_6  and  O_7
REMARK    5  A    between atoms: O_7  and  C_8
REMARK                            x       y       z     vdW  Elec       q    Type
REMARK                         _______ _______ _______ _____ _____    ______ ____
ROOT
ATOM      1  C   UNL     1       2.069   4.953  18.613  0.00  0.00    +0.000 A 
ATOM      2  C   UNL     1       2.302   6.273  18.250  0.00  0.00    +0.000 A 
ATOM      3  C   UNL     1       2.129   7.274  19.206  0.00  0.00    +0.000 A 
ATOM      4  C   UNL     1       1.880   6.922  20.526  0.00  0.00    +0.000 A 
ATOM      5  C   UNL     1       1.752   5.579  20.822  0.00  0.00    +0.000 A 
ATOM      6  N   UNL     1       1.832   4.597  19.900  0.00  0.00    +0.000 NA
ENDROOT
BRANCH   1   7
ATOM      7  C   UNL     1       2.110   3.842  17.599  0.00  0.00    +0.000 C 
BRANCH   7   9
ATOM      8  O   UNL     1       3.546   1.786  18.859  0.00  0.00    +0.000 OA
ATOM      9  S   UNL     1       3.559   2.758  17.625  0.00  0.00    +0.000 S 
BRANCH   9  10
ATOM     10  C   UNL     1       4.865   3.881  17.899  0.00  0.00    +0.000 A 
ATOM     11  N   UNL     1       5.500   4.050  19.081  0.00  0.00    +0.000 NA
ATOM     12  C   UNL     1       6.376   5.051  18.787  0.00  0.00    +0.000 A 
ATOM     13  C   UNL     1       7.332   5.718  19.479  0.00  0.00    +0.000 A 
ATOM     14  S   UNL     1       8.027   6.916  18.413  0.00  0.00    +0.000 S 
ATOM     15  C   UNL     1       7.013   6.471  17.068  0.00  0.00    +0.000 A 
ATOM     16  C   UNL     1       6.232   5.466  17.490  0.00  0.00    +0.000 A 
ATOM     17  N   UNL     1       5.272   4.747  16.853  0.00  0.00    +0.000 N 
ATOM     18  H   UNL     1       4.927   4.804  15.907  0.00  0.00    +0.000 HD
ENDBRANCH   9  10
ENDBRANCH   7   9
ENDBRANCH   1   7
BRANCH   3  19
ATOM     19  O   UNL     1       2.226   8.622  18.942  0.00  0.00    +0.000 OA
BRANCH  19  20
ATOM     20  C   UNL     1       1.109   9.421  19.062  0.00  0.00    +0.000 A 
ATOM     21  C   UNL     1       0.797  10.180  20.197  0.00  0.00    +0.000 A 
ATOM     22  C   UNL     1      -0.393  10.904  20.250  0.00  0.00    +0.000 A 
ATOM     23  C   UNL     1      -1.231  10.923  19.141  0.00  0.00    +0.000 A 
ATOM     24  F   UNL     1      -2.373  11.620  19.192  0.00  0.00    +0.000 F 
ATOM     25  C   UNL     1      -0.897  10.237  17.979  0.00  0.00    +0.000 A 
ATOM     26  C   UNL     1       0.277   9.482  17.940  0.00  0.00    +0.000 A 
ENDBRANCH  19  20
ENDBRANCH   3  19
TORSDOF 5
ENDMDL
MODEL 8
REMARK VINA RESULT:      -7.1      2.219      2.746
REMARK  Name = 
REMARK  5 active torsions:
REMARK  status: ('A' for Active; 'I' for Inactive)
REMARK    1  A    between atoms: S_2  and  C_3
REMARK    2  A    between atoms: S_2  and  C_18
REMARK    3  A    between atoms: C_3  and  C_4
REMARK    4  A    between atoms: C_6  and  O_7
REMARK    5  A    between atoms: O_7  and  C_8
REMARK                            x       y       z     vdW  Elec       q    Type
REMARK                         _______ _______ _______ _____ _____    ______ ____
ROOT
ATOM      1  C   UNL     1       0.591   9.594  19.776  0.00  0.00    +0.000 A 
ATOM      2  C   UNL     1       1.283   8.485  20.245  0.00  0.00    +0.000 A 
ATOM      3  C   UNL     1       2.152   7.820  19.382  0.00  0.00    +0.000 A 
ATOM      4  C   UNL     1       2.423   8.364  18.133  0.00  0.00    +0.000 A 
ATOM      5  C   UNL     1       1.761   9.522  17.776  0.00  0.00    +0.000 A 
ATOM      6  N   UNL     1       0.853  10.138  18.561  0.00  0.00    +0.000 NA
ENDROOT
BRANCH   1   7
ATOM      7  C   UNL     1      -0.458  10.276  20.612  0.00  0.00    +0.000 C 
BRANCH   7   9
ATOM      8  O   UNL     1       0.088  10.061  23.356  0.00  0.00    +0.000 OA
ATOM      9  S   UNL     1       0.095  11.062  22.145  0.00  0.00    +0.000 S 
BRANCH   9  10
ATOM     10  C   UNL     1      -1.174  12.217  22.456  0.00  0.00    +0.000 A 
ATOM     11  N   UNL     1      -1.188  13.086  23.493  0.00  0.00    +0.000 NA
ATOM     12  C   UNL     1      -2.386  13.710  23.319  0.00  0.00    +0.000 A 
ATOM     13  C   UNL     1      -3.053  14.695  23.968  0.00  0.00    +0.000 A 
ATOM     14  S   UNL     1      -4.582  14.932  23.155  0.00  0.00    +0.000 S 
ATOM     15  C   UNL     1      -4.267  13.701  21.963  0.00  0.00    +0.000 A 
ATOM     16  C   UNL     1      -3.054  13.200  22.238  0.00  0.00    +0.000 A 
ATOM     17  N   UNL     1      -2.324  12.231  21.628  0.00  0.00    +0.000 N 
ATOM     18  H   UNL     1      -2.529  11.664  20.818  0.00  0.00    +0.000 HD
ENDBRANCH   9  10
ENDBRANCH   7   9
ENDBRANCH   1   7
BRANCH   3  19
ATOM     19  O   UNL     1       2.811   6.652  19.695  0.00  0.00    +0.000 OA
BRANCH  19  20
ATOM     20  C   UNL     1       2.181   5.442  19.498  0.00  0.00    +0.000 A 
ATOM     21  C   UNL     1       1.490   4.738  20.492  0.00  0.00    +0.000 A 
ATOM     22  C   UNL     1       0.943   3.487  20.212  0.00  0.00    +0.000 A 
ATOM     23  C   UNL     1       1.027   2.977  18.922  0.00  0.00    +0.000 A 
ATOM     24  F   UNL     1       0.500   1.776  18.653  0.00  0.00    +0.000 F 
ATOM     25  C   UNL     1       1.643   3.699  17.906  0.00  0.00    +0.000 A 
ATOM     26  C   UNL     1       2.222   4.936  18.195  0.00  0.00    +0.000 A 
ENDBRANCH  19  20
ENDBRANCH   3  19
TORSDOF 5
ENDMDL
MODEL 9
REMARK VINA RESULT:      -7.1      7.117      9.414
REMARK  Name = 
REMARK  5 active torsions:
REMARK  status: ('A' for Active; 'I' for Inactive)
REMARK    1  A    between atoms: S_2  and  C_3
REMARK    2  A    between atoms: S_2  and  C_18
REMARK    3  A    between atoms: C_3  and  C_4
REMARK    4  A    between atoms: C_6  and  O_7
REMARK    5  A    between atoms: O_7  and  C_8
REMARK                            x       y       z     vdW  Elec       q    Type
REMARK                         _______ _______ _______ _____ _____    ______ ____
ROOT
ATOM      1  C   UNL     1       7.923   8.247  18.019  0.00  0.00    +0.000 A 
ATOM      2  C   UNL     1       6.910   7.750  17.208  0.00  0.00    +0.000 A 
ATOM      3  C   UNL     1       6.617   6.388  17.258  0.00  0.00    +0.000 A 
ATOM      4  C   UNL     1       7.229   5.592  18.217  0.00  0.00    +0.000 A 
ATOM      5  C   UNL     1       8.161   6.183  19.048  0.00  0.00    +0.000 A 
ATOM      6  N   UNL     1       8.523   7.480  18.964  0.00  0.00    +0.000 NA
ENDROOT
BRANCH   1   7
ATOM      7  C   UNL     1       8.377   9.677  17.918  0.00  0.00    +0.000 C 
BRANCH   7   9
ATOM      8  O   UNL     1       8.923  10.426  20.567  0.00  0.00    +0.000 OA
ATOM      9  S   UNL     1       9.574  10.248  19.149  0.00  0.00    +0.000 S 
BRANCH   9  10
ATOM     10  C   UNL     1       9.961  11.853  18.583  0.00  0.00    +0.000 A 
ATOM     11  N   UNL     1       9.178  12.942  18.762  0.00  0.00    +0.000 NA
ATOM     12  C   UNL     1       9.884  13.904  18.105  0.00  0.00    +0.000 A 
ATOM     13  C   UNL     1       9.713  15.230  17.883  0.00  0.00    +0.000 A 
ATOM     14  S   UNL     1      11.050  15.786  16.903  0.00  0.00    +0.000 S 
ATOM     15  C   UNL     1      11.798  14.214  16.833  0.00  0.00    +0.000 A 
ATOM     16  C   UNL     1      11.017  13.384  17.540  0.00  0.00    +0.000 A 
ATOM     17  N   UNL     1      11.133  12.058  17.814  0.00  0.00    +0.000 N 
ATOM     18  H   UNL     1      11.842  11.391  17.548  0.00  0.00    +0.000 HD
ENDBRANCH   9  10
ENDBRANCH   7   9
ENDBRANCH   1   7
BRANCH   3  19
ATOM     19  O   UNL     1       5.713   5.759  16.431  0.00  0.00    +0.000 OA
BRANCH  19  20
ATOM     20  C   UNL     1       4.501   5.342  16.940  0.00  0.00    +0.000 A 
ATOM     21  C   UNL     1       3.599   6.172  17.618  0.00  0.00    +0.000 A 
ATOM     22  C   UNL     1       2.428   5.639  18.156  0.00  0.00    +0.000 A 
ATOM     23  C   UNL     1       2.130   4.298  17.952  0.00  0.00    +0.000 A 
ATOM     24  F   UNL     1       1.005   3.787  18.468  0.00  0.00    +0.000 F 
ATOM     25  C   UNL     1       2.979   3.479  17.215  0.00  0.00    +0.000 A 
ATOM     26  C   UNL     1       4.169   4.003  16.707  0.00  0.00    +0.000 A 
ENDBRANCH  19  20
ENDBRANCH   3  19
TORSDOF 5
ENDMDL
