MODEL 1
REMARK VINA RESULT:      -7.9      0.000      0.000
REMARK  Name = 
REMARK  3 active torsions:
REMARK  status: ('A' for Active; 'I' for Inactive)
REMARK    1  A    between atoms: C_8  and  C_9
REMARK    2  A    between atoms: N_15  and  C_16
REMARK    3  A    between atoms: C_16  and  C_17
REMARK                            x       y       z     vdW  Elec       q    Type
REMARK                         _______ _______ _______ _____ _____    ______ ____
ROOT
ATOM      1  O   UNL     1       2.008   2.292  17.233  0.00  0.00    +0.000 OA
ATOM      2  S   UNL     1       1.849   3.541  17.946  0.00  0.00    +0.000 S 
ATOM      3  O   UNL     1       1.228   4.653  17.258  0.00  0.00    +0.000 OA
ATOM      4  C   UNL     1       0.855   3.167  19.382  0.00  0.00    +0.000 C 
ATOM      5  C   UNL     1       1.254   3.759  20.701  0.00  0.00    +0.000 C 
ATOM      6  O   UNL     1       2.572   3.394  21.058  0.00  0.00    +0.000 OA
ATOM      7  C   UNL     1       3.569   4.398  20.836  0.00  0.00    +0.000 C 
ATOM      8  C   UNL     1       3.588   5.099  19.437  0.00  0.00    +0.000 C 
ATOM      9  N   UNL     1       3.392   4.022  18.403  0.00  0.00    +0.000 NA
ENDROOT
BRANCH   8  10
ATOM     10  C   UNL     1       2.790   6.402  19.290  0.00  0.00    +0.000 A 
ATOM     11  C   UNL     1       2.057   6.968  20.353  0.00  0.00    +0.000 A 
ATOM     12  C   UNL     1       1.328   8.149  20.202  0.00  0.00    +0.000 A 
ATOM     13  C   UNL     1       1.343   8.833  18.995  0.00  0.00    +0.000 A 
ATOM     14  C   UNL     1       2.113   8.342  17.948  0.00  0.00    +0.000 A 
ATOM     15  C   UNL     1       2.838   7.155  18.102  0.00  0.00    +0.000 A 
ENDBRANCH   8  10
BRANCH   9  16
ATOM     16  C   UNL     1       4.369   4.058  17.263  0.00  0.00    +0.000 C 
BRANCH  16  17
ATOM     17  C   UNL     1       5.544   4.993  17.472  0.00  0.00    +0.000 A 
ATOM     18  C   UNL     1       5.665   6.185  16.733  0.00  0.00    +0.000 A 
ATOM     19  C   UNL     1       6.700   7.088  16.998  0.00  0.00    +0.000 A 
ATOM     20  C   UNL     1       7.626   6.808  18.001  0.00  0.00    +0.000 A 
ATOM     21  C   UNL     1       7.539   5.605  18.693  0.00  0.00    +0.000 A 
ATOM     22  F   UNL     1       8.435   5.335  19.651  0.00  0.00    +0.000 F 
ATOM     23  C   UNL     1       6.525   4.691  18.425  0.00  0.00    +0.000 A 
ENDBRANCH  16  17
ENDBRANCH   9  16
TORSDOF 3
ENDMDL
MODEL 2
REMARK VINA RESULT:      -7.9      3.515      6.356
REMARK  Name = 
REMARK  3 active torsions:
REMARK  status: ('A' for Active; 'I' for Inactive)
REMARK    1  A    between atoms: C_8  and  C_9
REMARK    2  A    between atoms: N_15  and  C_16
REMARK    3  A    between atoms: C_16  and  C_17
REMARK                            x       y       z     vdW  Elec       q    Type
REMARK                         _______ _______ _______ _____ _____    ______ ____
ROOT
ATOM      1  O   UNL     1       3.909   7.134  17.615  0.00  0.00    +0.000 OA
ATOM      2  S   UNL     1       4.933   6.668  16.705  0.00  0.00    +0.000 S 
ATOM      3  O   UNL     1       4.729   6.852  15.285  0.00  0.00    +0.000 OA
ATOM      4  C   UNL     1       6.427   7.535  17.157  0.00  0.00    +0.000 C 
ATOM      5  C   UNL     1       7.711   6.762  17.222  0.00  0.00    +0.000 C 
ATOM      6  O   UNL     1       7.622   5.680  18.128  0.00  0.00    +0.000 OA
ATOM      7  C   UNL     1       7.422   4.394  17.533  0.00  0.00    +0.000 C 
ATOM      8  C   UNL     1       6.288   4.264  16.460  0.00  0.00    +0.000 C 
ATOM      9  N   UNL     1       5.097   5.020  16.987  0.00  0.00    +0.000 NA
ENDROOT
BRANCH   8  10
ATOM     10  C   UNL     1       6.682   4.460  14.990  0.00  0.00    +0.000 A 
ATOM     11  C   UNL     1       7.768   5.268  14.596  0.00  0.00    +0.000 A 
ATOM     12  C   UNL     1       8.109   5.446  13.254  0.00  0.00    +0.000 A 
ATOM     13  C   UNL     1       7.406   4.784  12.258  0.00  0.00    +0.000 A 
ATOM     14  C   UNL     1       6.376   3.922  12.616  0.00  0.00    +0.000 A 
ATOM     15  C   UNL     1       6.033   3.751  13.961  0.00  0.00    +0.000 A 
ENDBRANCH   8  10
BRANCH   9  16
ATOM     16  C   UNL     1       3.797   4.270  16.923  0.00  0.00    +0.000 C 
BRANCH  16  17
ATOM     17  C   UNL     1       3.284   3.787  18.266  0.00  0.00    +0.000 A 
ATOM     18  C   UNL     1       4.062   2.942  19.079  0.00  0.00    +0.000 A 
ATOM     19  C   UNL     1       3.624   2.577  20.357  0.00  0.00    +0.000 A 
ATOM     20  C   UNL     1       2.403   3.049  20.832  0.00  0.00    +0.000 A 
ATOM     21  C   UNL     1       1.609   3.839  20.008  0.00  0.00    +0.000 A 
ATOM     22  F   UNL     1       0.432   4.284  20.464  0.00  0.00    +0.000 F 
ATOM     23  C   UNL     1       2.026   4.192  18.728  0.00  0.00    +0.000 A 
ENDBRANCH  16  17
ENDBRANCH   9  16
TORSDOF 3
ENDMDL
MODEL 3
REMARK VINA RESULT:      -7.8      3.271      6.193
REMARK  Name = 
REMARK  3 active torsions:
REMARK  status: ('A' for Active; 'I' for Inactive)
REMARK    1  A    between atoms: C_8  and  C_9
REMARK    2  A    between atoms: N_15  and  C_16
REMARK    3  A    between atoms: C_16  and  C_17
REMARK                            x       y       z     vdW  Elec       q    Type
REMARK                         _______ _______ _______ _____ _____    ______ ____
ROOT
ATOM      1  O   UNL     1       3.885   7.160  17.618  0.00  0.00    +0.000 OA
ATOM      2  S   UNL     1       4.908   6.677  16.716  0.00  0.00    +0.000 S 
ATOM      3  O   UNL     1       4.725   6.878  15.296  0.00  0.00    +0.000 OA
ATOM      4  C   UNL     1       6.416   7.506  17.192  0.00  0.00    +0.000 C 
ATOM      5  C   UNL     1       7.681   6.703  17.265  0.00  0.00    +0.000 C 
ATOM      6  O   UNL     1       7.557   5.617  18.161  0.00  0.00    +0.000 OA
ATOM      7  C   UNL     1       7.334   4.340  17.553  0.00  0.00    +0.000 C 
ATOM      8  C   UNL     1       6.210   4.245  16.467  0.00  0.00    +0.000 C 
ATOM      9  N   UNL     1       5.031   5.024  16.986  0.00  0.00    +0.000 NA
ENDROOT
BRANCH   8  10
ATOM     10  C   UNL     1       6.625   4.443  15.003  0.00  0.00    +0.000 A 
ATOM     11  C   UNL     1       7.726   5.240  14.627  0.00  0.00    +0.000 A 
ATOM     12  C   UNL     1       8.087   5.420  13.291  0.00  0.00    +0.000 A 
ATOM     13  C   UNL     1       7.388   4.771  12.283  0.00  0.00    +0.000 A 
ATOM     14  C   UNL     1       6.343   3.921  12.622  0.00  0.00    +0.000 A 
ATOM     15  C   UNL     1       5.981   3.748  13.963  0.00  0.00    +0.000 A 
ENDBRANCH   8  10
BRANCH   9  16
ATOM     16  C   UNL     1       3.714   4.306  16.901  0.00  0.00    +0.000 C 
BRANCH  16  17
ATOM     17  C   UNL     1       3.099   3.962  18.245  0.00  0.00    +0.000 A 
ATOM     18  C   UNL     1       1.773   4.319  18.550  0.00  0.00    +0.000 A 
ATOM     19  C   UNL     1       1.182   3.917  19.752  0.00  0.00    +0.000 A 
ATOM     20  C   UNL     1       1.912   3.156  20.662  0.00  0.00    +0.000 A 
ATOM     21  C   UNL     1       3.240   2.849  20.386  0.00  0.00    +0.000 A 
ATOM     22  F   UNL     1       3.941   2.125  21.267  0.00  0.00    +0.000 F 
ATOM     23  C   UNL     1       3.843   3.261  19.202  0.00  0.00    +0.000 A 
ENDBRANCH  16  17
ENDBRANCH   9  16
TORSDOF 3
ENDMDL
MODEL 4
REMARK VINA RESULT:      -7.6      3.193      6.125
REMARK  Name = 
REMARK  3 active torsions:
REMARK  status: ('A' for Active; 'I' for Inactive)
REMARK    1  A    between atoms: C_8  and  C_9
REMARK    2  A    between atoms: N_15  and  C_16
REMARK    3  A    between atoms: C_16  and  C_17
REMARK                            x       y       z     vdW  Elec       q    Type
REMARK                         _______ _______ _______ _____ _____    ______ ____
ROOT
ATOM      1  O   UNL     1       3.808   7.225  17.669  0.00  0.00    +0.000 OA
ATOM      2  S   UNL     1       4.814   6.681  16.783  0.00  0.00    +0.000 S 
ATOM      3  O   UNL     1       4.622   6.819  15.356  0.00  0.00    +0.000 OA
ATOM      4  C   UNL     1       6.342   7.503  17.207  0.00  0.00    +0.000 C 
ATOM      5  C   UNL     1       7.592   6.680  17.308  0.00  0.00    +0.000 C 
ATOM      6  O   UNL     1       7.455   5.640  18.256  0.00  0.00    +0.000 OA
ATOM      7  C   UNL     1       7.203   4.341  17.710  0.00  0.00    +0.000 C 
ATOM      8  C   UNL     1       6.069   4.215  16.639  0.00  0.00    +0.000 C 
ATOM      9  N   UNL     1       4.909   5.040  17.129  0.00  0.00    +0.000 NA
ENDROOT
BRANCH   8  10
ATOM     10  C   UNL     1       6.475   4.337  15.164  0.00  0.00    +0.000 A 
ATOM     11  C   UNL     1       5.745   3.730  14.122  0.00  0.00    +0.000 A 
ATOM     12  C   UNL     1       6.131   3.841  12.785  0.00  0.00    +0.000 A 
ATOM     13  C   UNL     1       7.236   4.605  12.436  0.00  0.00    +0.000 A 
ATOM     14  C   UNL     1       7.936   5.277  13.430  0.00  0.00    +0.000 A 
ATOM     15  C   UNL     1       7.549   5.158  14.769  0.00  0.00    +0.000 A 
ENDBRANCH   8  10
BRANCH   9  16
ATOM     16  C   UNL     1       3.578   4.344  17.088  0.00  0.00    +0.000 C 
BRANCH  16  17
ATOM     17  C   UNL     1       3.014   3.989  18.451  0.00  0.00    +0.000 A 
ATOM     18  C   UNL     1       1.719   4.390  18.828  0.00  0.00    +0.000 A 
ATOM     19  C   UNL     1       1.169   3.979  20.047  0.00  0.00    +0.000 A 
ATOM     20  C   UNL     1       1.910   3.167  20.902  0.00  0.00    +0.000 A 
ATOM     21  C   UNL     1       3.209   2.815  20.555  0.00  0.00    +0.000 A 
ATOM     22  F   UNL     1       3.921   2.041  21.383  0.00  0.00    +0.000 F 
ATOM     23  C   UNL     1       3.773   3.234  19.354  0.00  0.00    +0.000 A 
ENDBRANCH  16  17
ENDBRANCH   9  16
TORSDOF 3
ENDMDL
MODEL 5
REMARK VINA RESULT:      -7.5      3.902      5.145
REMARK  Name = 
REMARK  3 active torsions:
REMARK  status: ('A' for Active; 'I' for Inactive)
REMARK    1  A    between atoms: C_8  and  C_9
REMARK    2  A    between atoms: N_15  and  C_16
REMARK    3  A    between atoms: C_16  and  C_17
REMARK                            x       y       z     vdW  Elec       q    Type
REMARK                         _______ _______ _______ _____ _____    ______ ____
ROOT
ATOM      1  O   UNL     1       8.205   4.144  17.231  0.00  0.00    +0.000 OA
ATOM      2  S   UNL     1       6.962   4.686  17.734  0.00  0.00    +0.000 S 
ATOM      3  O   UNL     1       6.212   3.910  18.697  0.00  0.00    +0.000 OA
ATOM      4  C   UNL     1       7.377   6.246  18.498  0.00  0.00    +0.000 C 
ATOM      5  C   UNL     1       6.488   7.427  18.242  0.00  0.00    +0.000 C 
ATOM      6  O   UNL     1       6.382   7.708  16.861  0.00  0.00    +0.000 OA
ATOM      7  C   UNL     1       5.178   7.257  16.232  0.00  0.00    +0.000 C 
ATOM      8  C   UNL     1       4.738   5.778  16.493  0.00  0.00    +0.000 C 
ATOM      9  N   UNL     1       5.977   4.928  16.395  0.00  0.00    +0.000 NA
ENDROOT
BRANCH   8  10
ATOM     10  C   UNL     1       3.773   5.523  17.659  0.00  0.00    +0.000 A 
ATOM     11  C   UNL     1       3.417   6.527  18.584  0.00  0.00    +0.000 A 
ATOM     12  C   UNL     1       2.546   6.279  19.646  0.00  0.00    +0.000 A 
ATOM     13  C   UNL     1       1.960   5.031  19.795  0.00  0.00    +0.000 A 
ATOM     14  C   UNL     1       2.232   4.039  18.861  0.00  0.00    +0.000 A 
ATOM     15  C   UNL     1       3.110   4.290  17.801  0.00  0.00    +0.000 A 
ENDBRANCH   8  10
BRANCH   9  16
ATOM     16  C   UNL     1       5.837   3.708  15.529  0.00  0.00    +0.000 C 
BRANCH  16  17
ATOM     17  C   UNL     1       6.355   3.880  14.114  0.00  0.00    +0.000 A 
ATOM     18  C   UNL     1       5.920   3.039  13.073  0.00  0.00    +0.000 A 
ATOM     19  C   UNL     1       6.329   3.263  11.754  0.00  0.00    +0.000 A 
ATOM     20  C   UNL     1       7.179   4.327  11.463  0.00  0.00    +0.000 A 
ATOM     21  C   UNL     1       7.653   5.125  12.498  0.00  0.00    +0.000 A 
ATOM     22  F   UNL     1       8.477   6.142  12.216  0.00  0.00    +0.000 F 
ATOM     23  C   UNL     1       7.268   4.900  13.816  0.00  0.00    +0.000 A 
ENDBRANCH  16  17
ENDBRANCH   9  16
TORSDOF 3
ENDMDL
MODEL 6
REMARK VINA RESULT:      -7.5      2.346      5.178
REMARK  Name = 
REMARK  3 active torsions:
REMARK  status: ('A' for Active; 'I' for Inactive)
REMARK    1  A    between atoms: C_8  and  C_9
REMARK    2  A    between atoms: N_15  and  C_16
REMARK    3  A    between atoms: C_16  and  C_17
REMARK                            x       y       z     vdW  Elec       q    Type
REMARK                         _______ _______ _______ _____ _____    ______ ____
ROOT
ATOM      1  O   UNL     1       3.190   3.012  21.191  0.00  0.00    +0.000 OA
ATOM      2  S   UNL     1       3.707   3.226  19.857  0.00  0.00    +0.000 S 
ATOM      3  O   UNL     1       5.139   3.325  19.681  0.00  0.00    +0.000 OA
ATOM      4  C   UNL     1       3.133   1.847  18.878  0.00  0.00    +0.000 C 
ATOM      5  C   UNL     1       2.599   2.119  17.503  0.00  0.00    +0.000 C 
ATOM      6  O   UNL     1       1.515   3.026  17.536  0.00  0.00    +0.000 OA
ATOM      7  C   UNL     1       1.830   4.374  17.173  0.00  0.00    +0.000 C 
ATOM      8  C   UNL     1       3.075   5.033  17.854  0.00  0.00    +0.000 C 
ATOM      9  N   UNL     1       3.025   4.662  19.313  0.00  0.00    +0.000 NA
ENDROOT
BRANCH   8  10
ATOM     10  C   UNL     1       4.420   4.925  17.122  0.00  0.00    +0.000 A 
ATOM     11  C   UNL     1       4.657   3.978  16.105  0.00  0.00    +0.000 A 
ATOM     12  C   UNL     1       5.889   3.885  15.454  0.00  0.00    +0.000 A 
ATOM     13  C   UNL     1       6.914   4.767  15.764  0.00  0.00    +0.000 A 
ATOM     14  C   UNL     1       6.691   5.759  16.710  0.00  0.00    +0.000 A 
ATOM     15  C   UNL     1       5.457   5.846  17.364  0.00  0.00    +0.000 A 
ENDBRANCH   8  10
BRANCH   9  16
ATOM     16  C   UNL     1       3.215   5.810  20.263  0.00  0.00    +0.000 C 
BRANCH  16  17
ATOM     17  C   UNL     1       2.352   7.021  19.963  0.00  0.00    +0.000 A 
ATOM     18  C   UNL     1       1.455   7.529  20.920  0.00  0.00    +0.000 A 
ATOM     19  C   UNL     1       0.732   8.701  20.672  0.00  0.00    +0.000 A 
ATOM     20  C   UNL     1       0.897   9.374  19.464  0.00  0.00    +0.000 A 
ATOM     21  C   UNL     1       1.742   8.843  18.496  0.00  0.00    +0.000 A 
ATOM     22  F   UNL     1       1.892   9.488  17.332  0.00  0.00    +0.000 F 
ATOM     23  C   UNL     1       2.450   7.668  18.724  0.00  0.00    +0.000 A 
ENDBRANCH  16  17
ENDBRANCH   9  16
TORSDOF 3
ENDMDL
MODEL 7
REMARK VINA RESULT:      -7.4      0.969      1.392
REMARK  Name = 
REMARK  3 active torsions:
REMARK  status: ('A' for Active; 'I' for Inactive)
REMARK    1  A    between atoms: C_8  and  C_9
REMARK    2  A    between atoms: N_15  and  C_16
REMARK    3  A    between atoms: C_16  and  C_17
REMARK                            x       y       z     vdW  Elec       q    Type
REMARK                         _______ _______ _______ _____ _____    ______ ____
ROOT
ATOM      1  O   UNL     1       2.171   2.656  17.092  0.00  0.00    +0.000 OA
ATOM      2  S   UNL     1       1.910   3.849  17.868  0.00  0.00    +0.000 S 
ATOM      3  O   UNL     1       1.321   4.989  17.200  0.00  0.00    +0.000 OA
ATOM      4  C   UNL     1       0.802   3.354  19.178  0.00  0.00    +0.000 C 
ATOM      5  C   UNL     1       1.061   3.864  20.564  0.00  0.00    +0.000 C 
ATOM      6  O   UNL     1       2.353   3.508  21.017  0.00  0.00    +0.000 OA
ATOM      7  C   UNL     1       3.334   4.548  20.955  0.00  0.00    +0.000 C 
ATOM      8  C   UNL     1       3.458   5.344  19.612  0.00  0.00    +0.000 C 
ATOM      9  N   UNL     1       3.390   4.335  18.496  0.00  0.00    +0.000 NA
ENDROOT
BRANCH   8  10
ATOM     10  C   UNL     1       2.637   6.634  19.477  0.00  0.00    +0.000 A 
ATOM     11  C   UNL     1       1.859   7.152  20.532  0.00  0.00    +0.000 A 
ATOM     12  C   UNL     1       1.109   8.322  20.393  0.00  0.00    +0.000 A 
ATOM     13  C   UNL     1       1.148   9.042  19.208  0.00  0.00    +0.000 A 
ATOM     14  C   UNL     1       1.961   8.599  18.172  0.00  0.00    +0.000 A 
ATOM     15  C   UNL     1       2.707   7.423  18.314  0.00  0.00    +0.000 A 
ENDBRANCH   8  10
BRANCH   9  16
ATOM     16  C   UNL     1       4.464   4.473  17.455  0.00  0.00    +0.000 C 
BRANCH  16  17
ATOM     17  C   UNL     1       5.663   5.293  17.895  0.00  0.00    +0.000 A 
ATOM     18  C   UNL     1       6.512   4.844  18.924  0.00  0.00    +0.000 A 
ATOM     19  C   UNL     1       7.667   5.559  19.259  0.00  0.00    +0.000 A 
ATOM     20  C   UNL     1       7.983   6.729  18.572  0.00  0.00    +0.000 A 
ATOM     21  C   UNL     1       7.116   7.201  17.593  0.00  0.00    +0.000 A 
ATOM     22  F   UNL     1       7.418   8.330  16.941  0.00  0.00    +0.000 F 
ATOM     23  C   UNL     1       5.954   6.509  17.265  0.00  0.00    +0.000 A 
ENDBRANCH  16  17
ENDBRANCH   9  16
TORSDOF 3
ENDMDL
MODEL 8
REMARK VINA RESULT:      -7.4      2.309      5.122
REMARK  Name = 
REMARK  3 active torsions:
REMARK  status: ('A' for Active; 'I' for Inactive)
REMARK    1  A    between atoms: C_8  and  C_9
REMARK    2  A    between atoms: N_15  and  C_16
REMARK    3  A    between atoms: C_16  and  C_17
REMARK                            x       y       z     vdW  Elec       q    Type
REMARK                         _______ _______ _______ _____ _____    ______ ____
ROOT
ATOM      1  O   UNL     1       2.961   2.973  21.270  0.00  0.00    +0.000 OA
ATOM      2  S   UNL     1       3.530   3.198  19.959  0.00  0.00    +0.000 S 
ATOM      3  O   UNL     1       4.969   3.278  19.838  0.00  0.00    +0.000 OA
ATOM      4  C   UNL     1       2.974   1.841  18.940  0.00  0.00    +0.000 C 
ATOM      5  C   UNL     1       2.495   2.141  17.550  0.00  0.00    +0.000 C 
ATOM      6  O   UNL     1       1.424   3.063  17.556  0.00  0.00    +0.000 OA
ATOM      7  C   UNL     1       1.771   4.412  17.224  0.00  0.00    +0.000 C 
ATOM      8  C   UNL     1       3.000   5.043  17.961  0.00  0.00    +0.000 C 
ATOM      9  N   UNL     1       2.890   4.651  19.411  0.00  0.00    +0.000 NA
ENDROOT
BRANCH   8  10
ATOM     10  C   UNL     1       4.369   4.925  17.278  0.00  0.00    +0.000 A 
ATOM     11  C   UNL     1       5.476   5.713  17.653  0.00  0.00    +0.000 A 
ATOM     12  C   UNL     1       6.713   5.602  17.017  0.00  0.00    +0.000 A 
ATOM     13  C   UNL     1       6.903   4.664  16.013  0.00  0.00    +0.000 A 
ATOM     14  C   UNL     1       5.855   3.820  15.667  0.00  0.00    +0.000 A 
ATOM     15  C   UNL     1       4.615   3.939  16.304  0.00  0.00    +0.000 A 
ENDBRANCH   8  10
BRANCH   9  16
ATOM     16  C   UNL     1       3.061   5.783  20.384  0.00  0.00    +0.000 C 
BRANCH  16  17
ATOM     17  C   UNL     1       2.270   7.031  20.039  0.00  0.00    +0.000 A 
ATOM     18  C   UNL     1       1.393   7.616  20.971  0.00  0.00    +0.000 A 
ATOM     19  C   UNL     1       0.740   8.819  20.681  0.00  0.00    +0.000 A 
ATOM     20  C   UNL     1       0.955   9.446  19.456  0.00  0.00    +0.000 A 
ATOM     21  C   UNL     1       1.779   8.841  18.514  0.00  0.00    +0.000 A 
ATOM     22  F   UNL     1       1.977   9.443  17.335  0.00  0.00    +0.000 F 
ATOM     23  C   UNL     1       2.418   7.635  18.785  0.00  0.00    +0.000 A 
ENDBRANCH  16  17
ENDBRANCH   9  16
TORSDOF 3
ENDMDL
MODEL 9
REMARK VINA RESULT:      -7.4      4.107      5.334
REMARK  Name = 
REMARK  3 active torsions:
REMARK  status: ('A' for Active; 'I' for Inactive)
REMARK    1  A    between atoms: C_8  and  C_9
REMARK    2  A    between atoms: N_15  and  C_16
REMARK    3  A    between atoms: C_16  and  C_17
REMARK                            x       y       z     vdW  Elec       q    Type
REMARK                         _______ _______ _______ _____ _____    ______ ____
ROOT
ATOM      1  O   UNL     1       8.208   4.122  17.254  0.00  0.00    +0.000 OA
ATOM      2  S   UNL     1       6.985   4.712  17.754  0.00  0.00    +0.000 S 
ATOM      3  O   UNL     1       6.246   4.003  18.776  0.00  0.00    +0.000 OA
ATOM      4  C   UNL     1       7.441   6.305  18.419  0.00  0.00    +0.000 C 
ATOM      5  C   UNL     1       6.564   7.483  18.116  0.00  0.00    +0.000 C 
ATOM      6  O   UNL     1       6.429   7.688  16.723  0.00  0.00    +0.000 OA
ATOM      7  C   UNL     1       5.204   7.222  16.149  0.00  0.00    +0.000 C 
ATOM      8  C   UNL     1       4.748   5.767  16.503  0.00  0.00    +0.000 C 
ATOM      9  N   UNL     1       5.972   4.892  16.425  0.00  0.00    +0.000 NA
ENDROOT
BRANCH   8  10
ATOM     10  C   UNL     1       3.808   5.594  17.704  0.00  0.00    +0.000 A 
ATOM     11  C   UNL     1       3.444   6.666  18.544  0.00  0.00    +0.000 A 
ATOM     12  C   UNL     1       2.595   6.493  19.638  0.00  0.00    +0.000 A 
ATOM     13  C   UNL     1       2.039   5.250  19.905  0.00  0.00    +0.000 A 
ATOM     14  C   UNL     1       2.319   4.187  19.055  0.00  0.00    +0.000 A 
ATOM     15  C   UNL     1       3.175   4.364  17.962  0.00  0.00    +0.000 A 
ENDBRANCH   8  10
BRANCH   9  16
ATOM     16  C   UNL     1       5.795   3.628  15.634  0.00  0.00    +0.000 C 
BRANCH  16  17
ATOM     17  C   UNL     1       6.127   3.759  14.159  0.00  0.00    +0.000 A 
ATOM     18  C   UNL     1       7.089   4.683  13.711  0.00  0.00    +0.000 A 
ATOM     19  C   UNL     1       7.458   4.732  12.362  0.00  0.00    +0.000 A 
ATOM     20  C   UNL     1       6.867   3.861  11.449  0.00  0.00    +0.000 A 
ATOM     21  C   UNL     1       5.877   2.987  11.883  0.00  0.00    +0.000 A 
ATOM     22  F   UNL     1       5.305   2.157  11.001  0.00  0.00    +0.000 F 
ATOM     23  C   UNL     1       5.488   2.943  13.218  0.00  0.00    +0.000 A 
ENDBRANCH  16  17
ENDBRANCH   9  16
TORSDOF 3
ENDMDL
