MODEL 1
REMARK VINA RESULT:      -5.7      0.000      0.000
REMARK  Name = 
REMARK  10 active torsions:
REMARK  status: ('A' for Active; 'I' for Inactive)
REMARK    1  A    between atoms: C_1  and  C_2
REMARK    2  A    between atoms: C_2  and  C_3
REMARK    3  A    between atoms: C_2  and  C_7
REMARK    4  A    between atoms: C_3  and  C_4
REMARK    5  A    between atoms: C_4  and  O_6
REMARK    6  A    between atoms: C_14  and  O_15
REMARK    7  A    between atoms: C_16  and  C_17
REMARK    8  A    between atoms: C_18  and  C_19
REMARK    9  A    between atoms: C_22  and  O_23
REMARK   10  A    between atoms: C_27  and  O_28
REMARK                            x       y       z     vdW  Elec       q    Type
REMARK                         _______ _______ _______ _____ _____    ______ ____
ROOT
ATOM      1  C   UNL     1      -0.252  11.059  18.213  0.00  0.00    +0.000 C 
ATOM      2  C   UNL     1      -1.148   9.958  17.573  0.00  0.00    +0.000 C 
ATOM      3  C   UNL     1      -2.598  10.231  18.013  0.00  0.00    +0.000 C 
ATOM      4  C   UNL     1      -2.542  11.611  18.658  0.00  0.00    +0.000 C 
ATOM      5  C   UNL     1      -3.683  12.023  19.612  0.00  0.00    +0.000 C 
ATOM      6  C   UNL     1      -3.417  13.474  20.140  0.00  0.00    +0.000 C 
ATOM      7  C   UNL     1      -1.973  13.661  20.672  0.00  0.00    +0.000 C 
ATOM      8  C   UNL     1      -0.870  13.093  19.773  0.00  0.00    +0.000 C 
ATOM      9  C   UNL     1      -1.152  11.631  19.356  0.00  0.00    +0.000 C 
ATOM     10  C   UNL     1      -1.119  10.704  20.605  0.00  0.00    +0.000 C 
ATOM     11  C   UNL     1      -4.507  13.936  21.178  0.00  0.00    +0.000 C 
ATOM     12  C   UNL     1      -4.464  13.064  22.466  0.00  0.00    +0.000 C 
ATOM     13  C   UNL     1      -4.284  15.400  21.662  0.00  0.00    +0.000 C 
ATOM     14  C   UNL     1      -4.499  16.442  20.573  0.00  0.00    +0.000 C 
ATOM     15  C   UNL     1      -5.904  16.334  20.004  0.00  0.00    +0.000 C 
ATOM     16  C   UNL     1      -6.188  14.930  19.478  0.00  0.00    +0.000 C 
ATOM     17  C   UNL     1      -5.919  13.825  20.521  0.00  0.00    +0.000 C 
ATOM     18  C   UNL     1      -6.187  12.424  19.927  0.00  0.00    +0.000 C 
ATOM     19  C   UNL     1      -5.090  11.875  19.002  0.00  0.00    +0.000 C 
ENDROOT
BRANCH   1  21
ATOM     20  C   UNL     1       2.264  11.605  18.209  0.00  0.00    +0.000 C 
ATOM     21  C   UNL     1       1.196  10.556  18.547  0.00  0.00    +0.000 C 
BRANCH  21  22
ATOM     22  C   UNL     1       1.491   9.236  17.786  0.00  0.00    +0.000 C 
BRANCH  22  23
ATOM     23  C   UNL     1       2.127   8.124  18.604  0.00  0.00    +0.000 C 
ATOM     24  O   UNL     1       2.884   7.262  18.189  0.00  0.00    +0.000 OA
BRANCH  23  25
ATOM     25  O   UNL     1       1.777   8.189  19.912  0.00  0.00    +0.000 OA
ATOM     26  H   UNL     1       0.857   7.919  20.090  0.00  0.00    +0.000 HD
ENDBRANCH  23  25
ENDBRANCH  22  23
ENDBRANCH  21  22
ENDBRANCH   1  21
BRANCH   8  27
ATOM     27  O   UNL     1      -0.687  13.943  18.643  0.00  0.00    +0.000 OA
ATOM     28  H   UNL     1      -1.224  13.619  17.905  0.00  0.00    +0.000 HD
ENDBRANCH   8  27
BRANCH  15  29
ATOM     29  O   UNL     1      -6.064  17.277  18.949  0.00  0.00    +0.000 OA
ATOM     30  H   UNL     1      -6.650  16.889  18.277  0.00  0.00    +0.000 HD
ENDBRANCH  15  29
BRANCH  19  31
ATOM     31  O   UNL     1      -5.191  12.452  17.706  0.00  0.00    +0.000 OA
ATOM     32  H   UNL     1      -5.151  13.417  17.775  0.00  0.00    +0.000 HD
ENDBRANCH  19  31
TORSDOF 7
ENDMDL
MODEL 2
REMARK VINA RESULT:      -5.6      1.976      2.516
REMARK  Name = 
REMARK  10 active torsions:
REMARK  status: ('A' for Active; 'I' for Inactive)
REMARK    1  A    between atoms: C_1  and  C_2
REMARK    2  A    between atoms: C_2  and  C_3
REMARK    3  A    between atoms: C_2  and  C_7
REMARK    4  A    between atoms: C_3  and  C_4
REMARK    5  A    between atoms: C_4  and  O_6
REMARK    6  A    between atoms: C_14  and  O_15
REMARK    7  A    between atoms: C_16  and  C_17
REMARK    8  A    between atoms: C_18  and  C_19
REMARK    9  A    between atoms: C_22  and  O_23
REMARK   10  A    between atoms: C_27  and  O_28
REMARK                            x       y       z     vdW  Elec       q    Type
REMARK                         _______ _______ _______ _____ _____    ______ ____
ROOT
ATOM      1  C   UNL     1      -0.241  12.117  19.190  0.00  0.00    +0.000 C 
ATOM      2  C   UNL     1      -1.371  11.683  18.211  0.00  0.00    +0.000 C 
ATOM      3  C   UNL     1      -2.716  11.923  18.923  0.00  0.00    +0.000 C 
ATOM      4  C   UNL     1      -2.346  12.729  20.163  0.00  0.00    +0.000 C 
ATOM      5  C   UNL     1      -3.342  12.765  21.341  0.00  0.00    +0.000 C 
ATOM      6  C   UNL     1      -2.756  13.655  22.488  0.00  0.00    +0.000 C 
ATOM      7  C   UNL     1      -1.290  13.292  22.838  0.00  0.00    +0.000 C 
ATOM      8  C   UNL     1      -0.362  13.103  21.633  0.00  0.00    +0.000 C 
ATOM      9  C   UNL     1      -0.963  12.147  20.577  0.00  0.00    +0.000 C 
ATOM     10  C   UNL     1      -1.093  10.714  21.166  0.00  0.00    +0.000 C 
ATOM     11  C   UNL     1      -3.690  13.680  23.755  0.00  0.00    +0.000 C 
ATOM     12  C   UNL     1      -3.796  12.271  24.405  0.00  0.00    +0.000 C 
ATOM     13  C   UNL     1      -3.144  14.613  24.878  0.00  0.00    +0.000 C 
ATOM     14  C   UNL     1      -3.163  16.090  24.508  0.00  0.00    +0.000 C 
ATOM     15  C   UNL     1      -4.575  16.532  24.161  0.00  0.00    +0.000 C 
ATOM     16  C   UNL     1      -5.169  15.683  23.042  0.00  0.00    +0.000 C 
ATOM     17  C   UNL     1      -5.112  14.168  23.333  0.00  0.00    +0.000 C 
ATOM     18  C   UNL     1      -5.691  13.354  22.155  0.00  0.00    +0.000 C 
ATOM     19  C   UNL     1      -4.766  13.196  20.940  0.00  0.00    +0.000 C 
ENDROOT
BRANCH   1  21
ATOM     20  C   UNL     1       2.215  12.112  18.420  0.00  0.00    +0.000 C 
ATOM     21  C   UNL     1       1.074  11.280  19.021  0.00  0.00    +0.000 C 
BRANCH  21  22
ATOM     22  C   UNL     1       0.805  10.036  18.135  0.00  0.00    +0.000 C 
BRANCH  22  23
ATOM     23  C   UNL     1       1.833   8.919  18.224  0.00  0.00    +0.000 C 
ATOM     24  O   UNL     1       2.596   8.566  17.340  0.00  0.00    +0.000 OA
BRANCH  23  25
ATOM     25  O   UNL     1       1.842   8.332  19.446  0.00  0.00    +0.000 OA
ATOM     26  H   UNL     1       0.970   8.306  19.880  0.00  0.00    +0.000 HD
ENDBRANCH  23  25
ENDBRANCH  22  23
ENDBRANCH  21  22
ENDBRANCH   1  21
BRANCH   8  27
ATOM     27  O   UNL     1      -0.035  14.374  21.076  0.00  0.00    +0.000 OA
ATOM     28  H   UNL     1      -0.826  14.765  20.676  0.00  0.00    +0.000 HD
ENDBRANCH   8  27
BRANCH  15  29
ATOM     29  O   UNL     1      -4.560  17.899  23.762  0.00  0.00    +0.000 OA
ATOM     30  H   UNL     1      -3.750  18.060  23.249  0.00  0.00    +0.000 HD
ENDBRANCH  15  29
BRANCH  19  31
ATOM     31  O   UNL     1      -4.780  14.374  20.142  0.00  0.00    +0.000 OA
ATOM     32  H   UNL     1      -4.446  15.121  20.659  0.00  0.00    +0.000 HD
ENDBRANCH  19  31
TORSDOF 7
ENDMDL
MODEL 3
REMARK VINA RESULT:      -5.6      3.763      5.676
REMARK  Name = 
REMARK  10 active torsions:
REMARK  status: ('A' for Active; 'I' for Inactive)
REMARK    1  A    between atoms: C_1  and  C_2
REMARK    2  A    between atoms: C_2  and  C_3
REMARK    3  A    between atoms: C_2  and  C_7
REMARK    4  A    between atoms: C_3  and  C_4
REMARK    5  A    between atoms: C_4  and  O_6
REMARK    6  A    between atoms: C_14  and  O_15
REMARK    7  A    between atoms: C_16  and  C_17
REMARK    8  A    between atoms: C_18  and  C_19
REMARK    9  A    between atoms: C_22  and  O_23
REMARK   10  A    between atoms: C_27  and  O_28
REMARK                            x       y       z     vdW  Elec       q    Type
REMARK                         _______ _______ _______ _____ _____    ______ ____
ROOT
ATOM      1  C   UNL     1       0.244  11.324  19.914  0.00  0.00    +0.000 C 
ATOM      2  C   UNL     1      -0.982  11.635  20.822  0.00  0.00    +0.000 C 
ATOM      3  C   UNL     1      -1.072  13.166  20.968  0.00  0.00    +0.000 C 
ATOM      4  C   UNL     1      -0.081  13.700  19.940  0.00  0.00    +0.000 C 
ATOM      5  C   UNL     1       0.438  15.144  20.101  0.00  0.00    +0.000 C 
ATOM      6  C   UNL     1       1.426  15.472  18.931  0.00  0.00    +0.000 C 
ATOM      7  C   UNL     1       2.500  14.373  18.730  0.00  0.00    +0.000 C 
ATOM      8  C   UNL     1       1.969  12.935  18.738  0.00  0.00    +0.000 C 
ATOM      9  C   UNL     1       1.068  12.652  19.962  0.00  0.00    +0.000 C 
ATOM     10  C   UNL     1       1.904  12.739  21.271  0.00  0.00    +0.000 C 
ATOM     11  C   UNL     1       2.054  16.909  19.070  0.00  0.00    +0.000 C 
ATOM     12  C   UNL     1       2.944  17.015  20.341  0.00  0.00    +0.000 C 
ATOM     13  C   UNL     1       2.991  17.267  17.878  0.00  0.00    +0.000 C 
ATOM     14  C   UNL     1       2.259  17.426  16.552  0.00  0.00    +0.000 C 
ATOM     15  C   UNL     1       1.191  18.501  16.661  0.00  0.00    +0.000 C 
ATOM     16  C   UNL     1       0.211  18.204  17.792  0.00  0.00    +0.000 C 
ATOM     17  C   UNL     1       0.904  17.964  19.150  0.00  0.00    +0.000 C 
ATOM     18  C   UNL     1      -0.128  17.631  20.249  0.00  0.00    +0.000 C 
ATOM     19  C   UNL     1      -0.678  16.197  20.231  0.00  0.00    +0.000 C 
ENDROOT
BRANCH   1  21
ATOM     20  C   UNL     1       1.195   9.104  19.025  0.00  0.00    +0.000 C 
ATOM     21  C   UNL     1       0.944   9.967  20.268  0.00  0.00    +0.000 C 
BRANCH  21  22
ATOM     22  C   UNL     1       0.089   9.177  21.295  0.00  0.00    +0.000 C 
BRANCH  22  23
ATOM     23  C   UNL     1       0.510   9.304  22.750  0.00  0.00    +0.000 C 
ATOM     24  O   UNL     1       1.648   9.448  23.165  0.00  0.00    +0.000 OA
BRANCH  23  25
ATOM     25  O   UNL     1      -0.551   9.261  23.592  0.00  0.00    +0.000 OA
ATOM     26  H   UNL     1      -0.323   9.416  24.527  0.00  0.00    +0.000 HD
ENDBRANCH  23  25
ENDBRANCH  22  23
ENDBRANCH  21  22
ENDBRANCH   1  21
BRANCH   8  27
ATOM     27  O   UNL     1       1.297  12.665  17.509  0.00  0.00    +0.000 OA
ATOM     28  H   UNL     1       1.597  11.813  17.157  0.00  0.00    +0.000 HD
ENDBRANCH   8  27
BRANCH  15  29
ATOM     29  O   UNL     1       0.481  18.593  15.430  0.00  0.00    +0.000 OA
ATOM     30  H   UNL     1       0.461  17.710  15.022  0.00  0.00    +0.000 HD
ENDBRANCH  15  29
BRANCH  19  31
ATOM     31  O   UNL     1      -1.684  16.059  19.235  0.00  0.00    +0.000 OA
ATOM     32  H   UNL     1      -1.472  16.623  18.477  0.00  0.00    +0.000 HD
ENDBRANCH  19  31
TORSDOF 7
ENDMDL
MODEL 4
REMARK VINA RESULT:      -5.6     10.375     12.623
REMARK  Name = 
REMARK  10 active torsions:
REMARK  status: ('A' for Active; 'I' for Inactive)
REMARK    1  A    between atoms: C_1  and  C_2
REMARK    2  A    between atoms: C_2  and  C_3
REMARK    3  A    between atoms: C_2  and  C_7
REMARK    4  A    between atoms: C_3  and  C_4
REMARK    5  A    between atoms: C_4  and  O_6
REMARK    6  A    between atoms: C_14  and  O_15
REMARK    7  A    between atoms: C_16  and  C_17
REMARK    8  A    between atoms: C_18  and  C_19
REMARK    9  A    between atoms: C_22  and  O_23
REMARK   10  A    between atoms: C_27  and  O_28
REMARK                            x       y       z     vdW  Elec       q    Type
REMARK                         _______ _______ _______ _____ _____    ______ ____
ROOT
ATOM      1  C   UNL     1      10.470  13.456  20.314  0.00  0.00    +0.000 C 
ATOM      2  C   UNL     1      11.101  14.872  20.455  0.00  0.00    +0.000 C 
ATOM      3  C   UNL     1      10.382  15.584  21.615  0.00  0.00    +0.000 C 
ATOM      4  C   UNL     1       9.560  14.486  22.279  0.00  0.00    +0.000 C 
ATOM      5  C   UNL     1       8.373  14.896  23.176  0.00  0.00    +0.000 C 
ATOM      6  C   UNL     1       7.691  13.610  23.752  0.00  0.00    +0.000 C 
ATOM      7  C   UNL     1       7.394  12.551  22.660  0.00  0.00    +0.000 C 
ATOM      8  C   UNL     1       8.544  12.285  21.683  0.00  0.00    +0.000 C 
ATOM      9  C   UNL     1       9.117  13.591  21.086  0.00  0.00    +0.000 C 
ATOM     10  C   UNL     1       8.044  14.292  20.206  0.00  0.00    +0.000 C 
ATOM     11  C   UNL     1       6.424  13.950  24.623  0.00  0.00    +0.000 C 
ATOM     12  C   UNL     1       5.306  14.601  23.760  0.00  0.00    +0.000 C 
ATOM     13  C   UNL     1       5.775  12.679  25.250  0.00  0.00    +0.000 C 
ATOM     14  C   UNL     1       6.645  12.006  26.303  0.00  0.00    +0.000 C 
ATOM     15  C   UNL     1       6.973  12.979  27.423  0.00  0.00    +0.000 C 
ATOM     16  C   UNL     1       7.643  14.241  26.889  0.00  0.00    +0.000 C 
ATOM     17  C   UNL     1       6.837  14.929  25.767  0.00  0.00    +0.000 C 
ATOM     18  C   UNL     1       7.577  16.178  25.238  0.00  0.00    +0.000 C 
ATOM     19  C   UNL     1       8.747  15.901  24.283  0.00  0.00    +0.000 C 
ENDROOT
BRANCH   1  21
ATOM     20  C   UNL     1      10.331  11.399  18.772  0.00  0.00    +0.000 C 
ATOM     21  C   UNL     1      10.468  12.926  18.838  0.00  0.00    +0.000 C 
BRANCH  21  22
ATOM     22  C   UNL     1      11.764  13.372  18.110  0.00  0.00    +0.000 C 
BRANCH  22  23
ATOM     23  C   UNL     1      11.568  14.136  16.810  0.00  0.00    +0.000 C 
ATOM     24  O   UNL     1      11.209  15.297  16.700  0.00  0.00    +0.000 OA
BRANCH  23  25
ATOM     25  O   UNL     1      11.867  13.380  15.726  0.00  0.00    +0.000 OA
ATOM     26  H   UNL     1      12.545  13.770  15.145  0.00  0.00    +0.000 HD
ENDBRANCH  23  25
ENDBRANCH  22  23
ENDBRANCH  21  22
ENDBRANCH   1  21
BRANCH   8  27
ATOM     27  O   UNL     1       9.550  11.506  22.326  0.00  0.00    +0.000 OA
ATOM     28  H   UNL     1       9.829  10.789  21.738  0.00  0.00    +0.000 HD
ENDBRANCH   8  27
BRANCH  15  29
ATOM     29  O   UNL     1       7.834  12.347  28.365  0.00  0.00    +0.000 OA
ATOM     30  H   UNL     1       7.754  12.815  29.214  0.00  0.00    +0.000 HD
ENDBRANCH  15  29
BRANCH  19  31
ATOM     31  O   UNL     1       9.906  15.514  25.010  0.00  0.00    +0.000 OA
ATOM     32  H   UNL     1      10.694  15.892  24.591  0.00  0.00    +0.000 HD
ENDBRANCH  19  31
TORSDOF 7
ENDMDL
MODEL 5
REMARK VINA RESULT:      -5.4      2.154      3.289
REMARK  Name = 
REMARK  10 active torsions:
REMARK  status: ('A' for Active; 'I' for Inactive)
REMARK    1  A    between atoms: C_1  and  C_2
REMARK    2  A    between atoms: C_2  and  C_3
REMARK    3  A    between atoms: C_2  and  C_7
REMARK    4  A    between atoms: C_3  and  C_4
REMARK    5  A    between atoms: C_4  and  O_6
REMARK    6  A    between atoms: C_14  and  O_15
REMARK    7  A    between atoms: C_16  and  C_17
REMARK    8  A    between atoms: C_18  and  C_19
REMARK    9  A    between atoms: C_22  and  O_23
REMARK   10  A    between atoms: C_27  and  O_28
REMARK                            x       y       z     vdW  Elec       q    Type
REMARK                         _______ _______ _______ _____ _____    ______ ____
ROOT
ATOM      1  C   UNL     1       0.056   9.883  20.275  0.00  0.00    +0.000 C 
ATOM      2  C   UNL     1       0.236   9.296  21.706  0.00  0.00    +0.000 C 
ATOM      3  C   UNL     1      -0.364  10.309  22.698  0.00  0.00    +0.000 C 
ATOM      4  C   UNL     1      -1.106  11.306  21.815  0.00  0.00    +0.000 C 
ATOM      5  C   UNL     1      -1.442  12.695  22.397  0.00  0.00    +0.000 C 
ATOM      6  C   UNL     1      -2.208  13.536  21.320  0.00  0.00    +0.000 C 
ATOM      7  C   UNL     1      -1.504  13.521  19.939  0.00  0.00    +0.000 C 
ATOM      8  C   UNL     1      -1.036  12.142  19.464  0.00  0.00    +0.000 C 
ATOM      9  C   UNL     1      -0.215  11.399  20.543  0.00  0.00    +0.000 C 
ATOM     10  C   UNL     1       1.113  12.159  20.822  0.00  0.00    +0.000 C 
ATOM     11  C   UNL     1      -2.522  14.995  21.821  0.00  0.00    +0.000 C 
ATOM     12  C   UNL     1      -1.214  15.805  22.055  0.00  0.00    +0.000 C 
ATOM     13  C   UNL     1      -3.337  15.819  20.779  0.00  0.00    +0.000 C 
ATOM     14  C   UNL     1      -4.753  15.302  20.566  0.00  0.00    +0.000 C 
ATOM     15  C   UNL     1      -5.520  15.297  21.878  0.00  0.00    +0.000 C 
ATOM     16  C   UNL     1      -4.798  14.481  22.945  0.00  0.00    +0.000 C 
ATOM     17  C   UNL     1      -3.332  14.915  23.154  0.00  0.00    +0.000 C 
ATOM     18  C   UNL     1      -2.637  14.035  24.216  0.00  0.00    +0.000 C 
ATOM     19  C   UNL     1      -2.198  12.642  23.739  0.00  0.00    +0.000 C 
ENDROOT
BRANCH   1  21
ATOM     20  C   UNL     1       0.720   9.400  17.835  0.00  0.00    +0.000 C 
ATOM     21  C   UNL     1       1.203   9.465  19.290  0.00  0.00    +0.000 C 
BRANCH  21  22
ATOM     22  C   UNL     1       1.796   8.095  19.712  0.00  0.00    +0.000 C 
BRANCH  22  23
ATOM     23  C   UNL     1       2.560   7.339  18.636  0.00  0.00    +0.000 C 
ATOM     24  O   UNL     1       3.438   7.791  17.919  0.00  0.00    +0.000 OA
BRANCH  23  25
ATOM     25  O   UNL     1       2.174   6.043  18.554  0.00  0.00    +0.000 OA
ATOM     26  H   UNL     1       1.579   5.759  19.271  0.00  0.00    +0.000 HD
ENDBRANCH  23  25
ENDBRANCH  22  23
ENDBRANCH  21  22
ENDBRANCH   1  21
BRANCH   8  27
ATOM     27  O   UNL     1      -2.158  11.377  19.028  0.00  0.00    +0.000 OA
ATOM     28  H   UNL     1      -2.389  11.630  18.122  0.00  0.00    +0.000 HD
ENDBRANCH   8  27
BRANCH  15  29
ATOM     29  O   UNL     1      -6.821  14.757  21.667  0.00  0.00    +0.000 OA
ATOM     30  H   UNL     1      -7.476  15.438  21.896  0.00  0.00    +0.000 HD
ENDBRANCH  15  29
BRANCH  19  31
ATOM     31  O   UNL     1      -3.305  11.749  23.712  0.00  0.00    +0.000 OA
ATOM     32  H   UNL     1      -3.138  11.042  23.072  0.00  0.00    +0.000 HD
ENDBRANCH  19  31
TORSDOF 7
ENDMDL
MODEL 6
REMARK VINA RESULT:      -5.4      3.250      5.026
REMARK  Name = 
REMARK  10 active torsions:
REMARK  status: ('A' for Active; 'I' for Inactive)
REMARK    1  A    between atoms: C_1  and  C_2
REMARK    2  A    between atoms: C_2  and  C_3
REMARK    3  A    between atoms: C_2  and  C_7
REMARK    4  A    between atoms: C_3  and  C_4
REMARK    5  A    between atoms: C_4  and  O_6
REMARK    6  A    between atoms: C_14  and  O_15
REMARK    7  A    between atoms: C_16  and  C_17
REMARK    8  A    between atoms: C_18  and  C_19
REMARK    9  A    between atoms: C_22  and  O_23
REMARK   10  A    between atoms: C_27  and  O_28
REMARK                            x       y       z     vdW  Elec       q    Type
REMARK                         _______ _______ _______ _____ _____    ______ ____
ROOT
ATOM      1  C   UNL     1      -0.418  11.780  19.972  0.00  0.00    +0.000 C 
ATOM      2  C   UNL     1      -0.046  12.779  18.838  0.00  0.00    +0.000 C 
ATOM      3  C   UNL     1      -0.489  14.181  19.294  0.00  0.00    +0.000 C 
ATOM      4  C   UNL     1      -0.849  14.002  20.764  0.00  0.00    +0.000 C 
ATOM      5  C   UNL     1      -1.755  15.057  21.433  0.00  0.00    +0.000 C 
ATOM      6  C   UNL     1      -1.977  14.672  22.934  0.00  0.00    +0.000 C 
ATOM      7  C   UNL     1      -2.397  13.191  23.115  0.00  0.00    +0.000 C 
ATOM      8  C   UNL     1      -1.578  12.179  22.307  0.00  0.00    +0.000 C 
ATOM      9  C   UNL     1      -1.467  12.575  20.816  0.00  0.00    +0.000 C 
ATOM     10  C   UNL     1      -2.869  12.528  20.146  0.00  0.00    +0.000 C 
ATOM     11  C   UNL     1      -2.953  15.669  23.664  0.00  0.00    +0.000 C 
ATOM     12  C   UNL     1      -4.382  15.606  23.055  0.00  0.00    +0.000 C 
ATOM     13  C   UNL     1      -3.131  15.327  25.174  0.00  0.00    +0.000 C 
ATOM     14  C   UNL     1      -1.870  15.540  26.001  0.00  0.00    +0.000 C 
ATOM     15  C   UNL     1      -1.397  16.979  25.888  0.00  0.00    +0.000 C 
ATOM     16  C   UNL     1      -1.168  17.381  24.434  0.00  0.00    +0.000 C 
ATOM     17  C   UNL     1      -2.393  17.121  23.532  0.00  0.00    +0.000 C 
ATOM     18  C   UNL     1      -2.096  17.509  22.067  0.00  0.00    +0.000 C 
ATOM     19  C   UNL     1      -1.249  16.504  21.273  0.00  0.00    +0.000 C 
ENDROOT
BRANCH   1  21
ATOM     20  C   UNL     1       0.162   9.272  19.995  0.00  0.00    +0.000 C 
ATOM     21  C   UNL     1      -0.779  10.350  19.440  0.00  0.00    +0.000 C 
BRANCH  21  22
ATOM     22  C   UNL     1      -0.744  10.333  17.889  0.00  0.00    +0.000 C 
BRANCH  22  23
ATOM     23  C   UNL     1      -2.094  10.383  17.191  0.00  0.00    +0.000 C 
ATOM     24  O   UNL     1      -3.025   9.613  17.360  0.00  0.00    +0.000 OA
BRANCH  23  25
ATOM     25  O   UNL     1      -2.185  11.428  16.333  0.00  0.00    +0.000 OA
ATOM     26  H   UNL     1      -2.847  11.306  15.629  0.00  0.00    +0.000 HD
ENDBRANCH  23  25
ENDBRANCH  22  23
ENDBRANCH  21  22
ENDBRANCH   1  21
BRANCH   8  27
ATOM     27  O   UNL     1      -0.296  12.009  22.909  0.00  0.00    +0.000 OA
ATOM     28  H   UNL     1       0.393  12.123  22.239  0.00  0.00    +0.000 HD
ENDBRANCH   8  27
BRANCH  15  29
ATOM     29  O   UNL     1      -0.186  17.141  26.621  0.00  0.00    +0.000 OA
ATOM     30  H   UNL     1      -0.272  17.930  27.183  0.00  0.00    +0.000 HD
ENDBRANCH  15  29
BRANCH  19  31
ATOM     31  O   UNL     1       0.129  16.644  21.597  0.00  0.00    +0.000 OA
ATOM     32  H   UNL     1       0.225  16.821  22.544  0.00  0.00    +0.000 HD
ENDBRANCH  19  31
TORSDOF 7
ENDMDL
MODEL 7
REMARK VINA RESULT:      -5.3      3.384      5.455
REMARK  Name = 
REMARK  10 active torsions:
REMARK  status: ('A' for Active; 'I' for Inactive)
REMARK    1  A    between atoms: C_1  and  C_2
REMARK    2  A    between atoms: C_2  and  C_3
REMARK    3  A    between atoms: C_2  and  C_7
REMARK    4  A    between atoms: C_3  and  C_4
REMARK    5  A    between atoms: C_4  and  O_6
REMARK    6  A    between atoms: C_14  and  O_15
REMARK    7  A    between atoms: C_16  and  C_17
REMARK    8  A    between atoms: C_18  and  C_19
REMARK    9  A    between atoms: C_22  and  O_23
REMARK   10  A    between atoms: C_27  and  O_28
REMARK                            x       y       z     vdW  Elec       q    Type
REMARK                         _______ _______ _______ _____ _____    ______ ____
ROOT
ATOM      1  C   UNL     1      -0.992  13.716  21.989  0.00  0.00    +0.000 C 
ATOM      2  C   UNL     1      -1.218  14.232  23.440  0.00  0.00    +0.000 C 
ATOM      3  C   UNL     1      -2.730  14.165  23.724  0.00  0.00    +0.000 C 
ATOM      4  C   UNL     1      -3.297  13.371  22.552  0.00  0.00    +0.000 C 
ATOM      5  C   UNL     1      -4.805  13.487  22.247  0.00  0.00    +0.000 C 
ATOM      6  C   UNL     1      -5.155  12.582  21.018  0.00  0.00    +0.000 C 
ATOM      7  C   UNL     1      -4.193  12.799  19.822  0.00  0.00    +0.000 C 
ATOM      8  C   UNL     1      -2.705  12.841  20.185  0.00  0.00    +0.000 C 
ATOM      9  C   UNL     1      -2.415  13.816  21.350  0.00  0.00    +0.000 C 
ATOM     10  C   UNL     1      -2.726  15.276  20.915  0.00  0.00    +0.000 C 
ATOM     11  C   UNL     1      -6.670  12.706  20.604  0.00  0.00    +0.000 C 
ATOM     12  C   UNL     1      -7.002  14.142  20.107  0.00  0.00    +0.000 C 
ATOM     13  C   UNL     1      -7.040  11.763  19.420  0.00  0.00    +0.000 C 
ATOM     14  C   UNL     1      -6.985  10.284  19.777  0.00  0.00    +0.000 C 
ATOM     15  C   UNL     1      -7.916   9.983  20.940  0.00  0.00    +0.000 C 
ATOM     16  C   UNL     1      -7.594  10.849  22.154  0.00  0.00    +0.000 C 
ATOM     17  C   UNL     1      -7.567  12.358  21.834  0.00  0.00    +0.000 C 
ATOM     18  C   UNL     1      -7.200  13.185  23.085  0.00  0.00    +0.000 C 
ATOM     19  C   UNL     1      -5.711  13.197  23.460  0.00  0.00    +0.000 C 
ENDROOT
BRANCH   1  21
ATOM     20  C   UNL     1       1.115  13.382  20.549  0.00  0.00    +0.000 C 
ATOM     21  C   UNL     1       0.226  14.400  21.276  0.00  0.00    +0.000 C 
BRANCH  21  22
ATOM     22  C   UNL     1       1.069  15.198  22.305  0.00  0.00    +0.000 C 
BRANCH  22  23
ATOM     23  C   UNL     1       2.551  15.329  21.995  0.00  0.00    +0.000 C 
ATOM     24  O   UNL     1       3.455  14.676  22.489  0.00  0.00    +0.000 OA
BRANCH  23  25
ATOM     25  O   UNL     1       2.792  16.274  21.053  0.00  0.00    +0.000 OA
ATOM     26  H   UNL     1       2.027  16.467  20.481  0.00  0.00    +0.000 HD
ENDBRANCH  23  25
ENDBRANCH  22  23
ENDBRANCH  21  22
ENDBRANCH   1  21
BRANCH   8  27
ATOM     27  O   UNL     1      -2.242  11.522  20.467  0.00  0.00    +0.000 OA
ATOM     28  H   UNL     1      -2.988  10.971  20.745  0.00  0.00    +0.000 HD
ENDBRANCH   8  27
BRANCH  15  29
ATOM     29  O   UNL     1      -7.805   8.608  21.295  0.00  0.00    +0.000 OA
ATOM     30  H   UNL     1      -6.861   8.388  21.374  0.00  0.00    +0.000 HD
ENDBRANCH  15  29
BRANCH  19  31
ATOM     31  O   UNL     1      -5.354  11.999  24.138  0.00  0.00    +0.000 OA
ATOM     32  H   UNL     1      -5.542  11.236  23.572  0.00  0.00    +0.000 HD
ENDBRANCH  19  31
TORSDOF 7
ENDMDL
MODEL 8
REMARK VINA RESULT:      -5.2      2.982      4.351
REMARK  Name = 
REMARK  10 active torsions:
REMARK  status: ('A' for Active; 'I' for Inactive)
REMARK    1  A    between atoms: C_1  and  C_2
REMARK    2  A    between atoms: C_2  and  C_3
REMARK    3  A    between atoms: C_2  and  C_7
REMARK    4  A    between atoms: C_3  and  C_4
REMARK    5  A    between atoms: C_4  and  O_6
REMARK    6  A    between atoms: C_14  and  O_15
REMARK    7  A    between atoms: C_16  and  C_17
REMARK    8  A    between atoms: C_18  and  C_19
REMARK    9  A    between atoms: C_22  and  O_23
REMARK   10  A    between atoms: C_27  and  O_28
REMARK                            x       y       z     vdW  Elec       q    Type
REMARK                         _______ _______ _______ _____ _____    ______ ____
ROOT
ATOM      1  C   UNL     1       1.666   9.598  19.424  0.00  0.00    +0.000 C 
ATOM      2  C   UNL     1       2.196  10.370  18.181  0.00  0.00    +0.000 C 
ATOM      3  C   UNL     1       1.560  11.773  18.203  0.00  0.00    +0.000 C 
ATOM      4  C   UNL     1       0.907  11.868  19.578  0.00  0.00    +0.000 C 
ATOM      5  C   UNL     1      -0.198  12.922  19.795  0.00  0.00    +0.000 C 
ATOM      6  C   UNL     1      -0.707  12.840  21.274  0.00  0.00    +0.000 C 
ATOM      7  C   UNL     1      -1.043  11.392  21.711  0.00  0.00    +0.000 C 
ATOM      8  C   UNL     1       0.006  10.340  21.334  0.00  0.00    +0.000 C 
ATOM      9  C   UNL     1       0.403  10.420  19.842  0.00  0.00    +0.000 C 
ATOM     10  C   UNL     1      -0.815  10.060  18.945  0.00  0.00    +0.000 C 
ATOM     11  C   UNL     1      -1.890  13.843  21.550  0.00  0.00    +0.000 C 
ATOM     12  C   UNL     1      -3.146  13.476  20.710  0.00  0.00    +0.000 C 
ATOM     13  C   UNL     1      -2.361  13.811  23.035  0.00  0.00    +0.000 C 
ATOM     14  C   UNL     1      -1.327  14.347  24.015  0.00  0.00    +0.000 C 
ATOM     15  C   UNL     1      -0.951  15.777  23.662  0.00  0.00    +0.000 C 
ATOM     16  C   UNL     1      -0.447  15.884  22.226  0.00  0.00    +0.000 C 
ATOM     17  C   UNL     1      -1.427  15.291  21.192  0.00  0.00    +0.000 C 
ATOM     18  C   UNL     1      -0.853  15.392  19.762  0.00  0.00    +0.000 C 
ATOM     19  C   UNL     1       0.219  14.352  19.402  0.00  0.00    +0.000 C 
ENDROOT
BRANCH   1  21
ATOM     20  C   UNL     1       1.762   7.246  20.466  0.00  0.00    +0.000 C 
ATOM     21  C   UNL     1       1.538   8.054  19.181  0.00  0.00    +0.000 C 
BRANCH  21  22
ATOM     22  C   UNL     1       2.543   7.600  18.090  0.00  0.00    +0.000 C 
BRANCH  22  23
ATOM     23  C   UNL     1       2.905   6.124  18.089  0.00  0.00    +0.000 C 
ATOM     24  O   UNL     1       2.168   5.198  17.794  0.00  0.00    +0.000 OA
BRANCH  23  25
ATOM     25  O   UNL     1       4.197   5.917  18.444  0.00  0.00    +0.000 OA
ATOM     26  H   UNL     1       4.531   6.546  19.109  0.00  0.00    +0.000 HD
ENDBRANCH  23  25
ENDBRANCH  22  23
ENDBRANCH  21  22
ENDBRANCH   1  21
BRANCH   8  27
ATOM     27  O   UNL     1       1.137  10.460  22.194  0.00  0.00    +0.000 OA
ATOM     28  H   UNL     1       1.103  11.310  22.657  0.00  0.00    +0.000 HD
ENDBRANCH   8  27
BRANCH  15  29
ATOM     29  O   UNL     1       0.058  16.238  24.555  0.00  0.00    +0.000 OA
ATOM     30  H   UNL     1       0.429  17.063  24.198  0.00  0.00    +0.000 HD
ENDBRANCH  15  29
BRANCH  19  31
ATOM     31  O   UNL     1       1.481  14.726  19.942  0.00  0.00    +0.000 OA
ATOM     32  H   UNL     1       1.495  14.543  20.893  0.00  0.00    +0.000 HD
ENDBRANCH  19  31
TORSDOF 7
ENDMDL
MODEL 9
REMARK VINA RESULT:      -5.2     10.845     11.978
REMARK  Name = 
REMARK  10 active torsions:
REMARK  status: ('A' for Active; 'I' for Inactive)
REMARK    1  A    between atoms: C_1  and  C_2
REMARK    2  A    between atoms: C_2  and  C_3
REMARK    3  A    between atoms: C_2  and  C_7
REMARK    4  A    between atoms: C_3  and  C_4
REMARK    5  A    between atoms: C_4  and  O_6
REMARK    6  A    between atoms: C_14  and  O_15
REMARK    7  A    between atoms: C_16  and  C_17
REMARK    8  A    between atoms: C_18  and  C_19
REMARK    9  A    between atoms: C_22  and  O_23
REMARK   10  A    between atoms: C_27  and  O_28
REMARK                            x       y       z     vdW  Elec       q    Type
REMARK                         _______ _______ _______ _____ _____    ______ ____
ROOT
ATOM      1  C   UNL     1       8.584  13.515  19.814  0.00  0.00    +0.000 C 
ATOM      2  C   UNL     1       9.098  12.069  20.075  0.00  0.00    +0.000 C 
ATOM      3  C   UNL     1       9.161  11.870  21.601  0.00  0.00    +0.000 C 
ATOM      4  C   UNL     1       8.438  13.086  22.169  0.00  0.00    +0.000 C 
ATOM      5  C   UNL     1       8.692  13.470  23.641  0.00  0.00    +0.000 C 
ATOM      6  C   UNL     1       7.839  14.734  24.000  0.00  0.00    +0.000 C 
ATOM      7  C   UNL     1       7.987  15.871  22.957  0.00  0.00    +0.000 C 
ATOM      8  C   UNL     1       7.892  15.426  21.494  0.00  0.00    +0.000 C 
ATOM      9  C   UNL     1       8.820  14.229  21.185  0.00  0.00    +0.000 C 
ATOM     10  C   UNL     1      10.308  14.653  21.342  0.00  0.00    +0.000 C 
ATOM     11  C   UNL     1       8.103  15.228  25.472  0.00  0.00    +0.000 C 
ATOM     12  C   UNL     1       9.570  15.714  25.649  0.00  0.00    +0.000 C 
ATOM     13  C   UNL     1       7.213  16.448  25.857  0.00  0.00    +0.000 C 
ATOM     14  C   UNL     1       5.730  16.117  25.952  0.00  0.00    +0.000 C 
ATOM     15  C   UNL     1       5.497  15.012  26.970  0.00  0.00    +0.000 C 
ATOM     16  C   UNL     1       6.314  13.767  26.641  0.00  0.00    +0.000 C 
ATOM     17  C   UNL     1       7.819  14.056  26.464  0.00  0.00    +0.000 C 
ATOM     18  C   UNL     1       8.592  12.770  26.097  0.00  0.00    +0.000 C 
ATOM     19  C   UNL     1       8.466  12.315  24.635  0.00  0.00    +0.000 C 
ENDROOT
BRANCH   1  21
ATOM     20  C   UNL     1       8.145  15.043  17.789  0.00  0.00    +0.000 C 
ATOM     21  C   UNL     1       9.167  14.148  18.503  0.00  0.00    +0.000 C 
BRANCH  21  22
ATOM     22  C   UNL     1       9.654  13.031  17.542  0.00  0.00    +0.000 C 
BRANCH  22  23
ATOM     23  C   UNL     1      11.106  13.118  17.100  0.00  0.00    +0.000 C 
ATOM     24  O   UNL     1      12.064  12.610  17.657  0.00  0.00    +0.000 OA
BRANCH  23  25
ATOM     25  O   UNL     1      11.247  13.831  15.956  0.00  0.00    +0.000 OA
ATOM     26  H   UNL     1      11.581  14.737  16.092  0.00  0.00    +0.000 HD
ENDBRANCH  23  25
ENDBRANCH  22  23
ENDBRANCH  21  22
ENDBRANCH   1  21
BRANCH   8  27
ATOM     27  O   UNL     1       6.533  15.145  21.165  0.00  0.00    +0.000 OA
ATOM     28  H   UNL     1       6.310  14.247  21.452  0.00  0.00    +0.000 HD
ENDBRANCH   8  27
BRANCH  15  29
ATOM     29  O   UNL     1       4.113  14.678  27.000  0.00  0.00    +0.000 OA
ATOM     30  H   UNL     1       4.011  13.767  26.676  0.00  0.00    +0.000 HD
ENDBRANCH  15  29
BRANCH  19  31
ATOM     31  O   UNL     1       7.231  11.641  24.424  0.00  0.00    +0.000 OA
ATOM     32  H   UNL     1       7.401  10.744  24.102  0.00  0.00    +0.000 HD
ENDBRANCH  19  31
TORSDOF 7
ENDMDL
