MODEL 1
REMARK VINA RESULT:      -6.6      0.000      0.000
REMARK  Name = 
REMARK  3 active torsions:
REMARK  status: ('A' for Active; 'I' for Inactive)
REMARK    1  A    between atoms: C_2  and  C_11
REMARK    2  A    between atoms: N_3  and  N_4
REMARK    3  A    between atoms: C_5  and  C_6
REMARK                            x       y       z     vdW  Elec       q    Type
REMARK                         _______ _______ _______ _____ _____    ______ ____
ROOT
ATOM      1  O   UNL     1       5.607   3.989  18.949  0.00  0.00    +0.000 OA
ATOM      2  C   UNL     1       4.439   4.027  18.576  0.00  0.00    +0.000 C 
ATOM      3  N   UNL     1       4.003   4.408  17.313  0.00  0.00    +0.000 N 
ATOM      4  H   UNL     1       3.017   4.544  17.130  0.00  0.00    +0.000 HD
ENDROOT
BRANCH   2   5
ATOM      5  C   UNL     1       3.350   3.677  19.533  0.00  0.00    +0.000 A 
ATOM      6  C   UNL     1       3.611   2.751  20.551  0.00  0.00    +0.000 A 
ATOM      7  C   UNL     1       2.610   2.417  21.466  0.00  0.00    +0.000 A 
ATOM      8  C   UNL     1       1.345   2.998  21.363  0.00  0.00    +0.000 A 
ATOM      9  C   UNL     1       1.076   3.907  20.342  0.00  0.00    +0.000 A 
ATOM     10  C   UNL     1       2.070   4.242  19.423  0.00  0.00    +0.000 A 
ENDBRANCH   2   5
BRANCH   3  11
ATOM     11  N   UNL     1       4.909   4.774  16.362  0.00  0.00    +0.000 NA
ATOM     12  C   UNL     1       5.136   3.904  15.434  0.00  0.00    +0.000 C 
BRANCH  12  13
ATOM     13  C   UNL     1       6.055   4.245  14.380  0.00  0.00    +0.000 A 
ATOM     14  C   UNL     1       6.161   3.697  13.070  0.00  0.00    +0.000 A 
ATOM     15  C   UNL     1       7.207   4.347  12.460  0.00  0.00    +0.000 A 
ATOM     16  O   UNL     1       7.750   5.263  13.302  0.00  0.00    +0.000 OA
ATOM     17  C   UNL     1       7.048   5.198  14.462  0.00  0.00    +0.000 A 
ENDBRANCH  12  13
ENDBRANCH   3  11
TORSDOF 3
ENDMDL
MODEL 2
REMARK VINA RESULT:      -6.6      1.239      1.474
REMARK  Name = 
REMARK  3 active torsions:
REMARK  status: ('A' for Active; 'I' for Inactive)
REMARK    1  A    between atoms: C_2  and  C_11
REMARK    2  A    between atoms: N_3  and  N_4
REMARK    3  A    between atoms: C_5  and  C_6
REMARK                            x       y       z     vdW  Elec       q    Type
REMARK                         _______ _______ _______ _____ _____    ______ ____
ROOT
ATOM      1  O   UNL     1       3.495   6.192  17.735  0.00  0.00    +0.000 OA
ATOM      2  C   UNL     1       3.523   4.975  17.876  0.00  0.00    +0.000 C 
ATOM      3  N   UNL     1       4.294   4.089  17.132  0.00  0.00    +0.000 N 
ATOM      4  H   UNL     1       4.156   3.090  17.218  0.00  0.00    +0.000 HD
ENDROOT
BRANCH   2   5
ATOM      5  C   UNL     1       2.648   4.332  18.899  0.00  0.00    +0.000 A 
ATOM      6  C   UNL     1       1.661   3.432  18.480  0.00  0.00    +0.000 A 
ATOM      7  C   UNL     1       0.837   2.808  19.421  0.00  0.00    +0.000 A 
ATOM      8  C   UNL     1       0.992   3.088  20.779  0.00  0.00    +0.000 A 
ATOM      9  C   UNL     1       1.961   3.995  21.200  0.00  0.00    +0.000 A 
ATOM     10  C   UNL     1       2.784   4.624  20.265  0.00  0.00    +0.000 A 
ENDBRANCH   2   5
BRANCH   3  11
ATOM     11  N   UNL     1       5.115   4.561  16.151  0.00  0.00    +0.000 NA
ATOM     12  C   UNL     1       5.420   3.721  15.217  0.00  0.00    +0.000 C 
BRANCH  12  13
ATOM     13  C   UNL     1       6.253   4.169  14.133  0.00  0.00    +0.000 A 
ATOM     14  C   UNL     1       6.313   3.693  12.792  0.00  0.00    +0.000 A 
ATOM     15  C   UNL     1       7.282   4.434  12.159  0.00  0.00    +0.000 A 
ATOM     16  O   UNL     1       7.818   5.340  13.016  0.00  0.00    +0.000 OA
ATOM     17  C   UNL     1       7.191   5.176  14.209  0.00  0.00    +0.000 A 
ENDBRANCH  12  13
ENDBRANCH   3  11
TORSDOF 3
ENDMDL
MODEL 3
REMARK VINA RESULT:      -6.5      0.235      1.227
REMARK  Name = 
REMARK  3 active torsions:
REMARK  status: ('A' for Active; 'I' for Inactive)
REMARK    1  A    between atoms: C_2  and  C_11
REMARK    2  A    between atoms: N_3  and  N_4
REMARK    3  A    between atoms: C_5  and  C_6
REMARK                            x       y       z     vdW  Elec       q    Type
REMARK                         _______ _______ _______ _____ _____    ______ ____
ROOT
ATOM      1  O   UNL     1       5.658   4.069  19.195  0.00  0.00    +0.000 OA
ATOM      2  C   UNL     1       4.508   4.081  18.770  0.00  0.00    +0.000 C 
ATOM      3  N   UNL     1       4.121   4.437  17.484  0.00  0.00    +0.000 N 
ATOM      4  H   UNL     1       3.142   4.553  17.255  0.00  0.00    +0.000 HD
ENDROOT
BRANCH   2   5
ATOM      5  C   UNL     1       3.383   3.721  19.682  0.00  0.00    +0.000 A 
ATOM      6  C   UNL     1       2.178   4.428  19.586  0.00  0.00    +0.000 A 
ATOM      7  C   UNL     1       1.107   4.102  20.422  0.00  0.00    +0.000 A 
ATOM      8  C   UNL     1       1.239   3.075  21.359  0.00  0.00    +0.000 A 
ATOM      9  C   UNL     1       2.441   2.380  21.469  0.00  0.00    +0.000 A 
ATOM     10  C   UNL     1       3.515   2.705  20.640  0.00  0.00    +0.000 A 
ENDBRANCH   2   5
BRANCH   3  11
ATOM     11  N   UNL     1       5.062   4.808  16.569  0.00  0.00    +0.000 NA
ATOM     12  C   UNL     1       5.222   4.008  15.567  0.00  0.00    +0.000 C 
BRANCH  12  13
ATOM     13  C   UNL     1       6.174   4.363  14.547  0.00  0.00    +0.000 A 
ATOM     14  C   UNL     1       6.272   3.890  13.208  0.00  0.00    +0.000 A 
ATOM     15  C   UNL     1       7.360   4.519  12.652  0.00  0.00    +0.000 A 
ATOM     16  O   UNL     1       7.936   5.353  13.555  0.00  0.00    +0.000 OA
ATOM     17  C   UNL     1       7.213   5.256  14.700  0.00  0.00    +0.000 A 
ENDBRANCH  12  13
ENDBRANCH   3  11
TORSDOF 3
ENDMDL
MODEL 4
REMARK VINA RESULT:      -6.5      1.576      7.284
REMARK  Name = 
REMARK  3 active torsions:
REMARK  status: ('A' for Active; 'I' for Inactive)
REMARK    1  A    between atoms: C_2  and  C_11
REMARK    2  A    between atoms: N_3  and  N_4
REMARK    3  A    between atoms: C_5  and  C_6
REMARK                            x       y       z     vdW  Elec       q    Type
REMARK                         _______ _______ _______ _____ _____    ______ ____
ROOT
ATOM      1  O   UNL     1       5.422   5.694  16.710  0.00  0.00    +0.000 OA
ATOM      2  C   UNL     1       5.429   4.583  16.192  0.00  0.00    +0.000 C 
ATOM      3  N   UNL     1       5.009   3.404  16.794  0.00  0.00    +0.000 N 
ATOM      4  H   UNL     1       5.177   2.511  16.348  0.00  0.00    +0.000 HD
ENDROOT
BRANCH   2   5
ATOM      5  C   UNL     1       5.957   4.421  14.805  0.00  0.00    +0.000 A 
ATOM      6  C   UNL     1       7.140   5.080  14.448  0.00  0.00    +0.000 A 
ATOM      7  C   UNL     1       7.659   4.934  13.159  0.00  0.00    +0.000 A 
ATOM      8  C   UNL     1       6.996   4.138  12.224  0.00  0.00    +0.000 A 
ATOM      9  C   UNL     1       5.810   3.495  12.570  0.00  0.00    +0.000 A 
ATOM     10  C   UNL     1       5.284   3.640  13.854  0.00  0.00    +0.000 A 
ENDBRANCH   2   5
BRANCH   3  11
ATOM     11  N   UNL     1       4.530   3.425  18.071  0.00  0.00    +0.000 NA
ATOM     12  C   UNL     1       3.411   2.809  18.265  0.00  0.00    +0.000 C 
BRANCH  12  13
ATOM     13  C   UNL     1       2.871   2.764  19.599  0.00  0.00    +0.000 A 
ATOM     14  C   UNL     1       1.526   2.941  20.028  0.00  0.00    +0.000 A 
ATOM     15  C   UNL     1       1.535   2.824  21.398  0.00  0.00    +0.000 A 
ATOM     16  O   UNL     1       2.794   2.578  21.841  0.00  0.00    +0.000 OA
ATOM     17  C   UNL     1       3.599   2.542  20.748  0.00  0.00    +0.000 A 
ENDBRANCH  12  13
ENDBRANCH   3  11
TORSDOF 3
ENDMDL
MODEL 5
REMARK VINA RESULT:      -6.4      1.767      7.324
REMARK  Name = 
REMARK  3 active torsions:
REMARK  status: ('A' for Active; 'I' for Inactive)
REMARK    1  A    between atoms: C_2  and  C_11
REMARK    2  A    between atoms: N_3  and  N_4
REMARK    3  A    between atoms: C_5  and  C_6
REMARK                            x       y       z     vdW  Elec       q    Type
REMARK                         _______ _______ _______ _____ _____    ______ ____
ROOT
ATOM      1  O   UNL     1       4.833   5.673  16.328  0.00  0.00    +0.000 OA
ATOM      2  C   UNL     1       5.179   4.561  15.946  0.00  0.00    +0.000 C 
ATOM      3  N   UNL     1       5.042   3.378  16.661  0.00  0.00    +0.000 N 
ATOM      4  H   UNL     1       5.478   2.525  16.334  0.00  0.00    +0.000 HD
ENDROOT
BRANCH   2   5
ATOM      5  C   UNL     1       5.843   4.412  14.617  0.00  0.00    +0.000 A 
ATOM      6  C   UNL     1       7.036   5.103  14.374  0.00  0.00    +0.000 A 
ATOM      7  C   UNL     1       7.682   4.969  13.142  0.00  0.00    +0.000 A 
ATOM      8  C   UNL     1       7.134   4.155  12.149  0.00  0.00    +0.000 A 
ATOM      9  C   UNL     1       5.938   3.480  12.381  0.00  0.00    +0.000 A 
ATOM     10  C   UNL     1       5.287   3.612  13.608  0.00  0.00    +0.000 A 
ENDBRANCH   2   5
BRANCH   3  11
ATOM     11  N   UNL     1       4.471   3.395  17.900  0.00  0.00    +0.000 NA
ATOM     12  C   UNL     1       3.261   2.946  17.971  0.00  0.00    +0.000 C 
BRANCH  12  13
ATOM     13  C   UNL     1       2.617   2.903  19.258  0.00  0.00    +0.000 A 
ATOM     14  C   UNL     1       3.200   2.763  20.548  0.00  0.00    +0.000 A 
ATOM     15  C   UNL     1       2.160   2.759  21.447  0.00  0.00    +0.000 A 
ATOM     16  O   UNL     1       0.976   2.894  20.799  0.00  0.00    +0.000 OA
ATOM     17  C   UNL     1       1.258   2.982  19.473  0.00  0.00    +0.000 A 
ENDBRANCH  12  13
ENDBRANCH   3  11
TORSDOF 3
ENDMDL
MODEL 6
REMARK VINA RESULT:      -6.4      1.484      1.743
REMARK  Name = 
REMARK  3 active torsions:
REMARK  status: ('A' for Active; 'I' for Inactive)
REMARK    1  A    between atoms: C_2  and  C_11
REMARK    2  A    between atoms: N_3  and  N_4
REMARK    3  A    between atoms: C_5  and  C_6
REMARK                            x       y       z     vdW  Elec       q    Type
REMARK                         _______ _______ _______ _____ _____    ______ ____
ROOT
ATOM      1  O   UNL     1       3.635   6.316  17.560  0.00  0.00    +0.000 OA
ATOM      2  C   UNL     1       3.553   5.095  17.639  0.00  0.00    +0.000 C 
ATOM      3  N   UNL     1       4.221   4.183  16.831  0.00  0.00    +0.000 N 
ATOM      4  H   UNL     1       3.993   3.198  16.871  0.00  0.00    +0.000 HD
ENDROOT
BRANCH   2   5
ATOM      5  C   UNL     1       2.645   4.483  18.652  0.00  0.00    +0.000 A 
ATOM      6  C   UNL     1       2.639   4.994  19.956  0.00  0.00    +0.000 A 
ATOM      7  C   UNL     1       1.788   4.445  20.918  0.00  0.00    +0.000 A 
ATOM      8  C   UNL     1       0.950   3.380  20.584  0.00  0.00    +0.000 A 
ATOM      9  C   UNL     1       0.964   2.857  19.294  0.00  0.00    +0.000 A 
ATOM     10  C   UNL     1       1.815   3.399  18.329  0.00  0.00    +0.000 A 
ENDBRANCH   2   5
BRANCH   3  11
ATOM     11  N   UNL     1       5.060   4.628  15.853  0.00  0.00    +0.000 NA
ATOM     12  C   UNL     1       5.503   3.729  15.036  0.00  0.00    +0.000 C 
BRANCH  12  13
ATOM     13  C   UNL     1       6.364   4.141  13.959  0.00  0.00    +0.000 A 
ATOM     14  C   UNL     1       7.385   5.133  13.956  0.00  0.00    +0.000 A 
ATOM     15  C   UNL     1       7.898   5.159  12.681  0.00  0.00    +0.000 A 
ATOM     16  O   UNL     1       7.268   4.246  11.899  0.00  0.00    +0.000 OA
ATOM     17  C   UNL     1       6.340   3.632  12.678  0.00  0.00    +0.000 A 
ENDBRANCH  12  13
ENDBRANCH   3  11
TORSDOF 3
ENDMDL
MODEL 7
REMARK VINA RESULT:      -6.3      5.720      7.217
REMARK  Name = 
REMARK  3 active torsions:
REMARK  status: ('A' for Active; 'I' for Inactive)
REMARK    1  A    between atoms: C_2  and  C_11
REMARK    2  A    between atoms: N_3  and  N_4
REMARK    3  A    between atoms: C_5  and  C_6
REMARK                            x       y       z     vdW  Elec       q    Type
REMARK                         _______ _______ _______ _____ _____    ______ ____
ROOT
ATOM      1  O   UNL     1       8.040   5.905  19.428  0.00  0.00    +0.000 OA
ATOM      2  C   UNL     1       7.588   6.424  18.413  0.00  0.00    +0.000 C 
ATOM      3  N   UNL     1       7.838   7.722  17.986  0.00  0.00    +0.000 N 
ATOM      4  H   UNL     1       7.317   8.118  17.213  0.00  0.00    +0.000 HD
ENDROOT
BRANCH   2   5
ATOM      5  C   UNL     1       6.656   5.649  17.543  0.00  0.00    +0.000 A 
ATOM      6  C   UNL     1       5.276   5.842  17.686  0.00  0.00    +0.000 A 
ATOM      7  C   UNL     1       4.384   5.137  16.874  0.00  0.00    +0.000 A 
ATOM      8  C   UNL     1       4.866   4.234  15.926  0.00  0.00    +0.000 A 
ATOM      9  C   UNL     1       6.236   4.027  15.792  0.00  0.00    +0.000 A 
ATOM     10  C   UNL     1       7.132   4.725  16.602  0.00  0.00    +0.000 A 
ENDBRANCH   2   5
BRANCH   3  11
ATOM     11  N   UNL     1       8.657   8.533  18.715  0.00  0.00    +0.000 NA
ATOM     12  C   UNL     1       8.731   9.762  18.322  0.00  0.00    +0.000 C 
BRANCH  12  13
ATOM     13  C   UNL     1       9.550  10.677  19.073  0.00  0.00    +0.000 A 
ATOM     14  C   UNL     1      10.646  11.470  18.630  0.00  0.00    +0.000 A 
ATOM     15  C   UNL     1      11.101  12.155  19.731  0.00  0.00    +0.000 A 
ATOM     16  O   UNL     1      10.355  11.844  20.822  0.00  0.00    +0.000 OA
ATOM     17  C   UNL     1       9.417  10.950  20.417  0.00  0.00    +0.000 A 
ENDBRANCH  12  13
ENDBRANCH   3  11
TORSDOF 3
ENDMDL
MODEL 8
REMARK VINA RESULT:      -6.3      1.592      7.330
REMARK  Name = 
REMARK  3 active torsions:
REMARK  status: ('A' for Active; 'I' for Inactive)
REMARK    1  A    between atoms: C_2  and  C_11
REMARK    2  A    between atoms: N_3  and  N_4
REMARK    3  A    between atoms: C_5  and  C_6
REMARK                            x       y       z     vdW  Elec       q    Type
REMARK                         _______ _______ _______ _____ _____    ______ ____
ROOT
ATOM      1  O   UNL     1       5.141   6.013  16.090  0.00  0.00    +0.000 OA
ATOM      2  C   UNL     1       5.502   4.877  15.806  0.00  0.00    +0.000 C 
ATOM      3  N   UNL     1       5.445   3.773  16.648  0.00  0.00    +0.000 N 
ATOM      4  H   UNL     1       5.890   2.903  16.386  0.00  0.00    +0.000 HD
ENDROOT
BRANCH   2   5
ATOM      5  C   UNL     1       6.092   4.606  14.463  0.00  0.00    +0.000 A 
ATOM      6  C   UNL     1       5.460   3.688  13.615  0.00  0.00    +0.000 A 
ATOM      7  C   UNL     1       5.988   3.428  12.348  0.00  0.00    +0.000 A 
ATOM      8  C   UNL     1       7.150   4.076  11.928  0.00  0.00    +0.000 A 
ATOM      9  C   UNL     1       7.792   4.977  12.774  0.00  0.00    +0.000 A 
ATOM     10  C   UNL     1       7.272   5.238  14.042  0.00  0.00    +0.000 A 
ENDBRANCH   2   5
BRANCH   3  11
ATOM     11  N   UNL     1       4.947   3.906  17.911  0.00  0.00    +0.000 NA
ATOM     12  C   UNL     1       3.756   3.440  18.100  0.00  0.00    +0.000 C 
BRANCH  12  13
ATOM     13  C   UNL     1       3.188   3.517  19.420  0.00  0.00    +0.000 A 
ATOM     14  C   UNL     1       2.411   4.558  20.003  0.00  0.00    +0.000 A 
ATOM     15  C   UNL     1       2.129   4.160  21.288  0.00  0.00    +0.000 A 
ATOM     16  O   UNL     1       2.674   2.942  21.535  0.00  0.00    +0.000 OA
ATOM     17  C   UNL     1       3.313   2.557  20.401  0.00  0.00    +0.000 A 
ENDBRANCH  12  13
ENDBRANCH   3  11
TORSDOF 3
ENDMDL
MODEL 9
REMARK VINA RESULT:      -6.3      1.430      1.434
REMARK  Name = 
REMARK  3 active torsions:
REMARK  status: ('A' for Active; 'I' for Inactive)
REMARK    1  A    between atoms: C_2  and  C_11
REMARK    2  A    between atoms: N_3  and  N_4
REMARK    3  A    between atoms: C_5  and  C_6
REMARK                            x       y       z     vdW  Elec       q    Type
REMARK                         _______ _______ _______ _____ _____    ______ ____
ROOT
ATOM      1  O   UNL     1       2.238   3.214  16.675  0.00  0.00    +0.000 OA
ATOM      2  C   UNL     1       2.923   3.774  17.524  0.00  0.00    +0.000 C 
ATOM      3  N   UNL     1       4.085   4.496  17.284  0.00  0.00    +0.000 N 
ATOM      4  H   UNL     1       4.664   4.808  18.053  0.00  0.00    +0.000 HD
ENDROOT
BRANCH   2   5
ATOM      5  C   UNL     1       2.537   3.674  18.962  0.00  0.00    +0.000 A 
ATOM      6  C   UNL     1       2.055   2.454  19.453  0.00  0.00    +0.000 A 
ATOM      7  C   UNL     1       1.699   2.333  20.799  0.00  0.00    +0.000 A 
ATOM      8  C   UNL     1       1.815   3.430  21.654  0.00  0.00    +0.000 A 
ATOM      9  C   UNL     1       2.278   4.650  21.167  0.00  0.00    +0.000 A 
ATOM     10  C   UNL     1       2.631   4.778  19.823  0.00  0.00    +0.000 A 
ENDBRANCH   2   5
BRANCH   3  11
ATOM     11  N   UNL     1       4.549   4.634  16.009  0.00  0.00    +0.000 NA
ATOM     12  C   UNL     1       5.708   4.114  15.770  0.00  0.00    +0.000 C 
BRANCH  12  13
ATOM     13  C   UNL     1       6.237   4.194  14.434  0.00  0.00    +0.000 A 
ATOM     14  C   UNL     1       5.820   3.502  13.262  0.00  0.00    +0.000 A 
ATOM     15  C   UNL     1       6.656   3.911  12.250  0.00  0.00    +0.000 A 
ATOM     16  O   UNL     1       7.555   4.814  12.717  0.00  0.00    +0.000 OA
ATOM     17  C   UNL     1       7.297   4.982  14.040  0.00  0.00    +0.000 A 
ENDBRANCH  12  13
ENDBRANCH   3  11
TORSDOF 3
ENDMDL
