MODEL 1
REMARK VINA RESULT:      -6.8      0.000      0.000
REMARK  Name = 
REMARK  11 active torsions:
REMARK  status: ('A' for Active; 'I' for Inactive)
REMARK    1  A    between atoms: C_1  and  C_2
REMARK    2  A    between atoms: C_2  and  N_3
REMARK    3  A    between atoms: N_3  and  C_4
REMARK    4  A    between atoms: N_3  and  C_6
REMARK    5  A    between atoms: C_4  and  C_5
REMARK    6  A    between atoms: C_6  and  C_7
REMARK    7  A    between atoms: C_7  and  N_8
REMARK    8  A    between atoms: C_9  and  C_11
REMARK    9  A    between atoms: C_12  and  N_13
REMARK   10  A    between atoms: N_20  and  C_21
REMARK   11  A    between atoms: C_21  and  C_22
REMARK                            x       y       z     vdW  Elec       q    Type
REMARK                         _______ _______ _______ _____ _____    ______ ____
ROOT
ATOM      1  C   UNL     1       4.579   4.706  17.264  0.00  0.00    +0.000 A 
ATOM      2  C   UNL     1       4.030   3.600  17.822  0.00  0.00    +0.000 A 
ATOM      3  C   UNL     1       3.003   3.770  18.877  0.00  0.00    +0.000 A 
ATOM      4  C   UNL     1       2.443   2.679  19.561  0.00  0.00    +0.000 A 
ATOM      5  C   UNL     1       1.488   2.874  20.551  0.00  0.00    +0.000 A 
ATOM      6  C   UNL     1       1.121   4.168  20.842  0.00  0.00    +0.000 A 
ATOM      7  N   UNL     1       1.633   5.249  20.217  0.00  0.00    +0.000 NA
ATOM      8  C   UNL     1       2.566   5.043  19.249  0.00  0.00    +0.000 A 
ATOM      9  N   UNL     1       3.116   6.177  18.608  0.00  0.00    +0.000 N 
ATOM     10  C   UNL     1       4.137   6.074  17.681  0.00  0.00    +0.000 A 
ATOM     11  O   UNL     1       4.678   7.068  17.190  0.00  0.00    +0.000 OA
ENDROOT
BRANCH   1  13
ATOM     12  N   UNL     1       5.305   4.745  14.927  0.00  0.00    +0.000 N 
ATOM     13  C   UNL     1       5.656   4.508  16.230  0.00  0.00    +0.000 C 
ATOM     14  O   UNL     1       6.801   4.181  16.542  0.00  0.00    +0.000 OA
ATOM     15  H   UNL     1       4.313   4.775  14.686  0.00  0.00    +0.000 HD
BRANCH  12  16
ATOM     16  C   UNL     1       6.269   4.673  13.849  0.00  0.00    +0.000 C 
BRANCH  16  17
ATOM     17  C   UNL     1       6.350   3.280  13.198  0.00  0.00    +0.000 C 
BRANCH  17  18
ATOM     18  N   UNL     1       5.698   3.157  11.873  0.00  0.00    +0.000 NA
BRANCH  18  20
ATOM     19  C   UNL     1       7.402   1.512  10.998  0.00  0.00    +0.000 C 
ATOM     20  C   UNL     1       5.936   1.838  11.261  0.00  0.00    +0.000 C 
ENDBRANCH  18  20
BRANCH  18  21
ATOM     21  C   UNL     1       4.279   3.543  11.943  0.00  0.00    +0.000 C 
ATOM     22  C   UNL     1       3.469   3.380  10.658  0.00  0.00    +0.000 C 
ENDBRANCH  18  21
ENDBRANCH  17  18
ENDBRANCH  16  17
ENDBRANCH  12  16
ENDBRANCH   1  13
BRANCH   2  23
ATOM     23  N   UNL     1       4.373   2.284  17.515  0.00  0.00    +0.000 N 
ATOM     24  H   UNL     1       3.569   1.650  17.639  0.00  0.00    +0.000 HD
ATOM     25  H   UNL     1       5.142   1.936  18.085  0.00  0.00    +0.000 HD
ENDBRANCH   2  23
BRANCH   9  26
ATOM     26  C   UNL     1       2.619   7.499  18.989  0.00  0.00    +0.000 C 
ATOM     27  C   UNL     1       1.878   8.202  17.860  0.00  0.00    +0.000 C 
ENDBRANCH   9  26
TORSDOF 8
ENDMDL
MODEL 2
REMARK VINA RESULT:      -6.6      3.476      5.755
REMARK  Name = 
REMARK  11 active torsions:
REMARK  status: ('A' for Active; 'I' for Inactive)
REMARK    1  A    between atoms: C_1  and  C_2
REMARK    2  A    between atoms: C_2  and  N_3
REMARK    3  A    between atoms: N_3  and  C_4
REMARK    4  A    between atoms: N_3  and  C_6
REMARK    5  A    between atoms: C_4  and  C_5
REMARK    6  A    between atoms: C_6  and  C_7
REMARK    7  A    between atoms: C_7  and  N_8
REMARK    8  A    between atoms: C_9  and  C_11
REMARK    9  A    between atoms: C_12  and  N_13
REMARK   10  A    between atoms: N_20  and  C_21
REMARK   11  A    between atoms: C_21  and  C_22
REMARK                            x       y       z     vdW  Elec       q    Type
REMARK                         _______ _______ _______ _____ _____    ______ ____
ROOT
ATOM      1  C   UNL     1       1.880   8.249  19.063  0.00  0.00    +0.000 A 
ATOM      2  C   UNL     1       1.523   7.936  20.333  0.00  0.00    +0.000 A 
ATOM      3  C   UNL     1       0.806   8.950  21.142  0.00  0.00    +0.000 A 
ATOM      4  C   UNL     1       0.471   8.734  22.488  0.00  0.00    +0.000 A 
ATOM      5  C   UNL     1      -0.194   9.709  23.222  0.00  0.00    +0.000 A 
ATOM      6  C   UNL     1      -0.501  10.890  22.586  0.00  0.00    +0.000 A 
ATOM      7  N   UNL     1      -0.198  11.147  21.296  0.00  0.00    +0.000 NA
ATOM      8  C   UNL     1       0.453  10.183  20.591  0.00  0.00    +0.000 A 
ATOM      9  N   UNL     1       0.788  10.460  19.245  0.00  0.00    +0.000 N 
ATOM     10  C   UNL     1       1.532   9.582  18.478  0.00  0.00    +0.000 A 
ATOM     11  O   UNL     1       1.900   9.863  17.334  0.00  0.00    +0.000 OA
ENDROOT
BRANCH   1  13
ATOM     12  N   UNL     1       3.714   7.680  17.547  0.00  0.00    +0.000 N 
ATOM     13  C   UNL     1       2.651   7.221  18.279  0.00  0.00    +0.000 C 
ATOM     14  O   UNL     1       2.361   6.025  18.319  0.00  0.00    +0.000 OA
ATOM     15  H   UNL     1       3.775   8.679  17.348  0.00  0.00    +0.000 HD
BRANCH  12  16
ATOM     16  C   UNL     1       4.587   6.783  16.818  0.00  0.00    +0.000 C 
BRANCH  16  17
ATOM     17  C   UNL     1       6.046   6.821  17.310  0.00  0.00    +0.000 C 
BRANCH  17  18
ATOM     18  N   UNL     1       6.908   5.715  16.833  0.00  0.00    +0.000 NA
BRANCH  18  20
ATOM     19  C   UNL     1       7.945   5.744  19.134  0.00  0.00    +0.000 C 
ATOM     20  C   UNL     1       7.457   4.923  17.946  0.00  0.00    +0.000 C 
ENDBRANCH  18  20
BRANCH  18  21
ATOM     21  C   UNL     1       6.223   4.916  15.803  0.00  0.00    +0.000 C 
ATOM     22  C   UNL     1       6.949   4.767  14.467  0.00  0.00    +0.000 C 
ENDBRANCH  18  21
ENDBRANCH  17  18
ENDBRANCH  16  17
ENDBRANCH  12  16
ENDBRANCH   1  13
BRANCH   2  23
ATOM     23  N   UNL     1       1.804   6.732  20.977  0.00  0.00    +0.000 N 
ATOM     24  H   UNL     1       2.770   6.720  21.340  0.00  0.00    +0.000 HD
ATOM     25  H   UNL     1       1.685   5.923  20.368  0.00  0.00    +0.000 HD
ENDBRANCH   2  23
BRANCH   9  26
ATOM     26  C   UNL     1       0.378  11.744  18.678  0.00  0.00    +0.000 C 
ATOM     27  C   UNL     1      -1.035  11.718  18.113  0.00  0.00    +0.000 C 
ENDBRANCH   9  26
TORSDOF 8
ENDMDL
MODEL 3
REMARK VINA RESULT:      -6.6      3.486      5.868
REMARK  Name = 
REMARK  11 active torsions:
REMARK  status: ('A' for Active; 'I' for Inactive)
REMARK    1  A    between atoms: C_1  and  C_2
REMARK    2  A    between atoms: C_2  and  N_3
REMARK    3  A    between atoms: N_3  and  C_4
REMARK    4  A    between atoms: N_3  and  C_6
REMARK    5  A    between atoms: C_4  and  C_5
REMARK    6  A    between atoms: C_6  and  C_7
REMARK    7  A    between atoms: C_7  and  N_8
REMARK    8  A    between atoms: C_9  and  C_11
REMARK    9  A    between atoms: C_12  and  N_13
REMARK   10  A    between atoms: N_20  and  C_21
REMARK   11  A    between atoms: C_21  and  C_22
REMARK                            x       y       z     vdW  Elec       q    Type
REMARK                         _______ _______ _______ _____ _____    ______ ____
ROOT
ATOM      1  C   UNL     1       1.819   8.252  19.157  0.00  0.00    +0.000 A 
ATOM      2  C   UNL     1       1.391   7.993  20.417  0.00  0.00    +0.000 A 
ATOM      3  C   UNL     1       0.695   9.066  21.166  0.00  0.00    +0.000 A 
ATOM      4  C   UNL     1       0.291   8.905  22.501  0.00  0.00    +0.000 A 
ATOM      5  C   UNL     1      -0.353   9.935  23.178  0.00  0.00    +0.000 A 
ATOM      6  C   UNL     1      -0.569  11.112  22.499  0.00  0.00    +0.000 A 
ATOM      7  N   UNL     1      -0.196  11.316  21.218  0.00  0.00    +0.000 NA
ATOM      8  C   UNL     1       0.432  10.300  20.568  0.00  0.00    +0.000 A 
ATOM      9  N   UNL     1       0.840  10.521  19.232  0.00  0.00    +0.000 N 
ATOM     10  C   UNL     1       1.569   9.584  18.522  0.00  0.00    +0.000 A 
ATOM     11  O   UNL     1       2.001   9.814  17.389  0.00  0.00    +0.000 OA
ENDROOT
BRANCH   1  13
ATOM     12  N   UNL     1       3.689   7.543  17.747  0.00  0.00    +0.000 N 
ATOM     13  C   UNL     1       2.568   7.163  18.434  0.00  0.00    +0.000 C 
ATOM     14  O   UNL     1       2.208   5.986  18.486  0.00  0.00    +0.000 OA
ATOM     15  H   UNL     1       3.817   8.533  17.529  0.00  0.00    +0.000 HD
BRANCH  12  16
ATOM     16  C   UNL     1       4.544   6.581  17.082  0.00  0.00    +0.000 C 
BRANCH  16  17
ATOM     17  C   UNL     1       5.402   5.755  18.057  0.00  0.00    +0.000 C 
BRANCH  17  18
ATOM     18  N   UNL     1       6.131   4.615  17.455  0.00  0.00    +0.000 NA
BRANCH  18  20
ATOM     19  C   UNL     1       7.025   4.707  15.096  0.00  0.00    +0.000 C 
ATOM     20  C   UNL     1       5.836   4.466  16.020  0.00  0.00    +0.000 C 
ENDBRANCH  18  20
BRANCH  18  21
ATOM     21  C   UNL     1       7.568   4.677  17.773  0.00  0.00    +0.000 C 
ATOM     22  C   UNL     1       7.974   5.641  18.887  0.00  0.00    +0.000 C 
ENDBRANCH  18  21
ENDBRANCH  17  18
ENDBRANCH  16  17
ENDBRANCH  12  16
ENDBRANCH   1  13
BRANCH   2  23
ATOM     23  N   UNL     1       1.579   6.795  21.104  0.00  0.00    +0.000 N 
ATOM     24  H   UNL     1       1.349   5.984  20.508  0.00  0.00    +0.000 HD
ATOM     25  H   UNL     1       1.016   6.736  21.951  0.00  0.00    +0.000 HD
ENDBRANCH   2  23
BRANCH   9  26
ATOM     26  C   UNL     1       0.524  11.808  18.614  0.00  0.00    +0.000 C 
ATOM     27  C   UNL     1       1.664  12.811  18.719  0.00  0.00    +0.000 C 
ENDBRANCH   9  26
TORSDOF 8
ENDMDL
MODEL 4
REMARK VINA RESULT:      -6.5      3.299      5.763
REMARK  Name = 
REMARK  11 active torsions:
REMARK  status: ('A' for Active; 'I' for Inactive)
REMARK    1  A    between atoms: C_1  and  C_2
REMARK    2  A    between atoms: C_2  and  N_3
REMARK    3  A    between atoms: N_3  and  C_4
REMARK    4  A    between atoms: N_3  and  C_6
REMARK    5  A    between atoms: C_4  and  C_5
REMARK    6  A    between atoms: C_6  and  C_7
REMARK    7  A    between atoms: C_7  and  N_8
REMARK    8  A    between atoms: C_9  and  C_11
REMARK    9  A    between atoms: C_12  and  N_13
REMARK   10  A    between atoms: N_20  and  C_21
REMARK   11  A    between atoms: C_21  and  C_22
REMARK                            x       y       z     vdW  Elec       q    Type
REMARK                         _______ _______ _______ _____ _____    ______ ____
ROOT
ATOM      1  C   UNL     1       1.907   8.299  19.047  0.00  0.00    +0.000 A 
ATOM      2  C   UNL     1       1.496   7.975  20.297  0.00  0.00    +0.000 A 
ATOM      3  C   UNL     1       0.792   9.000  21.103  0.00  0.00    +0.000 A 
ATOM      4  C   UNL     1       0.405   8.771  22.434  0.00  0.00    +0.000 A 
ATOM      5  C   UNL     1      -0.247   9.757  23.165  0.00  0.00    +0.000 A 
ATOM      6  C   UNL     1      -0.488  10.961  22.543  0.00  0.00    +0.000 A 
ATOM      7  N   UNL     1      -0.132  11.231  21.270  0.00  0.00    +0.000 NA
ATOM      8  C   UNL     1       0.505  10.257  20.566  0.00  0.00    +0.000 A 
ATOM      9  N   UNL     1       0.894  10.546  19.238  0.00  0.00    +0.000 N 
ATOM     10  C   UNL     1       1.629   9.655  18.478  0.00  0.00    +0.000 A 
ATOM     11  O   UNL     1       2.046   9.944  17.353  0.00  0.00    +0.000 OA
ENDROOT
BRANCH   1  13
ATOM     12  N   UNL     1       3.830   7.662  17.675  0.00  0.00    +0.000 N 
ATOM     13  C   UNL     1       2.664   7.257  18.266  0.00  0.00    +0.000 C 
ATOM     14  O   UNL     1       2.272   6.092  18.192  0.00  0.00    +0.000 OA
ATOM     15  H   UNL     1       3.995   8.663  17.554  0.00  0.00    +0.000 HD
BRANCH  12  16
ATOM     16  C   UNL     1       4.694   6.738  16.969  0.00  0.00    +0.000 C 
BRANCH  16  17
ATOM     17  C   UNL     1       5.608   5.926  17.904  0.00  0.00    +0.000 C 
BRANCH  17  18
ATOM     18  N   UNL     1       5.572   4.457  17.712  0.00  0.00    +0.000 NA
BRANCH  18  20
ATOM     19  C   UNL     1       3.730   2.879  18.410  0.00  0.00    +0.000 C 
ATOM     20  C   UNL     1       4.894   3.771  18.825  0.00  0.00    +0.000 C 
ENDBRANCH  18  20
BRANCH  18  21
ATOM     21  C   UNL     1       5.049   4.110  16.380  0.00  0.00    +0.000 C 
ATOM     22  C   UNL     1       6.086   3.736  15.322  0.00  0.00    +0.000 C 
ENDBRANCH  18  21
ENDBRANCH  17  18
ENDBRANCH  16  17
ENDBRANCH  12  16
ENDBRANCH   1  13
BRANCH   2  23
ATOM     23  N   UNL     1       1.710   6.749  20.926  0.00  0.00    +0.000 N 
ATOM     24  H   UNL     1       2.192   6.872  21.829  0.00  0.00    +0.000 HD
ATOM     25  H   UNL     1       2.262   6.107  20.357  0.00  0.00    +0.000 HD
ENDBRANCH   2  23
BRANCH   9  26
ATOM     26  C   UNL     1       0.552  11.856  18.685  0.00  0.00    +0.000 C 
ATOM     27  C   UNL     1       1.683  12.866  18.811  0.00  0.00    +0.000 C 
ENDBRANCH   9  26
TORSDOF 8
ENDMDL
MODEL 5
REMARK VINA RESULT:      -6.5      3.730      5.959
REMARK  Name = 
REMARK  11 active torsions:
REMARK  status: ('A' for Active; 'I' for Inactive)
REMARK    1  A    between atoms: C_1  and  C_2
REMARK    2  A    between atoms: C_2  and  N_3
REMARK    3  A    between atoms: N_3  and  C_4
REMARK    4  A    between atoms: N_3  and  C_6
REMARK    5  A    between atoms: C_4  and  C_5
REMARK    6  A    between atoms: C_6  and  C_7
REMARK    7  A    between atoms: C_7  and  N_8
REMARK    8  A    between atoms: C_9  and  C_11
REMARK    9  A    between atoms: C_12  and  N_13
REMARK   10  A    between atoms: N_20  and  C_21
REMARK   11  A    between atoms: C_21  and  C_22
REMARK                            x       y       z     vdW  Elec       q    Type
REMARK                         _______ _______ _______ _____ _____    ______ ____
ROOT
ATOM      1  C   UNL     1       1.796   8.254  19.172  0.00  0.00    +0.000 A 
ATOM      2  C   UNL     1       1.435   7.989  20.452  0.00  0.00    +0.000 A 
ATOM      3  C   UNL     1       0.716   9.033  21.219  0.00  0.00    +0.000 A 
ATOM      4  C   UNL     1       0.377   8.869  22.572  0.00  0.00    +0.000 A 
ATOM      5  C   UNL     1      -0.290   9.872  23.265  0.00  0.00    +0.000 A 
ATOM      6  C   UNL     1      -0.596  11.027  22.583  0.00  0.00    +0.000 A 
ATOM      7  N   UNL     1      -0.288  11.234  21.286  0.00  0.00    +0.000 NA
ATOM      8  C   UNL     1       0.364  10.244  20.620  0.00  0.00    +0.000 A 
ATOM      9  N   UNL     1       0.703  10.469  19.265  0.00  0.00    +0.000 N 
ATOM     10  C   UNL     1       1.449   9.562  18.535  0.00  0.00    +0.000 A 
ATOM     11  O   UNL     1       1.821   9.800  17.382  0.00  0.00    +0.000 OA
ENDROOT
BRANCH   1  13
ATOM     12  N   UNL     1       3.744   7.592  17.848  0.00  0.00    +0.000 N 
ATOM     13  C   UNL     1       2.569   7.196  18.429  0.00  0.00    +0.000 C 
ATOM     14  O   UNL     1       2.182   6.028  18.376  0.00  0.00    +0.000 OA
ATOM     15  H   UNL     1       3.908   8.590  17.707  0.00  0.00    +0.000 HD
BRANCH  12  16
ATOM     16  C   UNL     1       4.622   6.654  17.179  0.00  0.00    +0.000 C 
BRANCH  16  17
ATOM     17  C   UNL     1       5.571   5.916  18.142  0.00  0.00    +0.000 C 
BRANCH  17  18
ATOM     18  N   UNL     1       6.966   5.764  17.668  0.00  0.00    +0.000 NA
BRANCH  18  20
ATOM     19  C   UNL     1       7.062   4.717  15.373  0.00  0.00    +0.000 C 
ATOM     20  C   UNL     1       7.152   4.531  16.884  0.00  0.00    +0.000 C 
ENDBRANCH  18  20
BRANCH  18  21
ATOM     21  C   UNL     1       7.432   6.986  16.992  0.00  0.00    +0.000 C 
ATOM     22  C   UNL     1       7.948   8.105  17.895  0.00  0.00    +0.000 C 
ENDBRANCH  18  21
ENDBRANCH  17  18
ENDBRANCH  16  17
ENDBRANCH  12  16
ENDBRANCH   1  13
BRANCH   2  23
ATOM     23  N   UNL     1       1.715   6.810  21.142  0.00  0.00    +0.000 N 
ATOM     24  H   UNL     1       1.012   6.634  21.877  0.00  0.00    +0.000 HD
ATOM     25  H   UNL     1       2.635   6.822  21.580  0.00  0.00    +0.000 HD
ENDBRANCH   2  23
BRANCH   9  26
ATOM     26  C   UNL     1       0.294  11.731  18.648  0.00  0.00    +0.000 C 
ATOM     27  C   UNL     1      -1.130  11.695  18.114  0.00  0.00    +0.000 C 
ENDBRANCH   9  26
TORSDOF 8
ENDMDL
MODEL 6
REMARK VINA RESULT:      -6.5      3.466      8.814
REMARK  Name = 
REMARK  11 active torsions:
REMARK  status: ('A' for Active; 'I' for Inactive)
REMARK    1  A    between atoms: C_1  and  C_2
REMARK    2  A    between atoms: C_2  and  N_3
REMARK    3  A    between atoms: N_3  and  C_4
REMARK    4  A    between atoms: N_3  and  C_6
REMARK    5  A    between atoms: C_4  and  C_5
REMARK    6  A    between atoms: C_6  and  C_7
REMARK    7  A    between atoms: C_7  and  N_8
REMARK    8  A    between atoms: C_9  and  C_11
REMARK    9  A    between atoms: C_12  and  N_13
REMARK   10  A    between atoms: N_20  and  C_21
REMARK   11  A    between atoms: C_21  and  C_22
REMARK                            x       y       z     vdW  Elec       q    Type
REMARK                         _______ _______ _______ _____ _____    ______ ____
ROOT
ATOM      1  C   UNL     1       2.492   6.713  19.184  0.00  0.00    +0.000 A 
ATOM      2  C   UNL     1       3.281   6.954  18.108  0.00  0.00    +0.000 A 
ATOM      3  C   UNL     1       3.963   5.811  17.456  0.00  0.00    +0.000 A 
ATOM      4  C   UNL     1       4.858   5.983  16.388  0.00  0.00    +0.000 A 
ATOM      5  C   UNL     1       5.487   4.890  15.804  0.00  0.00    +0.000 A 
ATOM      6  C   UNL     1       5.210   3.643  16.314  0.00  0.00    +0.000 A 
ATOM      7  N   UNL     1       4.362   3.426  17.341  0.00  0.00    +0.000 NA
ATOM      8  C   UNL     1       3.753   4.505  17.903  0.00  0.00    +0.000 A 
ATOM      9  N   UNL     1       2.878   4.279  18.991  0.00  0.00    +0.000 N 
ATOM     10  C   UNL     1       2.288   5.319  19.687  0.00  0.00    +0.000 A 
ATOM     11  O   UNL     1       1.598   5.125  20.691  0.00  0.00    +0.000 OA
ENDROOT
BRANCH   1  13
ATOM     12  N   UNL     1       1.828   7.882  21.229  0.00  0.00    +0.000 N 
ATOM     13  C   UNL     1       1.850   7.896  19.860  0.00  0.00    +0.000 C 
ATOM     14  O   UNL     1       1.398   8.843  19.215  0.00  0.00    +0.000 OA
ATOM     15  H   UNL     1       1.986   6.995  21.711  0.00  0.00    +0.000 HD
BRANCH  12  16
ATOM     16  C   UNL     1       1.317   8.997  21.999  0.00  0.00    +0.000 C 
BRANCH  16  17
ATOM     17  C   UNL     1      -0.219   9.096  21.978  0.00  0.00    +0.000 C 
BRANCH  17  18
ATOM     18  N   UNL     1      -0.767  10.467  21.851  0.00  0.00    +0.000 NA
BRANCH  18  20
ATOM     19  C   UNL     1      -1.511  12.485  23.173  0.00  0.00    +0.000 C 
ATOM     20  C   UNL     1      -1.279  10.979  23.134  0.00  0.00    +0.000 C 
ENDBRANCH  18  20
BRANCH  18  21
ATOM     21  C   UNL     1       0.194  11.361  21.184  0.00  0.00    +0.000 C 
ATOM     22  C   UNL     1      -0.185  11.839  19.783  0.00  0.00    +0.000 C 
ENDBRANCH  18  21
ENDBRANCH  17  18
ENDBRANCH  16  17
ENDBRANCH  12  16
ENDBRANCH   1  13
BRANCH   2  23
ATOM     23  N   UNL     1       3.546   8.210  17.565  0.00  0.00    +0.000 N 
ATOM     24  H   UNL     1       2.675   8.680  17.270  0.00  0.00    +0.000 HD
ATOM     25  H   UNL     1       4.170   8.166  16.761  0.00  0.00    +0.000 HD
ENDBRANCH   2  23
BRANCH   9  26
ATOM     26  C   UNL     1       2.646   2.900  19.420  0.00  0.00    +0.000 C 
ATOM     27  C   UNL     1       1.390   2.293  18.811  0.00  0.00    +0.000 C 
ENDBRANCH   9  26
TORSDOF 8
ENDMDL
MODEL 7
REMARK VINA RESULT:      -6.5      0.517      1.472
REMARK  Name = 
REMARK  11 active torsions:
REMARK  status: ('A' for Active; 'I' for Inactive)
REMARK    1  A    between atoms: C_1  and  C_2
REMARK    2  A    between atoms: C_2  and  N_3
REMARK    3  A    between atoms: N_3  and  C_4
REMARK    4  A    between atoms: N_3  and  C_6
REMARK    5  A    between atoms: C_4  and  C_5
REMARK    6  A    between atoms: C_6  and  C_7
REMARK    7  A    between atoms: C_7  and  N_8
REMARK    8  A    between atoms: C_9  and  C_11
REMARK    9  A    between atoms: C_12  and  N_13
REMARK   10  A    between atoms: N_20  and  C_21
REMARK   11  A    between atoms: C_21  and  C_22
REMARK                            x       y       z     vdW  Elec       q    Type
REMARK                         _______ _______ _______ _____ _____    ______ ____
ROOT
ATOM      1  C   UNL     1       4.815   4.567  17.181  0.00  0.00    +0.000 A 
ATOM      2  C   UNL     1       4.107   3.487  17.595  0.00  0.00    +0.000 A 
ATOM      3  C   UNL     1       2.951   3.697  18.498  0.00  0.00    +0.000 A 
ATOM      4  C   UNL     1       2.217   2.629  19.036  0.00  0.00    +0.000 A 
ATOM      5  C   UNL     1       1.142   2.860  19.887  0.00  0.00    +0.000 A 
ATOM      6  C   UNL     1       0.834   4.167  20.188  0.00  0.00    +0.000 A 
ATOM      7  N   UNL     1       1.512   5.227  19.700  0.00  0.00    +0.000 NA
ATOM      8  C   UNL     1       2.560   4.986  18.869  0.00  0.00    +0.000 A 
ATOM      9  N   UNL     1       3.282   6.096  18.373  0.00  0.00    +0.000 N 
ATOM     10  C   UNL     1       4.419   5.947  17.600  0.00  0.00    +0.000 A 
ATOM     11  O   UNL     1       5.099   6.914  17.244  0.00  0.00    +0.000 OA
ENDROOT
BRANCH   1  13
ATOM     12  N   UNL     1       5.800   4.343  14.952  0.00  0.00    +0.000 N 
ATOM     13  C   UNL     1       6.015   4.323  16.304  0.00  0.00    +0.000 C 
ATOM     14  O   UNL     1       7.138   4.148  16.778  0.00  0.00    +0.000 OA
ATOM     15  H   UNL     1       4.843   4.249  14.608  0.00  0.00    +0.000 HD
BRANCH  12  16
ATOM     16  C   UNL     1       6.884   4.207  14.001  0.00  0.00    +0.000 C 
BRANCH  16  17
ATOM     17  C   UNL     1       6.403   4.106  12.542  0.00  0.00    +0.000 C 
BRANCH  17  18
ATOM     18  N   UNL     1       5.303   3.144  12.299  0.00  0.00    +0.000 NA
BRANCH  18  20
ATOM     19  C   UNL     1       3.406   2.900  10.651  0.00  0.00    +0.000 C 
ATOM     20  C   UNL     1       4.144   3.783  11.651  0.00  0.00    +0.000 C 
ENDBRANCH  18  20
BRANCH  18  21
ATOM     21  C   UNL     1       5.795   1.941  11.606  0.00  0.00    +0.000 C 
ATOM     22  C   UNL     1       7.233   1.995  11.094  0.00  0.00    +0.000 C 
ENDBRANCH  18  21
ENDBRANCH  17  18
ENDBRANCH  16  17
ENDBRANCH  12  16
ENDBRANCH   1  13
BRANCH   2  23
ATOM     23  N   UNL     1       4.394   2.161  17.273  0.00  0.00    +0.000 N 
ATOM     24  H   UNL     1       5.308   2.082  16.800  0.00  0.00    +0.000 HD
ATOM     25  H   UNL     1       3.688   1.743  16.669  0.00  0.00    +0.000 HD
ENDBRANCH   2  23
BRANCH   9  26
ATOM     26  C   UNL     1       2.833   7.437  18.746  0.00  0.00    +0.000 C 
ATOM     27  C   UNL     1       2.003   8.108  17.661  0.00  0.00    +0.000 C 
ENDBRANCH   9  26
TORSDOF 8
ENDMDL
MODEL 8
REMARK VINA RESULT:      -6.4      3.567      8.836
REMARK  Name = 
REMARK  11 active torsions:
REMARK  status: ('A' for Active; 'I' for Inactive)
REMARK    1  A    between atoms: C_1  and  C_2
REMARK    2  A    between atoms: C_2  and  N_3
REMARK    3  A    between atoms: N_3  and  C_4
REMARK    4  A    between atoms: N_3  and  C_6
REMARK    5  A    between atoms: C_4  and  C_5
REMARK    6  A    between atoms: C_6  and  C_7
REMARK    7  A    between atoms: C_7  and  N_8
REMARK    8  A    between atoms: C_9  and  C_11
REMARK    9  A    between atoms: C_12  and  N_13
REMARK   10  A    between atoms: N_20  and  C_21
REMARK   11  A    between atoms: C_21  and  C_22
REMARK                            x       y       z     vdW  Elec       q    Type
REMARK                         _______ _______ _______ _____ _____    ______ ____
ROOT
ATOM      1  C   UNL     1       2.403   6.763  19.302  0.00  0.00    +0.000 A 
ATOM      2  C   UNL     1       3.203   6.987  18.231  0.00  0.00    +0.000 A 
ATOM      3  C   UNL     1       3.830   5.826  17.556  0.00  0.00    +0.000 A 
ATOM      4  C   UNL     1       4.732   5.976  16.491  0.00  0.00    +0.000 A 
ATOM      5  C   UNL     1       5.309   4.866  15.885  0.00  0.00    +0.000 A 
ATOM      6  C   UNL     1       4.972   3.623  16.371  0.00  0.00    +0.000 A 
ATOM      7  N   UNL     1       4.113   3.428  17.394  0.00  0.00    +0.000 NA
ATOM      8  C   UNL     1       3.557   4.522  17.977  0.00  0.00    +0.000 A 
ATOM      9  N   UNL     1       2.672   4.318  19.061  0.00  0.00    +0.000 N 
ATOM     10  C   UNL     1       2.132   5.371  19.777  0.00  0.00    +0.000 A 
ATOM     11  O   UNL     1       1.433   5.190  20.778  0.00  0.00    +0.000 OA
ENDROOT
BRANCH   1  13
ATOM     12  N   UNL     1       1.829   7.938  21.371  0.00  0.00    +0.000 N 
ATOM     13  C   UNL     1       1.818   7.962  20.002  0.00  0.00    +0.000 C 
ATOM     14  O   UNL     1       1.383   8.929  19.375  0.00  0.00    +0.000 OA
ATOM     15  H   UNL     1       1.968   7.043  21.842  0.00  0.00    +0.000 HD
BRANCH  12  16
ATOM     16  C   UNL     1       1.375   9.064  22.161  0.00  0.00    +0.000 C 
BRANCH  16  17
ATOM     17  C   UNL     1      -0.134   9.336  22.020  0.00  0.00    +0.000 C 
BRANCH  17  18
ATOM     18  N   UNL     1      -0.529  10.764  22.046  0.00  0.00    +0.000 NA
BRANCH  18  20
ATOM     19  C   UNL     1      -0.052  12.162  19.998  0.00  0.00    +0.000 C 
ATOM     20  C   UNL     1      -1.008  11.228  20.732  0.00  0.00    +0.000 C 
ENDBRANCH  18  20
BRANCH  18  21
ATOM     21  C   UNL     1      -1.454  11.037  23.157  0.00  0.00    +0.000 C 
ATOM     22  C   UNL     1      -2.421  12.205  22.962  0.00  0.00    +0.000 C 
ENDBRANCH  18  21
ENDBRANCH  17  18
ENDBRANCH  16  17
ENDBRANCH  12  16
ENDBRANCH   1  13
BRANCH   2  23
ATOM     23  N   UNL     1       3.528   8.240  17.713  0.00  0.00    +0.000 N 
ATOM     24  H   UNL     1       2.720   8.667  17.235  0.00  0.00    +0.000 HD
ATOM     25  H   UNL     1       4.303   8.202  17.052  0.00  0.00    +0.000 HD
ENDBRANCH   2  23
BRANCH   9  26
ATOM     26  C   UNL     1       2.373   2.944  19.462  0.00  0.00    +0.000 C 
ATOM     27  C   UNL     1       1.076   2.419  18.863  0.00  0.00    +0.000 C 
ENDBRANCH   9  26
TORSDOF 8
ENDMDL
MODEL 9
REMARK VINA RESULT:      -6.4      4.176      6.158
REMARK  Name = 
REMARK  11 active torsions:
REMARK  status: ('A' for Active; 'I' for Inactive)
REMARK    1  A    between atoms: C_1  and  C_2
REMARK    2  A    between atoms: C_2  and  N_3
REMARK    3  A    between atoms: N_3  and  C_4
REMARK    4  A    between atoms: N_3  and  C_6
REMARK    5  A    between atoms: C_4  and  C_5
REMARK    6  A    between atoms: C_6  and  C_7
REMARK    7  A    between atoms: C_7  and  N_8
REMARK    8  A    between atoms: C_9  and  C_11
REMARK    9  A    between atoms: C_12  and  N_13
REMARK   10  A    between atoms: N_20  and  C_21
REMARK   11  A    between atoms: C_21  and  C_22
REMARK                            x       y       z     vdW  Elec       q    Type
REMARK                         _______ _______ _______ _____ _____    ______ ____
ROOT
ATOM      1  C   UNL     1       1.799   8.304  19.060  0.00  0.00    +0.000 A 
ATOM      2  C   UNL     1       1.437   7.983  20.327  0.00  0.00    +0.000 A 
ATOM      3  C   UNL     1       0.745   9.004  21.149  0.00  0.00    +0.000 A 
ATOM      4  C   UNL     1       0.409   8.781  22.494  0.00  0.00    +0.000 A 
ATOM      5  C   UNL     1      -0.232   9.763  23.240  0.00  0.00    +0.000 A 
ATOM      6  C   UNL     1      -0.513  10.958  22.618  0.00  0.00    +0.000 A 
ATOM      7  N   UNL     1      -0.207  11.222  21.331  0.00  0.00    +0.000 NA
ATOM      8  C   UNL     1       0.420  10.252  20.613  0.00  0.00    +0.000 A 
ATOM      9  N   UNL     1       0.758  10.536  19.270  0.00  0.00    +0.000 N 
ATOM     10  C   UNL     1       1.480   9.650  18.491  0.00  0.00    +0.000 A 
ATOM     11  O   UNL     1       1.852   9.936  17.350  0.00  0.00    +0.000 OA
ENDROOT
BRANCH   1  13
ATOM     12  N   UNL     1       3.639   7.702  17.564  0.00  0.00    +0.000 N 
ATOM     13  C   UNL     1       2.544   7.267  18.262  0.00  0.00    +0.000 C 
ATOM     14  O   UNL     1       2.206   6.082  18.263  0.00  0.00    +0.000 OA
ATOM     15  H   UNL     1       3.744   8.703  17.394  0.00  0.00    +0.000 HD
BRANCH  12  16
ATOM     16  C   UNL     1       4.490   6.790  16.827  0.00  0.00    +0.000 C 
BRANCH  16  17
ATOM     17  C   UNL     1       5.887   6.623  17.453  0.00  0.00    +0.000 C 
BRANCH  17  18
ATOM     18  N   UNL     1       6.190   5.273  17.980  0.00  0.00    +0.000 NA
BRANCH  18  20
ATOM     19  C   UNL     1       8.168   5.700  19.491  0.00  0.00    +0.000 C 
ATOM     20  C   UNL     1       7.633   5.079  18.205  0.00  0.00    +0.000 C 
ENDBRANCH  18  20
BRANCH  18  21
ATOM     21  C   UNL     1       5.350   4.959  19.148  0.00  0.00    +0.000 C 
ATOM     22  C   UNL     1       4.673   3.589  19.148  0.00  0.00    +0.000 C 
ENDBRANCH  18  21
ENDBRANCH  17  18
ENDBRANCH  16  17
ENDBRANCH  12  16
ENDBRANCH   1  13
BRANCH   2  23
ATOM     23  N   UNL     1       1.692   6.766  20.957  0.00  0.00    +0.000 N 
ATOM     24  H   UNL     1       2.617   6.396  20.691  0.00  0.00    +0.000 HD
ATOM     25  H   UNL     1       0.992   6.057  20.739  0.00  0.00    +0.000 HD
ENDBRANCH   2  23
BRANCH   9  26
ATOM     26  C   UNL     1       0.377  11.836  18.719  0.00  0.00    +0.000 C 
ATOM     27  C   UNL     1      -1.041  11.852  18.165  0.00  0.00    +0.000 C 
ENDBRANCH   9  26
TORSDOF 8
ENDMDL
