MODEL 1
REMARK VINA RESULT:      -8.0      0.000      0.000
REMARK  Name = 
REMARK  10 active torsions:
REMARK  status: ('A' for Active; 'I' for Inactive)
REMARK    1  A    between atoms: C_1  and  C_2
REMARK    2  A    between atoms: C_2  and  C_4
REMARK    3  A    between atoms: C_7  and  O_8
REMARK    4  A    between atoms: O_8  and  C_9
REMARK    5  A    between atoms: C_9  and  C_10
REMARK    6  A    between atoms: C_10  and  O_11
REMARK    7  A    between atoms: C_10  and  C_12
REMARK    8  A    between atoms: C_12  and  N_13
REMARK    9  A    between atoms: N_16  and  C_17
REMARK   10  A    between atoms: C_17  and  C_18
REMARK                            x       y       z     vdW  Elec       q    Type
REMARK                         _______ _______ _______ _____ _____    ______ ____
ROOT
ATOM      1  C   UNL     1       7.976   7.585  17.829  0.00  0.00    +0.000 C 
ENDROOT
BRANCH   1   2
ATOM      2  O   UNL     1       8.480   7.057  19.071  0.00  0.00    +0.000 OA
ATOM      3  H   UNL     1       7.977   7.461  19.798  0.00  0.00    +0.000 HD
ENDBRANCH   1   2
BRANCH   1   4
ATOM      4  C   UNL     1       7.876   9.118  17.897  0.00  0.00    +0.000 C 
BRANCH   4   5
ATOM      5  O   UNL     1       8.904   9.549  18.799  0.00  0.00    +0.000 OA
BRANCH   5   9
ATOM      6  C   UNL     1      10.176  13.462  18.182  0.00  0.00    +0.000 A 
ATOM      7  C   UNL     1       9.031  12.950  17.561  0.00  0.00    +0.000 A 
ATOM      8  C   UNL     1       8.651  11.626  17.794  0.00  0.00    +0.000 A 
ATOM      9  C   UNL     1       9.404  10.802  18.630  0.00  0.00    +0.000 A 
ATOM     10  C   UNL     1      10.534  11.313  19.266  0.00  0.00    +0.000 A 
ATOM     11  C   UNL     1      10.917  12.640  19.040  0.00  0.00    +0.000 A 
BRANCH   6  13
ATOM     12  C   UNL     1      12.037  15.093  17.465  0.00  0.00    +0.000 C 
ATOM     13  C   UNL     1      10.634  14.861  17.965  0.00  0.00    +0.000 C 
ATOM     14  O   UNL     1       9.871  15.804  18.178  0.00  0.00    +0.000 OA
ENDBRANCH   6  13
ENDBRANCH   5   9
ENDBRANCH   4   5
ENDBRANCH   1   4
BRANCH   1  15
ATOM     15  C   UNL     1       6.641   6.877  17.511  0.00  0.00    +0.000 C 
BRANCH  15  16
ATOM     16  N   UNL     1       6.444   5.539  18.092  0.00  0.00    +0.000 NA
ATOM     17  C   UNL     1       5.237   5.444  18.944  0.00  0.00    +0.000 C 
ATOM     18  C   UNL     1       3.882   5.362  18.191  0.00  0.00    +0.000 C 
ATOM     19  N   UNL     1       3.817   4.332  17.128  0.00  0.00    +0.000 NA
ATOM     20  C   UNL     1       5.002   4.489  16.259  0.00  0.00    +0.000 C 
ATOM     21  C   UNL     1       6.351   4.517  17.020  0.00  0.00    +0.000 C 
BRANCH  19  22
ATOM     22  C   UNL     1       3.716   2.983  17.720  0.00  0.00    +0.000 C 
BRANCH  22  23
ATOM     23  C   UNL     1       2.850   2.896  18.961  0.00  0.00    +0.000 A 
ATOM     24  C   UNL     1       3.430   2.635  20.213  0.00  0.00    +0.000 A 
ATOM     25  C   UNL     1       2.647   2.601  21.368  0.00  0.00    +0.000 A 
ATOM     26  C   UNL     1       1.276   2.834  21.287  0.00  0.00    +0.000 A 
ATOM     27  C   UNL     1       0.684   3.080  20.049  0.00  0.00    +0.000 A 
ATOM     28  C   UNL     1       1.465   3.103  18.890  0.00  0.00    +0.000 A 
ENDBRANCH  22  23
ENDBRANCH  19  22
ENDBRANCH  15  16
ENDBRANCH   1  15
TORSDOF 9
ENDMDL
MODEL 2
REMARK VINA RESULT:      -7.9      0.807      1.392
REMARK  Name = 
REMARK  10 active torsions:
REMARK  status: ('A' for Active; 'I' for Inactive)
REMARK    1  A    between atoms: C_1  and  C_2
REMARK    2  A    between atoms: C_2  and  C_4
REMARK    3  A    between atoms: C_7  and  O_8
REMARK    4  A    between atoms: O_8  and  C_9
REMARK    5  A    between atoms: C_9  and  C_10
REMARK    6  A    between atoms: C_10  and  O_11
REMARK    7  A    between atoms: C_10  and  C_12
REMARK    8  A    between atoms: C_12  and  N_13
REMARK    9  A    between atoms: N_16  and  C_17
REMARK   10  A    between atoms: C_17  and  C_18
REMARK                            x       y       z     vdW  Elec       q    Type
REMARK                         _______ _______ _______ _____ _____    ______ ____
ROOT
ATOM      1  C   UNL     1       8.167   7.570  17.898  0.00  0.00    +0.000 C 
ENDROOT
BRANCH   1   2
ATOM      2  O   UNL     1       8.564   7.036  19.176  0.00  0.00    +0.000 OA
ATOM      3  H   UNL     1       9.223   6.339  19.022  0.00  0.00    +0.000 HD
ENDBRANCH   1   2
BRANCH   1   4
ATOM      4  C   UNL     1       8.051   9.101  17.966  0.00  0.00    +0.000 C 
BRANCH   4   5
ATOM      5  O   UNL     1       8.966   9.529  18.984  0.00  0.00    +0.000 OA
BRANCH   5   9
ATOM      6  C   UNL     1      10.483  13.404  18.998  0.00  0.00    +0.000 A 
ATOM      7  C   UNL     1       9.853  12.851  20.120  0.00  0.00    +0.000 A 
ATOM      8  C   UNL     1       9.353  11.548  20.062  0.00  0.00    +0.000 A 
ATOM      9  C   UNL     1       9.461  10.793  18.895  0.00  0.00    +0.000 A 
ATOM     10  C   UNL     1      10.104  11.331  17.781  0.00  0.00    +0.000 A 
ATOM     11  C   UNL     1      10.611  12.633  17.836  0.00  0.00    +0.000 A 
BRANCH   6  13
ATOM     12  C   UNL     1      11.613  15.335  20.275  0.00  0.00    +0.000 C 
ATOM     13  C   UNL     1      11.028  14.788  18.998  0.00  0.00    +0.000 C 
ATOM     14  O   UNL     1      11.011  15.460  17.967  0.00  0.00    +0.000 OA
ENDBRANCH   6  13
ENDBRANCH   5   9
ENDBRANCH   4   5
ENDBRANCH   1   4
BRANCH   1  15
ATOM     15  C   UNL     1       6.869   6.856  17.460  0.00  0.00    +0.000 C 
BRANCH  15  16
ATOM     16  N   UNL     1       6.626   5.516  18.019  0.00  0.00    +0.000 NA
ATOM     17  C   UNL     1       5.484   5.473  18.960  0.00  0.00    +0.000 C 
ATOM     18  C   UNL     1       4.073   5.503  18.312  0.00  0.00    +0.000 C 
ATOM     19  N   UNL     1       3.859   4.513  17.230  0.00  0.00    +0.000 NA
ATOM     20  C   UNL     1       4.983   4.620  16.277  0.00  0.00    +0.000 C 
ATOM     21  C   UNL     1       6.385   4.537  16.931  0.00  0.00    +0.000 C 
BRANCH  19  22
ATOM     22  C   UNL     1       3.713   3.156  17.792  0.00  0.00    +0.000 C 
BRANCH  22  23
ATOM     23  C   UNL     1       2.865   3.075  19.047  0.00  0.00    +0.000 A 
ATOM     24  C   UNL     1       1.487   3.334  18.988  0.00  0.00    +0.000 A 
ATOM     25  C   UNL     1       0.691   3.214  20.128  0.00  0.00    +0.000 A 
ATOM     26  C   UNL     1       1.261   2.828  21.339  0.00  0.00    +0.000 A 
ATOM     27  C   UNL     1       2.631   2.582  21.415  0.00  0.00    +0.000 A 
ATOM     28  C   UNL     1       3.432   2.713  20.278  0.00  0.00    +0.000 A 
ENDBRANCH  22  23
ENDBRANCH  19  22
ENDBRANCH  15  16
ENDBRANCH   1  15
TORSDOF 9
ENDMDL
MODEL 3
REMARK VINA RESULT:      -7.5      7.236      9.858
REMARK  Name = 
REMARK  10 active torsions:
REMARK  status: ('A' for Active; 'I' for Inactive)
REMARK    1  A    between atoms: C_1  and  C_2
REMARK    2  A    between atoms: C_2  and  C_4
REMARK    3  A    between atoms: C_7  and  O_8
REMARK    4  A    between atoms: O_8  and  C_9
REMARK    5  A    between atoms: C_9  and  C_10
REMARK    6  A    between atoms: C_10  and  O_11
REMARK    7  A    between atoms: C_10  and  C_12
REMARK    8  A    between atoms: C_12  and  N_13
REMARK    9  A    between atoms: N_16  and  C_17
REMARK   10  A    between atoms: C_17  and  C_18
REMARK                            x       y       z     vdW  Elec       q    Type
REMARK                         _______ _______ _______ _____ _____    ______ ____
ROOT
ATOM      1  C   UNL     1       1.788   6.773  20.294  0.00  0.00    +0.000 C 
ENDROOT
BRANCH   1   2
ATOM      2  O   UNL     1       2.172   5.772  21.256  0.00  0.00    +0.000 OA
ATOM      3  H   UNL     1       2.484   6.225  22.058  0.00  0.00    +0.000 HD
ENDBRANCH   1   2
BRANCH   1   4
ATOM      4  C   UNL     1       2.872   6.925  19.215  0.00  0.00    +0.000 C 
BRANCH   4   5
ATOM      5  O   UNL     1       3.031   5.630  18.618  0.00  0.00    +0.000 OA
BRANCH   5   9
ATOM      6  C   UNL     1       5.679   4.997  15.472  0.00  0.00    +0.000 A 
ATOM      7  C   UNL     1       5.060   3.936  16.144  0.00  0.00    +0.000 A 
ATOM      8  C   UNL     1       4.185   4.202  17.200  0.00  0.00    +0.000 A 
ATOM      9  C   UNL     1       3.928   5.511  17.603  0.00  0.00    +0.000 A 
ATOM     10  C   UNL     1       4.526   6.573  16.926  0.00  0.00    +0.000 A 
ATOM     11  C   UNL     1       5.399   6.312  15.864  0.00  0.00    +0.000 A 
BRANCH   6  13
ATOM     12  C   UNL     1       6.257   3.781  13.275  0.00  0.00    +0.000 C 
ATOM     13  C   UNL     1       6.626   4.776  14.345  0.00  0.00    +0.000 C 
ATOM     14  O   UNL     1       7.680   5.410  14.289  0.00  0.00    +0.000 OA
ENDBRANCH   6  13
ENDBRANCH   5   9
ENDBRANCH   4   5
ENDBRANCH   1   4
BRANCH   1  15
ATOM     15  C   UNL     1       1.469   8.076  21.058  0.00  0.00    +0.000 C 
BRANCH  15  16
ATOM     16  N   UNL     1       0.138   8.666  20.839  0.00  0.00    +0.000 NA
ATOM     17  C   UNL     1      -0.645   8.820  22.087  0.00  0.00    +0.000 C 
ATOM     18  C   UNL     1      -0.228  10.001  23.005  0.00  0.00    +0.000 C 
ATOM     19  N   UNL     1      -0.118  11.313  22.327  0.00  0.00    +0.000 NA
ATOM     20  C   UNL     1       0.717  11.141  21.120  0.00  0.00    +0.000 C 
ATOM     21  C   UNL     1       0.259   9.993  20.186  0.00  0.00    +0.000 C 
BRANCH  19  22
ATOM     22  C   UNL     1      -1.457  11.854  22.025  0.00  0.00    +0.000 C 
BRANCH  22  23
ATOM     23  C   UNL     1      -1.999  12.825  23.055  0.00  0.00    +0.000 A 
ATOM     24  C   UNL     1      -3.267  12.623  23.621  0.00  0.00    +0.000 A 
ATOM     25  C   UNL     1      -3.754  13.485  24.605  0.00  0.00    +0.000 A 
ATOM     26  C   UNL     1      -2.976  14.557  25.039  0.00  0.00    +0.000 A 
ATOM     27  C   UNL     1      -1.721  14.778  24.475  0.00  0.00    +0.000 A 
ATOM     28  C   UNL     1      -1.237  13.923  23.482  0.00  0.00    +0.000 A 
ENDBRANCH  22  23
ENDBRANCH  19  22
ENDBRANCH  15  16
ENDBRANCH   1  15
TORSDOF 9
ENDMDL
MODEL 4
REMARK VINA RESULT:      -7.2      1.038      1.423
REMARK  Name = 
REMARK  10 active torsions:
REMARK  status: ('A' for Active; 'I' for Inactive)
REMARK    1  A    between atoms: C_1  and  C_2
REMARK    2  A    between atoms: C_2  and  C_4
REMARK    3  A    between atoms: C_7  and  O_8
REMARK    4  A    between atoms: O_8  and  C_9
REMARK    5  A    between atoms: C_9  and  C_10
REMARK    6  A    between atoms: C_10  and  O_11
REMARK    7  A    between atoms: C_10  and  C_12
REMARK    8  A    between atoms: C_12  and  N_13
REMARK    9  A    between atoms: N_16  and  C_17
REMARK   10  A    between atoms: C_17  and  C_18
REMARK                            x       y       z     vdW  Elec       q    Type
REMARK                         _______ _______ _______ _____ _____    ______ ____
ROOT
ATOM      1  C   UNL     1       8.287   7.117  18.019  0.00  0.00    +0.000 C 
ENDROOT
BRANCH   1   2
ATOM      2  O   UNL     1       8.139   6.601  19.356  0.00  0.00    +0.000 OA
ATOM      3  H   UNL     1       7.322   6.076  19.389  0.00  0.00    +0.000 HD
ENDBRANCH   1   2
BRANCH   1   4
ATOM      4  C   UNL     1       8.062   8.638  18.002  0.00  0.00    +0.000 C 
BRANCH   4   5
ATOM      5  O   UNL     1       8.766   9.163  19.135  0.00  0.00    +0.000 OA
BRANCH   5   9
ATOM      6  C   UNL     1      10.042  13.094  18.660  0.00  0.00    +0.000 A 
ATOM      7  C   UNL     1       9.245  12.454  17.704  0.00  0.00    +0.000 A 
ATOM      8  C   UNL     1       8.850  11.129  17.906  0.00  0.00    +0.000 A 
ATOM      9  C   UNL     1       9.250  10.430  19.045  0.00  0.00    +0.000 A 
ATOM     10  C   UNL     1      10.027  11.069  20.010  0.00  0.00    +0.000 A 
ATOM     11  C   UNL     1      10.421  12.397  19.814  0.00  0.00    +0.000 A 
BRANCH   6  13
ATOM     12  C   UNL     1      11.127  14.908  17.187  0.00  0.00    +0.000 C 
ATOM     13  C   UNL     1      10.500  14.500  18.496  0.00  0.00    +0.000 C 
ATOM     14  O   UNL     1      10.351  15.312  19.410  0.00  0.00    +0.000 OA
ENDBRANCH   6  13
ENDBRANCH   5   9
ENDBRANCH   4   5
ENDBRANCH   1   4
BRANCH   1  15
ATOM     15  C   UNL     1       7.339   6.327  17.090  0.00  0.00    +0.000 C 
BRANCH  15  16
ATOM     16  N   UNL     1       5.896   6.573  17.248  0.00  0.00    +0.000 NA
ATOM     17  C   UNL     1       5.106   6.199  16.053  0.00  0.00    +0.000 C 
ATOM     18  C   UNL     1       4.866   4.678  15.851  0.00  0.00    +0.000 C 
ATOM     19  N   UNL     1       4.336   3.964  17.035  0.00  0.00    +0.000 NA
ATOM     20  C   UNL     1       5.180   4.309  18.198  0.00  0.00    +0.000 C 
ATOM     21  C   UNL     1       5.369   5.831  18.420  0.00  0.00    +0.000 C 
BRANCH  19  22
ATOM     22  C   UNL     1       2.913   4.291  17.244  0.00  0.00    +0.000 C 
BRANCH  22  23
ATOM     23  C   UNL     1       2.340   3.825  18.568  0.00  0.00    +0.000 A 
ATOM     24  C   UNL     1       1.935   4.760  19.533  0.00  0.00    +0.000 A 
ATOM     25  C   UNL     1       1.362   4.341  20.735  0.00  0.00    +0.000 A 
ATOM     26  C   UNL     1       1.181   2.982  20.984  0.00  0.00    +0.000 A 
ATOM     27  C   UNL     1       1.591   2.042  20.040  0.00  0.00    +0.000 A 
ATOM     28  C   UNL     1       2.176   2.459  18.842  0.00  0.00    +0.000 A 
ENDBRANCH  22  23
ENDBRANCH  19  22
ENDBRANCH  15  16
ENDBRANCH   1  15
TORSDOF 9
ENDMDL
MODEL 5
REMARK VINA RESULT:      -7.2      1.377      1.555
REMARK  Name = 
REMARK  10 active torsions:
REMARK  status: ('A' for Active; 'I' for Inactive)
REMARK    1  A    between atoms: C_1  and  C_2
REMARK    2  A    between atoms: C_2  and  C_4
REMARK    3  A    between atoms: C_7  and  O_8
REMARK    4  A    between atoms: O_8  and  C_9
REMARK    5  A    between atoms: C_9  and  C_10
REMARK    6  A    between atoms: C_10  and  O_11
REMARK    7  A    between atoms: C_10  and  C_12
REMARK    8  A    between atoms: C_12  and  N_13
REMARK    9  A    between atoms: N_16  and  C_17
REMARK   10  A    between atoms: C_17  and  C_18
REMARK                            x       y       z     vdW  Elec       q    Type
REMARK                         _______ _______ _______ _____ _____    ______ ____
ROOT
ATOM      1  C   UNL     1       8.257   7.494  17.896  0.00  0.00    +0.000 C 
ENDROOT
BRANCH   1   2
ATOM      2  O   UNL     1       8.455   6.907  19.196  0.00  0.00    +0.000 OA
ATOM      3  H   UNL     1       8.706   7.614  19.813  0.00  0.00    +0.000 HD
ENDBRANCH   1   2
BRANCH   1   4
ATOM      4  C   UNL     1       7.849   8.970  18.028  0.00  0.00    +0.000 C 
BRANCH   4   5
ATOM      5  O   UNL     1       9.054   9.735  17.888  0.00  0.00    +0.000 OA
BRANCH   5   9
ATOM      6  C   UNL     1       9.416  13.223  20.128  0.00  0.00    +0.000 A 
ATOM      7  C   UNL     1       9.310  13.247  18.732  0.00  0.00    +0.000 A 
ATOM      8  C   UNL     1       9.199  12.047  18.025  0.00  0.00    +0.000 A 
ATOM      9  C   UNL     1       9.205  10.822  18.691  0.00  0.00    +0.000 A 
ATOM     10  C   UNL     1       9.291  10.793  20.082  0.00  0.00    +0.000 A 
ATOM     11  C   UNL     1       9.397  11.992  20.795  0.00  0.00    +0.000 A 
BRANCH   6  13
ATOM     12  C   UNL     1       8.796  15.697  20.490  0.00  0.00    +0.000 C 
ATOM     13  C   UNL     1       9.545  14.467  20.934  0.00  0.00    +0.000 C 
ATOM     14  O   UNL     1      10.240  14.478  21.951  0.00  0.00    +0.000 OA
ENDBRANCH   6  13
ENDBRANCH   5   9
ENDBRANCH   4   5
ENDBRANCH   1   4
BRANCH   1  15
ATOM     15  C   UNL     1       7.242   6.623  17.124  0.00  0.00    +0.000 C 
BRANCH  15  16
ATOM     16  N   UNL     1       6.981   5.276  17.656  0.00  0.00    +0.000 NA
ATOM     17  C   UNL     1       6.034   5.270  18.793  0.00  0.00    +0.000 C 
ATOM     18  C   UNL     1       4.537   5.459  18.427  0.00  0.00    +0.000 C 
ATOM     19  N   UNL     1       4.034   4.560  17.362  0.00  0.00    +0.000 NA
ATOM     20  C   UNL     1       4.967   4.632  16.218  0.00  0.00    +0.000 C 
ATOM     21  C   UNL     1       6.451   4.390  16.590  0.00  0.00    +0.000 C 
BRANCH  19  22
ATOM     22  C   UNL     1       3.867   3.188  17.879  0.00  0.00    +0.000 C 
BRANCH  22  23
ATOM     23  C   UNL     1       2.961   3.070  19.089  0.00  0.00    +0.000 A 
ATOM     24  C   UNL     1       3.485   2.675  20.330  0.00  0.00    +0.000 A 
ATOM     25  C   UNL     1       2.668   2.610  21.460  0.00  0.00    +0.000 A 
ATOM     26  C   UNL     1       1.319   2.945  21.364  0.00  0.00    +0.000 A 
ATOM     27  C   UNL     1       0.782   3.324  20.135  0.00  0.00    +0.000 A 
ATOM     28  C   UNL     1       1.596   3.379  19.001  0.00  0.00    +0.000 A 
ENDBRANCH  22  23
ENDBRANCH  19  22
ENDBRANCH  15  16
ENDBRANCH   1  15
TORSDOF 9
ENDMDL
MODEL 6
REMARK VINA RESULT:      -7.2      4.367      7.798
REMARK  Name = 
REMARK  10 active torsions:
REMARK  status: ('A' for Active; 'I' for Inactive)
REMARK    1  A    between atoms: C_1  and  C_2
REMARK    2  A    between atoms: C_2  and  C_4
REMARK    3  A    between atoms: C_7  and  O_8
REMARK    4  A    between atoms: O_8  and  C_9
REMARK    5  A    between atoms: C_9  and  C_10
REMARK    6  A    between atoms: C_10  and  O_11
REMARK    7  A    between atoms: C_10  and  C_12
REMARK    8  A    between atoms: C_12  and  N_13
REMARK    9  A    between atoms: N_16  and  C_17
REMARK   10  A    between atoms: C_17  and  C_18
REMARK                            x       y       z     vdW  Elec       q    Type
REMARK                         _______ _______ _______ _____ _____    ______ ____
ROOT
ATOM      1  C   UNL     1       1.895   3.360  20.993  0.00  0.00    +0.000 C 
ENDROOT
BRANCH   1   2
ATOM      2  O   UNL     1       1.227   2.635  22.043  0.00  0.00    +0.000 OA
ATOM      3  H   UNL     1       1.289   3.160  22.859  0.00  0.00    +0.000 HD
ENDBRANCH   1   2
BRANCH   1   4
ATOM      4  C   UNL     1       1.107   4.629  20.630  0.00  0.00    +0.000 C 
BRANCH   4   5
ATOM      5  O   UNL     1       1.821   5.728  21.213  0.00  0.00    +0.000 OA
BRANCH   5   9
ATOM      6  C   UNL     1       1.062   9.460  19.538  0.00  0.00    +0.000 A 
ATOM      7  C   UNL     1       1.918   8.535  18.928  0.00  0.00    +0.000 A 
ATOM      8  C   UNL     1       2.147   7.298  19.536  0.00  0.00    +0.000 A 
ATOM      9  C   UNL     1       1.543   6.976  20.751  0.00  0.00    +0.000 A 
ATOM     10  C   UNL     1       0.675   7.885  21.353  0.00  0.00    +0.000 A 
ATOM     11  C   UNL     1       0.438   9.123  20.746  0.00  0.00    +0.000 A 
BRANCH   6  13
ATOM     12  C   UNL     1      -0.605  11.363  19.051  0.00  0.00    +0.000 C 
ATOM     13  C   UNL     1       0.787  10.796  18.943  0.00  0.00    +0.000 C 
ATOM     14  O   UNL     1       1.689  11.425  18.389  0.00  0.00    +0.000 OA
ENDBRANCH   6  13
ENDBRANCH   5   9
ENDBRANCH   4   5
ENDBRANCH   1   4
BRANCH   1  15
ATOM     15  C   UNL     1       2.119   2.394  19.809  0.00  0.00    +0.000 C 
BRANCH  15  16
ATOM     16  N   UNL     1       3.497   2.265  19.307  0.00  0.00    +0.000 NA
ATOM     17  C   UNL     1       3.568   2.053  17.844  0.00  0.00    +0.000 C 
ATOM     18  C   UNL     1       3.323   3.309  16.965  0.00  0.00    +0.000 C 
ATOM     19  N   UNL     1       4.129   4.497  17.331  0.00  0.00    +0.000 NA
ATOM     20  C   UNL     1       3.992   4.719  18.785  0.00  0.00    +0.000 C 
ATOM     21  C   UNL     1       4.290   3.471  19.652  0.00  0.00    +0.000 C 
BRANCH  19  22
ATOM     22  C   UNL     1       5.533   4.319  16.909  0.00  0.00    +0.000 C 
BRANCH  22  23
ATOM     23  C   UNL     1       6.489   5.380  17.417  0.00  0.00    +0.000 A 
ATOM     24  C   UNL     1       6.502   6.658  16.835  0.00  0.00    +0.000 A 
ATOM     25  C   UNL     1       7.345   7.656  17.327  0.00  0.00    +0.000 A 
ATOM     26  C   UNL     1       8.180   7.391  18.411  0.00  0.00    +0.000 A 
ATOM     27  C   UNL     1       8.187   6.122  18.989  0.00  0.00    +0.000 A 
ATOM     28  C   UNL     1       7.353   5.119  18.490  0.00  0.00    +0.000 A 
ENDBRANCH  22  23
ENDBRANCH  19  22
ENDBRANCH  15  16
ENDBRANCH   1  15
TORSDOF 9
ENDMDL
MODEL 7
REMARK VINA RESULT:      -7.2      1.571      1.954
REMARK  Name = 
REMARK  10 active torsions:
REMARK  status: ('A' for Active; 'I' for Inactive)
REMARK    1  A    between atoms: C_1  and  C_2
REMARK    2  A    between atoms: C_2  and  C_4
REMARK    3  A    between atoms: C_7  and  O_8
REMARK    4  A    between atoms: O_8  and  C_9
REMARK    5  A    between atoms: C_9  and  C_10
REMARK    6  A    between atoms: C_10  and  O_11
REMARK    7  A    between atoms: C_10  and  C_12
REMARK    8  A    between atoms: C_12  and  N_13
REMARK    9  A    between atoms: N_16  and  C_17
REMARK   10  A    between atoms: C_17  and  C_18
REMARK                            x       y       z     vdW  Elec       q    Type
REMARK                         _______ _______ _______ _____ _____    ______ ____
ROOT
ATOM      1  C   UNL     1       8.137   7.266  17.911  0.00  0.00    +0.000 C 
ENDROOT
BRANCH   1   2
ATOM      2  O   UNL     1       8.189   6.755  19.257  0.00  0.00    +0.000 OA
ATOM      3  H   UNL     1       7.535   7.238  19.790  0.00  0.00    +0.000 HD
ENDBRANCH   1   2
BRANCH   1   4
ATOM      4  C   UNL     1       7.623   8.715  17.906  0.00  0.00    +0.000 C 
BRANCH   4   5
ATOM      5  O   UNL     1       8.747   9.540  17.571  0.00  0.00    +0.000 OA
BRANCH   5   9
ATOM      6  C   UNL     1       9.443  12.919  19.898  0.00  0.00    +0.000 A 
ATOM      7  C   UNL     1       9.053  13.011  18.557  0.00  0.00    +0.000 A 
ATOM      8  C   UNL     1       8.840  11.846  17.816  0.00  0.00    +0.000 A 
ATOM      9  C   UNL     1       9.023  10.590  18.391  0.00  0.00    +0.000 A 
ATOM     10  C   UNL     1       9.392  10.491  19.732  0.00  0.00    +0.000 A 
ATOM     11  C   UNL     1       9.602  11.655  20.480  0.00  0.00    +0.000 A 
BRANCH   6  13
ATOM     12  C   UNL     1       9.578  15.484  20.096  0.00  0.00    +0.000 C 
ATOM     13  C   UNL     1       9.693  14.123  20.735  0.00  0.00    +0.000 C 
ATOM     14  O   UNL     1       9.971  14.002  21.928  0.00  0.00    +0.000 OA
ENDBRANCH   6  13
ENDBRANCH   5   9
ENDBRANCH   4   5
ENDBRANCH   1   4
BRANCH   1  15
ATOM     15  C   UNL     1       7.295   6.293  17.059  0.00  0.00    +0.000 C 
BRANCH  15  16
ATOM     16  N   UNL     1       5.833   6.457  17.110  0.00  0.00    +0.000 NA
ATOM     17  C   UNL     1       5.142   5.906  15.923  0.00  0.00    +0.000 C 
ATOM     18  C   UNL     1       5.006   4.359  15.877  0.00  0.00    +0.000 C 
ATOM     19  N   UNL     1       4.449   3.743  17.103  0.00  0.00    +0.000 NA
ATOM     20  C   UNL     1       5.197   4.266  18.265  0.00  0.00    +0.000 C 
ATOM     21  C   UNL     1       5.281   5.812  18.326  0.00  0.00    +0.000 C 
BRANCH  19  22
ATOM     22  C   UNL     1       2.998   3.995  17.197  0.00  0.00    +0.000 C 
BRANCH  22  23
ATOM     23  C   UNL     1       2.386   3.696  18.551  0.00  0.00    +0.000 A 
ATOM     24  C   UNL     1       1.874   4.737  19.342  0.00  0.00    +0.000 A 
ATOM     25  C   UNL     1       1.265   4.466  20.569  0.00  0.00    +0.000 A 
ATOM     26  C   UNL     1       1.155   3.152  21.017  0.00  0.00    +0.000 A 
ATOM     27  C   UNL     1       1.672   2.110  20.248  0.00  0.00    +0.000 A 
ATOM     28  C   UNL     1       2.292   2.380  19.026  0.00  0.00    +0.000 A 
ENDBRANCH  22  23
ENDBRANCH  19  22
ENDBRANCH  15  16
ENDBRANCH   1  15
TORSDOF 9
ENDMDL
MODEL 8
REMARK VINA RESULT:      -7.0      5.830      7.822
REMARK  Name = 
REMARK  10 active torsions:
REMARK  status: ('A' for Active; 'I' for Inactive)
REMARK    1  A    between atoms: C_1  and  C_2
REMARK    2  A    between atoms: C_2  and  C_4
REMARK    3  A    between atoms: C_7  and  O_8
REMARK    4  A    between atoms: O_8  and  C_9
REMARK    5  A    between atoms: C_9  and  C_10
REMARK    6  A    between atoms: C_10  and  O_11
REMARK    7  A    between atoms: C_10  and  C_12
REMARK    8  A    between atoms: C_12  and  N_13
REMARK    9  A    between atoms: N_16  and  C_17
REMARK   10  A    between atoms: C_17  and  C_18
REMARK                            x       y       z     vdW  Elec       q    Type
REMARK                         _______ _______ _______ _____ _____    ______ ____
ROOT
ATOM      1  C   UNL     1       2.624   4.456  20.795  0.00  0.00    +0.000 C 
ENDROOT
BRANCH   1   2
ATOM      2  O   UNL     1       2.189   3.602  21.870  0.00  0.00    +0.000 OA
ATOM      3  H   UNL     1       1.651   2.888  21.490  0.00  0.00    +0.000 HD
ENDBRANCH   1   2
BRANCH   1   4
ATOM      4  C   UNL     1       1.839   5.778  20.806  0.00  0.00    +0.000 C 
BRANCH   4   5
ATOM      5  O   UNL     1       2.445   6.616  19.813  0.00  0.00    +0.000 OA
BRANCH   5   9
ATOM      6  C   UNL     1       0.768  10.410  19.490  0.00  0.00    +0.000 A 
ATOM      7  C   UNL     1       0.650   9.646  20.657  0.00  0.00    +0.000 A 
ATOM      8  C   UNL     1       1.224   8.373  20.712  0.00  0.00    +0.000 A 
ATOM      9  C   UNL     1       1.904   7.848  19.614  0.00  0.00    +0.000 A 
ATOM     10  C   UNL     1       2.041   8.611  18.456  0.00  0.00    +0.000 A 
ATOM     11  C   UNL     1       1.472   9.888  18.397  0.00  0.00    +0.000 A 
BRANCH   6  13
ATOM     12  C   UNL     1      -0.799  12.227  20.427  0.00  0.00    +0.000 C 
ATOM     13  C   UNL     1       0.170  11.767  19.369  0.00  0.00    +0.000 C 
ATOM     14  O   UNL     1       0.480  12.499  18.429  0.00  0.00    +0.000 OA
ENDBRANCH   6  13
ENDBRANCH   5   9
ENDBRANCH   4   5
ENDBRANCH   1   4
BRANCH   1  15
ATOM     15  C   UNL     1       2.510   3.664  19.474  0.00  0.00    +0.000 C 
BRANCH  15  16
ATOM     16  N   UNL     1       3.746   3.057  18.954  0.00  0.00    +0.000 NA
ATOM     17  C   UNL     1       3.669   2.717  17.515  0.00  0.00    +0.000 C 
ATOM     18  C   UNL     1       3.794   3.911  16.531  0.00  0.00    +0.000 C 
ATOM     19  N   UNL     1       4.957   4.799  16.766  0.00  0.00    +0.000 NA
ATOM     20  C   UNL     1       4.973   5.169  18.197  0.00  0.00    +0.000 C 
ATOM     21  C   UNL     1       4.900   3.964  19.168  0.00  0.00    +0.000 C 
BRANCH  19  22
ATOM     22  C   UNL     1       6.205   4.143  16.331  0.00  0.00    +0.000 C 
BRANCH  22  23
ATOM     23  C   UNL     1       6.504   4.265  14.849  0.00  0.00    +0.000 A 
ATOM     24  C   UNL     1       7.451   5.196  14.392  0.00  0.00    +0.000 A 
ATOM     25  C   UNL     1       7.767   5.282  13.035  0.00  0.00    +0.000 A 
ATOM     26  C   UNL     1       7.147   4.434  12.120  0.00  0.00    +0.000 A 
ATOM     27  C   UNL     1       6.195   3.515  12.558  0.00  0.00    +0.000 A 
ATOM     28  C   UNL     1       5.868   3.436  13.914  0.00  0.00    +0.000 A 
ENDBRANCH  22  23
ENDBRANCH  19  22
ENDBRANCH  15  16
ENDBRANCH   1  15
TORSDOF 9
ENDMDL
MODEL 9
REMARK VINA RESULT:      -6.9      6.032      8.209
REMARK  Name = 
REMARK  10 active torsions:
REMARK  status: ('A' for Active; 'I' for Inactive)
REMARK    1  A    between atoms: C_1  and  C_2
REMARK    2  A    between atoms: C_2  and  C_4
REMARK    3  A    between atoms: C_7  and  O_8
REMARK    4  A    between atoms: O_8  and  C_9
REMARK    5  A    between atoms: C_9  and  C_10
REMARK    6  A    between atoms: C_10  and  O_11
REMARK    7  A    between atoms: C_10  and  C_12
REMARK    8  A    between atoms: C_12  and  N_13
REMARK    9  A    between atoms: N_16  and  C_17
REMARK   10  A    between atoms: C_17  and  C_18
REMARK                            x       y       z     vdW  Elec       q    Type
REMARK                         _______ _______ _______ _____ _____    ______ ____
ROOT
ATOM      1  C   UNL     1       2.248   4.547  20.977  0.00  0.00    +0.000 C 
ENDROOT
BRANCH   1   2
ATOM      2  O   UNL     1       1.498   3.345  21.238  0.00  0.00    +0.000 OA
ATOM      3  H   UNL     1       1.933   2.610  20.774  0.00  0.00    +0.000 HD
ENDBRANCH   1   2
BRANCH   1   4
ATOM      4  C   UNL     1       1.312   5.672  20.505  0.00  0.00    +0.000 C 
BRANCH   4   5
ATOM      5  O   UNL     1       1.995   6.904  20.774  0.00  0.00    +0.000 OA
BRANCH   5   9
ATOM      6  C   UNL     1      -0.031  10.475  20.096  0.00  0.00    +0.000 A 
ATOM      7  C   UNL     1      -0.210   9.733  21.270  0.00  0.00    +0.000 A 
ATOM      8  C   UNL     1       0.487   8.536  21.446  0.00  0.00    +0.000 A 
ATOM      9  C   UNL     1       1.352   8.061  20.461  0.00  0.00    +0.000 A 
ATOM     10  C   UNL     1       1.549   8.805  19.298  0.00  0.00    +0.000 A 
ATOM     11  C   UNL     1       0.857  10.007  19.119  0.00  0.00    +0.000 A 
BRANCH   6  13
ATOM     12  C   UNL     1      -0.535  12.464  18.538  0.00  0.00    +0.000 C 
ATOM     13  C   UNL     1      -0.752  11.753  19.849  0.00  0.00    +0.000 C 
ATOM     14  O   UNL     1      -1.521  12.204  20.698  0.00  0.00    +0.000 OA
ENDBRANCH   6  13
ENDBRANCH   5   9
ENDBRANCH   4   5
ENDBRANCH   1   4
BRANCH   1  15
ATOM     15  C   UNL     1       3.376   4.204  19.981  0.00  0.00    +0.000 C 
BRANCH  15  16
ATOM     16  N   UNL     1       3.766   5.257  19.028  0.00  0.00    +0.000 NA
ATOM     17  C   UNL     1       5.230   5.459  18.948  0.00  0.00    +0.000 C 
ATOM     18  C   UNL     1       6.018   4.388  18.147  0.00  0.00    +0.000 C 
ATOM     19  N   UNL     1       5.485   4.098  16.796  0.00  0.00    +0.000 NA
ATOM     20  C   UNL     1       4.035   3.842  16.915  0.00  0.00    +0.000 C 
ATOM     21  C   UNL     1       3.253   4.944  17.671  0.00  0.00    +0.000 C 
BRANCH  19  22
ATOM     22  C   UNL     1       5.797   5.203  15.869  0.00  0.00    +0.000 C 
BRANCH  22  23
ATOM     23  C   UNL     1       6.260   4.768  14.492  0.00  0.00    +0.000 A 
ATOM     24  C   UNL     1       5.542   3.796  13.778  0.00  0.00    +0.000 A 
ATOM     25  C   UNL     1       5.934   3.424  12.491  0.00  0.00    +0.000 A 
ATOM     26  C   UNL     1       7.044   4.025  11.899  0.00  0.00    +0.000 A 
ATOM     27  C   UNL     1       7.774   4.981  12.603  0.00  0.00    +0.000 A 
ATOM     28  C   UNL     1       7.391   5.346  13.896  0.00  0.00    +0.000 A 
ENDBRANCH  22  23
ENDBRANCH  19  22
ENDBRANCH  15  16
ENDBRANCH   1  15
TORSDOF 9
ENDMDL
