MODEL 1
REMARK VINA RESULT:      -8.8      0.000      0.000
REMARK  Name = 
REMARK  8 active torsions:
REMARK  status: ('A' for Active; 'I' for Inactive)
REMARK    1  A    between atoms: C_1  and  N_2
REMARK    2  A    between atoms: C_6  and  S_7
REMARK    3  A    between atoms: S_7  and  C_8
REMARK    4  A    between atoms: C_9  and  C_10
REMARK    5  A    between atoms: C_10  and  O_12
REMARK    6  A    between atoms: O_12  and  C_13
REMARK    7  A    between atoms: C_13  and  C_14
REMARK    8  A    between atoms: C_13  and  C_20
REMARK                            x       y       z     vdW  Elec       q    Type
REMARK                         _______ _______ _______ _____ _____    ______ ____
ROOT
ATOM      1  C   UNL     1       4.015   4.508  17.607  0.00  0.00    +0.000 C 
ATOM      2  O   UNL     1       3.722   3.322  17.567  0.00  0.00    +0.000 OA
ENDROOT
BRANCH   1   4
ATOM      3  C   UNL     1       6.091   4.765  16.205  0.00  0.00    +0.000 C 
ATOM      4  C   UNL     1       5.367   5.068  17.302  0.00  0.00    +0.000 C 
ATOM      5  N   UNL     1       5.958   5.956  18.202  0.00  0.00    +0.000 N 
ATOM      6  C   UNL     1       6.522   5.443  19.344  0.00  0.00    +0.000 C 
ATOM      7  O   UNL     1       6.099   4.669  20.171  0.00  0.00    +0.000 OA
ATOM      8  C   UNL     1       7.904   6.009  18.991  0.00  0.00    +0.000 C 
ATOM      9  C   UNL     1       7.236   6.509  17.704  0.00  0.00    +0.000 C 
ATOM     10  S   UNL     1       7.650   5.570  16.194  0.00  0.00    +0.000 S 
BRANCH   3  11
ATOM     11  S   UNL     1       5.727   3.619  14.959  0.00  0.00    +0.000 S 
BRANCH  11  17
ATOM     12  C   UNL     1       5.912   2.703  11.820  0.00  0.00    +0.000 C 
ATOM     13  N   UNL     1       6.610   3.824  12.382  0.00  0.00    +0.000 N 
ATOM     14  N   UNL     1       7.433   4.564  11.616  0.00  0.00    +0.000 NA
ATOM     15  N   UNL     1       7.903   5.508  12.419  0.00  0.00    +0.000 NA
ATOM     16  N   UNL     1       7.400   5.373  13.691  0.00  0.00    +0.000 NA
ATOM     17  C   UNL     1       6.610   4.323  13.654  0.00  0.00    +0.000 A 
ENDBRANCH  11  17
ENDBRANCH   3  11
ENDBRANCH   1   4
BRANCH   1  18
ATOM     18  O   UNL     1       3.145   5.530  17.790  0.00  0.00    +0.000 OA
BRANCH  18  19
ATOM     19  C   UNL     1       2.961   5.972  19.148  0.00  0.00    +0.000 C 
BRANCH  19  20
ATOM     20  C   UNL     1       2.243   7.313  19.133  0.00  0.00    +0.000 A 
ATOM     21  C   UNL     1       2.164   8.092  17.969  0.00  0.00    +0.000 A 
ATOM     22  C   UNL     1       1.547   9.347  17.994  0.00  0.00    +0.000 A 
ATOM     23  C   UNL     1       1.004   9.840  19.179  0.00  0.00    +0.000 A 
ATOM     24  C   UNL     1       1.060   9.070  20.338  0.00  0.00    +0.000 A 
ATOM     25  C   UNL     1       1.672   7.815  20.315  0.00  0.00    +0.000 A 
ENDBRANCH  19  20
BRANCH  19  26
ATOM     26  C   UNL     1       2.256   4.868  19.936  0.00  0.00    +0.000 A 
ATOM     27  C   UNL     1       1.124   4.201  19.434  0.00  0.00    +0.000 A 
ATOM     28  C   UNL     1       0.562   3.121  20.115  0.00  0.00    +0.000 A 
ATOM     29  C   UNL     1       1.117   2.689  21.316  0.00  0.00    +0.000 A 
ATOM     30  C   UNL     1       2.226   3.345  21.842  0.00  0.00    +0.000 A 
ATOM     31  C   UNL     1       2.795   4.423  21.157  0.00  0.00    +0.000 A 
ENDBRANCH  19  26
ENDBRANCH  18  19
ENDBRANCH   1  18
TORSDOF 7
ENDMDL
MODEL 2
REMARK VINA RESULT:      -8.4      0.172      1.236
REMARK  Name = 
REMARK  8 active torsions:
REMARK  status: ('A' for Active; 'I' for Inactive)
REMARK    1  A    between atoms: C_1  and  N_2
REMARK    2  A    between atoms: C_6  and  S_7
REMARK    3  A    between atoms: S_7  and  C_8
REMARK    4  A    between atoms: C_9  and  C_10
REMARK    5  A    between atoms: C_10  and  O_12
REMARK    6  A    between atoms: O_12  and  C_13
REMARK    7  A    between atoms: C_13  and  C_14
REMARK    8  A    between atoms: C_13  and  C_20
REMARK                            x       y       z     vdW  Elec       q    Type
REMARK                         _______ _______ _______ _____ _____    ______ ____
ROOT
ATOM      1  C   UNL     1       4.141   4.505  17.623  0.00  0.00    +0.000 C 
ATOM      2  O   UNL     1       3.865   3.316  17.541  0.00  0.00    +0.000 OA
ENDROOT
BRANCH   1   4
ATOM      3  C   UNL     1       6.211   4.809  16.221  0.00  0.00    +0.000 C 
ATOM      4  C   UNL     1       5.479   5.097  17.317  0.00  0.00    +0.000 C 
ATOM      5  N   UNL     1       6.048   6.001  18.215  0.00  0.00    +0.000 N 
ATOM      6  C   UNL     1       6.624   5.503  19.359  0.00  0.00    +0.000 C 
ATOM      7  O   UNL     1       6.220   4.721  20.187  0.00  0.00    +0.000 OA
ATOM      8  C   UNL     1       7.992   6.102  19.005  0.00  0.00    +0.000 C 
ATOM      9  C   UNL     1       7.313   6.583  17.717  0.00  0.00    +0.000 C 
ATOM     10  S   UNL     1       7.749   5.652  16.209  0.00  0.00    +0.000 S 
BRANCH   3  11
ATOM     11  S   UNL     1       5.875   3.652  14.977  0.00  0.00    +0.000 S 
BRANCH  11  17
ATOM     12  C   UNL     1       5.889   2.881  11.795  0.00  0.00    +0.000 C 
ATOM     13  N   UNL     1       6.659   3.943  12.376  0.00  0.00    +0.000 N 
ATOM     14  N   UNL     1       7.481   4.683  11.610  0.00  0.00    +0.000 NA
ATOM     15  N   UNL     1       8.026   5.566  12.434  0.00  0.00    +0.000 NA
ATOM     16  N   UNL     1       7.571   5.392  13.720  0.00  0.00    +0.000 NA
ATOM     17  C   UNL     1       6.734   4.380  13.669  0.00  0.00    +0.000 A 
ENDBRANCH  11  17
ENDBRANCH   3  11
ENDBRANCH   1   4
BRANCH   1  18
ATOM     18  O   UNL     1       3.259   5.505  17.861  0.00  0.00    +0.000 OA
BRANCH  18  19
ATOM     19  C   UNL     1       3.076   5.874  19.241  0.00  0.00    +0.000 C 
BRANCH  19  20
ATOM     20  C   UNL     1       2.328   7.197  19.299  0.00  0.00    +0.000 A 
ATOM     21  C   UNL     1       1.742   7.660  20.486  0.00  0.00    +0.000 A 
ATOM     22  C   UNL     1       1.012   8.853  20.501  0.00  0.00    +0.000 A 
ATOM     23  C   UNL     1       0.857   9.596  19.333  0.00  0.00    +0.000 A 
ATOM     24  C   UNL     1       1.447   9.158  18.151  0.00  0.00    +0.000 A 
ATOM     25  C   UNL     1       2.180   7.969  18.134  0.00  0.00    +0.000 A 
ENDBRANCH  19  20
BRANCH  19  26
ATOM     26  C   UNL     1       2.402   4.716  19.977  0.00  0.00    +0.000 A 
ATOM     27  C   UNL     1       2.883   4.235  21.209  0.00  0.00    +0.000 A 
ATOM     28  C   UNL     1       2.191   3.255  21.921  0.00  0.00    +0.000 A 
ATOM     29  C   UNL     1       1.006   2.731  21.413  0.00  0.00    +0.000 A 
ATOM     30  C   UNL     1       0.520   3.178  20.188  0.00  0.00    +0.000 A 
ATOM     31  C   UNL     1       1.208   4.165  19.476  0.00  0.00    +0.000 A 
ENDBRANCH  19  26
ENDBRANCH  18  19
ENDBRANCH   1  18
TORSDOF 7
ENDMDL
MODEL 3
REMARK VINA RESULT:      -8.3      5.310      7.922
REMARK  Name = 
REMARK  8 active torsions:
REMARK  status: ('A' for Active; 'I' for Inactive)
REMARK    1  A    between atoms: C_1  and  N_2
REMARK    2  A    between atoms: C_6  and  S_7
REMARK    3  A    between atoms: S_7  and  C_8
REMARK    4  A    between atoms: C_9  and  C_10
REMARK    5  A    between atoms: C_10  and  O_12
REMARK    6  A    between atoms: O_12  and  C_13
REMARK    7  A    between atoms: C_13  and  C_14
REMARK    8  A    between atoms: C_13  and  C_20
REMARK                            x       y       z     vdW  Elec       q    Type
REMARK                         _______ _______ _______ _____ _____    ______ ____
ROOT
ATOM      1  C   UNL     1       1.978   8.659  18.484  0.00  0.00    +0.000 C 
ATOM      2  O   UNL     1       2.151   8.903  17.298  0.00  0.00    +0.000 OA
ENDROOT
BRANCH   1   4
ATOM      3  C   UNL     1       1.128  10.851  19.386  0.00  0.00    +0.000 C 
ATOM      4  C   UNL     1       1.182   9.503  19.426  0.00  0.00    +0.000 C 
ATOM      5  N   UNL     1       0.446   8.889  20.440  0.00  0.00    +0.000 N 
ATOM      6  C   UNL     1       1.120   8.438  21.548  0.00  0.00    +0.000 C 
ATOM      7  O   UNL     1       2.110   7.755  21.663  0.00  0.00    +0.000 OA
ATOM      8  C   UNL     1       0.303   9.336  22.488  0.00  0.00    +0.000 C 
ATOM      9  C   UNL     1      -0.376   9.846  21.211  0.00  0.00    +0.000 C 
ATOM     10  S   UNL     1       0.133  11.514  20.670  0.00  0.00    +0.000 S 
BRANCH   3  11
ATOM     11  S   UNL     1       2.004  11.932  18.355  0.00  0.00    +0.000 S 
BRANCH  11  17
ATOM     12  C   UNL     1       2.920  14.599  20.021  0.00  0.00    +0.000 C 
ATOM     13  N   UNL     1       1.638  14.431  19.398  0.00  0.00    +0.000 N 
ATOM     14  N   UNL     1       0.702  15.393  19.502  0.00  0.00    +0.000 NA
ATOM     15  N   UNL     1      -0.341  14.939  18.821  0.00  0.00    +0.000 NA
ATOM     16  N   UNL     1      -0.087  13.695  18.294  0.00  0.00    +0.000 NA
ATOM     17  C   UNL     1       1.136  13.391  18.667  0.00  0.00    +0.000 A 
ENDBRANCH  11  17
ENDBRANCH   3  11
ENDBRANCH   1   4
BRANCH   1  18
ATOM     18  O   UNL     1       2.348   7.520  19.116  0.00  0.00    +0.000 OA
BRANCH  18  19
ATOM     19  C   UNL     1       2.710   6.413  18.270  0.00  0.00    +0.000 C 
BRANCH  19  20
ATOM     20  C   UNL     1       4.226   6.293  18.243  0.00  0.00    +0.000 A 
ATOM     21  C   UNL     1       4.994   6.880  17.225  0.00  0.00    +0.000 A 
ATOM     22  C   UNL     1       6.381   6.709  17.192  0.00  0.00    +0.000 A 
ATOM     23  C   UNL     1       7.020   5.951  18.172  0.00  0.00    +0.000 A 
ATOM     24  C   UNL     1       6.274   5.378  19.198  0.00  0.00    +0.000 A 
ATOM     25  C   UNL     1       4.888   5.549  19.235  0.00  0.00    +0.000 A 
ENDBRANCH  19  20
BRANCH  19  26
ATOM     26  C   UNL     1       1.970   5.163  18.745  0.00  0.00    +0.000 A 
ATOM     27  C   UNL     1       1.707   4.081  17.885  0.00  0.00    +0.000 A 
ATOM     28  C   UNL     1       1.131   2.903  18.363  0.00  0.00    +0.000 A 
ATOM     29  C   UNL     1       0.802   2.785  19.710  0.00  0.00    +0.000 A 
ATOM     30  C   UNL     1       1.036   3.849  20.576  0.00  0.00    +0.000 A 
ATOM     31  C   UNL     1       1.619   5.028  20.100  0.00  0.00    +0.000 A 
ENDBRANCH  19  26
ENDBRANCH  18  19
ENDBRANCH   1  18
TORSDOF 7
ENDMDL
MODEL 4
REMARK VINA RESULT:      -8.2      3.707      7.114
REMARK  Name = 
REMARK  8 active torsions:
REMARK  status: ('A' for Active; 'I' for Inactive)
REMARK    1  A    between atoms: C_1  and  N_2
REMARK    2  A    between atoms: C_6  and  S_7
REMARK    3  A    between atoms: S_7  and  C_8
REMARK    4  A    between atoms: C_9  and  C_10
REMARK    5  A    between atoms: C_10  and  O_12
REMARK    6  A    between atoms: O_12  and  C_13
REMARK    7  A    between atoms: C_13  and  C_14
REMARK    8  A    between atoms: C_13  and  C_20
REMARK                            x       y       z     vdW  Elec       q    Type
REMARK                         _______ _______ _______ _____ _____    ______ ____
ROOT
ATOM      1  C   UNL     1       3.322   3.827  17.192  0.00  0.00    +0.000 C 
ATOM      2  O   UNL     1       2.636   3.448  16.254  0.00  0.00    +0.000 OA
ENDROOT
BRANCH   1   4
ATOM      3  C   UNL     1       2.602   5.276  19.122  0.00  0.00    +0.000 C 
ATOM      4  C   UNL     1       2.821   4.060  18.581  0.00  0.00    +0.000 C 
ATOM      5  N   UNL     1       2.570   2.966  19.410  0.00  0.00    +0.000 N 
ATOM      6  C   UNL     1       3.640   2.334  19.993  0.00  0.00    +0.000 C 
ATOM      7  O   UNL     1       4.679   1.922  19.531  0.00  0.00    +0.000 OA
ATOM      8  C   UNL     1       3.113   2.610  21.408  0.00  0.00    +0.000 C 
ATOM      9  C   UNL     1       1.971   3.354  20.705  0.00  0.00    +0.000 C 
ATOM     10  S   UNL     1       2.059   5.176  20.787  0.00  0.00    +0.000 S 
BRANCH   3  11
ATOM     11  S   UNL     1       2.924   6.833  18.434  0.00  0.00    +0.000 S 
BRANCH  11  17
ATOM     12  C   UNL     1       1.477   9.717  17.874  0.00  0.00    +0.000 C 
ATOM     13  N   UNL     1       1.437   9.017  19.127  0.00  0.00    +0.000 N 
ATOM     14  N   UNL     1       0.801   9.555  20.184  0.00  0.00    +0.000 NA
ATOM     15  N   UNL     1       0.940   8.671  21.162  0.00  0.00    +0.000 NA
ATOM     16  N   UNL     1       1.668   7.582  20.746  0.00  0.00    +0.000 NA
ATOM     17  C   UNL     1       1.975   7.815  19.490  0.00  0.00    +0.000 A 
ENDBRANCH  11  17
ENDBRANCH   3  11
ENDBRANCH   1   4
BRANCH   1  18
ATOM     18  O   UNL     1       4.670   3.964  17.180  0.00  0.00    +0.000 OA
BRANCH  18  19
ATOM     19  C   UNL     1       5.187   5.084  16.438  0.00  0.00    +0.000 C 
BRANCH  19  20
ATOM     20  C   UNL     1       6.221   5.801  17.293  0.00  0.00    +0.000 A 
ATOM     21  C   UNL     1       6.647   7.104  16.994  0.00  0.00    +0.000 A 
ATOM     22  C   UNL     1       7.639   7.722  17.762  0.00  0.00    +0.000 A 
ATOM     23  C   UNL     1       8.219   7.048  18.835  0.00  0.00    +0.000 A 
ATOM     24  C   UNL     1       7.795   5.760  19.154  0.00  0.00    +0.000 A 
ATOM     25  C   UNL     1       6.801   5.143  18.390  0.00  0.00    +0.000 A 
ENDBRANCH  19  20
BRANCH  19  26
ATOM     26  C   UNL     1       5.696   4.589  15.085  0.00  0.00    +0.000 A 
ATOM     27  C   UNL     1       4.857   3.926  14.170  0.00  0.00    +0.000 A 
ATOM     28  C   UNL     1       5.308   3.582  12.895  0.00  0.00    +0.000 A 
ATOM     29  C   UNL     1       6.609   3.889  12.511  0.00  0.00    +0.000 A 
ATOM     30  C   UNL     1       7.464   4.529  13.404  0.00  0.00    +0.000 A 
ATOM     31  C   UNL     1       7.011   4.881  14.680  0.00  0.00    +0.000 A 
ENDBRANCH  19  26
ENDBRANCH  18  19
ENDBRANCH   1  18
TORSDOF 7
ENDMDL
MODEL 5
REMARK VINA RESULT:      -8.2      3.521      7.224
REMARK  Name = 
REMARK  8 active torsions:
REMARK  status: ('A' for Active; 'I' for Inactive)
REMARK    1  A    between atoms: C_1  and  N_2
REMARK    2  A    between atoms: C_6  and  S_7
REMARK    3  A    between atoms: S_7  and  C_8
REMARK    4  A    between atoms: C_9  and  C_10
REMARK    5  A    between atoms: C_10  and  O_12
REMARK    6  A    between atoms: O_12  and  C_13
REMARK    7  A    between atoms: C_13  and  C_14
REMARK    8  A    between atoms: C_13  and  C_20
REMARK                            x       y       z     vdW  Elec       q    Type
REMARK                         _______ _______ _______ _____ _____    ______ ____
ROOT
ATOM      1  C   UNL     1       4.886   4.711  19.013  0.00  0.00    +0.000 C 
ATOM      2  O   UNL     1       5.627   4.563  19.975  0.00  0.00    +0.000 OA
ENDROOT
BRANCH   1   4
ATOM      3  C   UNL     1       2.424   4.917  19.502  0.00  0.00    +0.000 C 
ATOM      4  C   UNL     1       3.463   4.257  18.950  0.00  0.00    +0.000 C 
ATOM      5  N   UNL     1       3.154   3.063  18.297  0.00  0.00    +0.000 N 
ATOM      6  C   UNL     1       3.412   1.882  18.948  0.00  0.00    +0.000 C 
ATOM      7  O   UNL     1       4.400   1.478  19.517  0.00  0.00    +0.000 OA
ATOM      8  C   UNL     1       1.939   1.455  18.890  0.00  0.00    +0.000 C 
ATOM      9  C   UNL     1       1.699   2.813  18.219  0.00  0.00    +0.000 C 
ATOM     10  S   UNL     1       0.903   4.074  19.271  0.00  0.00    +0.000 S 
BRANCH   3  11
ATOM     11  S   UNL     1       2.456   6.345  20.481  0.00  0.00    +0.000 S 
BRANCH  11  17
ATOM     12  C   UNL     1       0.874   9.210  20.595  0.00  0.00    +0.000 C 
ATOM     13  N   UNL     1       1.542   8.697  19.434  0.00  0.00    +0.000 N 
ATOM     14  N   UNL     1       1.519   9.387  18.278  0.00  0.00    +0.000 NA
ATOM     15  N   UNL     1       2.222   8.658  17.423  0.00  0.00    +0.000 NA
ATOM     16  N   UNL     1       2.682   7.505  18.014  0.00  0.00    +0.000 NA
ATOM     17  C   UNL     1       2.246   7.540  19.253  0.00  0.00    +0.000 A 
ENDBRANCH  11  17
ENDBRANCH   3  11
ENDBRANCH   1   4
BRANCH   1  18
ATOM     18  O   UNL     1       5.170   5.430  17.901  0.00  0.00    +0.000 OA
BRANCH  18  19
ATOM     19  C   UNL     1       6.523   5.339  17.416  0.00  0.00    +0.000 C 
BRANCH  19  20
ATOM     20  C   UNL     1       6.491   4.924  15.953  0.00  0.00    +0.000 A 
ATOM     21  C   UNL     1       7.568   5.181  15.091  0.00  0.00    +0.000 A 
ATOM     22  C   UNL     1       7.493   4.840  13.737  0.00  0.00    +0.000 A 
ATOM     23  C   UNL     1       6.344   4.241  13.226  0.00  0.00    +0.000 A 
ATOM     24  C   UNL     1       5.273   3.964  14.072  0.00  0.00    +0.000 A 
ATOM     25  C   UNL     1       5.347   4.301  15.426  0.00  0.00    +0.000 A 
ENDBRANCH  19  20
BRANCH  19  26
ATOM     26  C   UNL     1       7.240   6.659  17.700  0.00  0.00    +0.000 A 
ATOM     27  C   UNL     1       6.921   7.843  17.009  0.00  0.00    +0.000 A 
ATOM     28  C   UNL     1       7.505   9.061  17.359  0.00  0.00    +0.000 A 
ATOM     29  C   UNL     1       8.423   9.120  18.403  0.00  0.00    +0.000 A 
ATOM     30  C   UNL     1       8.768   7.958  19.089  0.00  0.00    +0.000 A 
ATOM     31  C   UNL     1       8.179   6.738  18.744  0.00  0.00    +0.000 A 
ENDBRANCH  19  26
ENDBRANCH  18  19
ENDBRANCH   1  18
TORSDOF 7
ENDMDL
MODEL 6
REMARK VINA RESULT:      -8.2      5.332      7.928
REMARK  Name = 
REMARK  8 active torsions:
REMARK  status: ('A' for Active; 'I' for Inactive)
REMARK    1  A    between atoms: C_1  and  N_2
REMARK    2  A    between atoms: C_6  and  S_7
REMARK    3  A    between atoms: S_7  and  C_8
REMARK    4  A    between atoms: C_9  and  C_10
REMARK    5  A    between atoms: C_10  and  O_12
REMARK    6  A    between atoms: O_12  and  C_13
REMARK    7  A    between atoms: C_13  and  C_14
REMARK    8  A    between atoms: C_13  and  C_20
REMARK                            x       y       z     vdW  Elec       q    Type
REMARK                         _______ _______ _______ _____ _____    ______ ____
ROOT
ATOM      1  C   UNL     1       1.987   8.735  18.487  0.00  0.00    +0.000 C 
ATOM      2  O   UNL     1       2.163   9.001  17.306  0.00  0.00    +0.000 OA
ENDROOT
BRANCH   1   4
ATOM      3  C   UNL     1       1.028  10.874  19.407  0.00  0.00    +0.000 C 
ATOM      4  C   UNL     1       1.141   9.530  19.428  0.00  0.00    +0.000 C 
ATOM      5  N   UNL     1       0.417   8.869  20.421  0.00  0.00    +0.000 N 
ATOM      6  C   UNL     1       1.092   8.430  21.533  0.00  0.00    +0.000 C 
ATOM      7  O   UNL     1       2.110   7.789  21.654  0.00  0.00    +0.000 OA
ATOM      8  C   UNL     1       0.223   9.277  22.473  0.00  0.00    +0.000 C 
ATOM      9  C   UNL     1      -0.457   9.777  21.193  0.00  0.00    +0.000 C 
ATOM     10  S   UNL     1      -0.014  11.474  20.684  0.00  0.00    +0.000 S 
BRANCH   3  11
ATOM     11  S   UNL     1       1.872  12.008  18.406  0.00  0.00    +0.000 S 
BRANCH  11  17
ATOM     12  C   UNL     1      -0.028  14.661  18.677  0.00  0.00    +0.000 C 
ATOM     13  N   UNL     1       1.119  14.396  19.498  0.00  0.00    +0.000 N 
ATOM     14  N   UNL     1       1.500  15.282  20.438  0.00  0.00    +0.000 NA
ATOM     15  N   UNL     1       2.566  14.743  21.013  0.00  0.00    +0.000 NA
ATOM     16  N   UNL     1       2.877  13.531  20.445  0.00  0.00    +0.000 NA
ATOM     17  C   UNL     1       1.980  13.335  19.505  0.00  0.00    +0.000 A 
ENDBRANCH  11  17
ENDBRANCH   3  11
ENDBRANCH   1   4
BRANCH   1  18
ATOM     18  O   UNL     1       2.403   7.607  19.111  0.00  0.00    +0.000 OA
BRANCH  18  19
ATOM     19  C   UNL     1       2.742   6.498  18.257  0.00  0.00    +0.000 C 
BRANCH  19  20
ATOM     20  C   UNL     1       4.256   6.365  18.207  0.00  0.00    +0.000 A 
ATOM     21  C   UNL     1       5.017   6.985  17.204  0.00  0.00    +0.000 A 
ATOM     22  C   UNL     1       6.402   6.803  17.147  0.00  0.00    +0.000 A 
ATOM     23  C   UNL     1       7.045   5.999  18.086  0.00  0.00    +0.000 A 
ATOM     24  C   UNL     1       6.306   5.390  19.098  0.00  0.00    +0.000 A 
ATOM     25  C   UNL     1       4.922   5.574  19.160  0.00  0.00    +0.000 A 
ENDBRANCH  19  20
BRANCH  19  26
ATOM     26  C   UNL     1       1.998   5.254  18.743  0.00  0.00    +0.000 A 
ATOM     27  C   UNL     1       1.697   4.183  17.883  0.00  0.00    +0.000 A 
ATOM     28  C   UNL     1       1.118   3.009  18.367  0.00  0.00    +0.000 A 
ATOM     29  C   UNL     1       0.824   2.885  19.722  0.00  0.00    +0.000 A 
ATOM     30  C   UNL     1       1.097   3.938  20.589  0.00  0.00    +0.000 A 
ATOM     31  C   UNL     1       1.683   5.113  20.107  0.00  0.00    +0.000 A 
ENDBRANCH  19  26
ENDBRANCH  18  19
ENDBRANCH   1  18
TORSDOF 7
ENDMDL
MODEL 7
REMARK VINA RESULT:      -8.1      5.260      7.901
REMARK  Name = 
REMARK  8 active torsions:
REMARK  status: ('A' for Active; 'I' for Inactive)
REMARK    1  A    between atoms: C_1  and  N_2
REMARK    2  A    between atoms: C_6  and  S_7
REMARK    3  A    between atoms: S_7  and  C_8
REMARK    4  A    between atoms: C_9  and  C_10
REMARK    5  A    between atoms: C_10  and  O_12
REMARK    6  A    between atoms: O_12  and  C_13
REMARK    7  A    between atoms: C_13  and  C_14
REMARK    8  A    between atoms: C_13  and  C_20
REMARK                            x       y       z     vdW  Elec       q    Type
REMARK                         _______ _______ _______ _____ _____    ______ ____
ROOT
ATOM      1  C   UNL     1       2.027   8.569  18.401  0.00  0.00    +0.000 C 
ATOM      2  O   UNL     1       2.133   8.767  17.199  0.00  0.00    +0.000 OA
ENDROOT
BRANCH   1   4
ATOM      3  C   UNL     1       1.223  10.774  19.314  0.00  0.00    +0.000 C 
ATOM      4  C   UNL     1       1.246   9.425  19.346  0.00  0.00    +0.000 C 
ATOM      5  N   UNL     1       0.492   8.821  20.353  0.00  0.00    +0.000 N 
ATOM      6  C   UNL     1       1.151   8.348  21.461  0.00  0.00    +0.000 C 
ATOM      7  O   UNL     1       2.126   7.642  21.575  0.00  0.00    +0.000 OA
ATOM      8  C   UNL     1       0.351   9.258  22.403  0.00  0.00    +0.000 C 
ATOM      9  C   UNL     1      -0.311   9.792  21.127  0.00  0.00    +0.000 C 
ATOM     10  S   UNL     1       0.237  11.451  20.598  0.00  0.00    +0.000 S 
BRANCH   3  11
ATOM     11  S   UNL     1       2.127  11.841  18.294  0.00  0.00    +0.000 S 
BRANCH  11  17
ATOM     12  C   UNL     1       3.056  14.625  19.749  0.00  0.00    +0.000 C 
ATOM     13  N   UNL     1       1.753  14.394  19.193  0.00  0.00    +0.000 N 
ATOM     14  N   UNL     1       0.802  15.343  19.277  0.00  0.00    +0.000 NA
ATOM     15  N   UNL     1      -0.259  14.829  18.672  0.00  0.00    +0.000 NA
ATOM     16  N   UNL     1      -0.001  13.558  18.214  0.00  0.00    +0.000 NA
ATOM     17  C   UNL     1       1.242  13.301  18.551  0.00  0.00    +0.000 A 
ENDBRANCH  11  17
ENDBRANCH   3  11
ENDBRANCH   1   4
BRANCH   1  18
ATOM     18  O   UNL     1       2.469   7.472  19.062  0.00  0.00    +0.000 OA
BRANCH  18  19
ATOM     19  C   UNL     1       2.847   6.349  18.244  0.00  0.00    +0.000 C 
BRANCH  19  20
ATOM     20  C   UNL     1       4.365   6.273  18.188  0.00  0.00    +0.000 A 
ATOM     21  C   UNL     1       5.101   5.537  19.129  0.00  0.00    +0.000 A 
ATOM     22  C   UNL     1       6.499   5.528  19.089  0.00  0.00    +0.000 A 
ATOM     23  C   UNL     1       7.179   6.253  18.113  0.00  0.00    +0.000 A 
ATOM     24  C   UNL     1       6.462   6.975  17.162  0.00  0.00    +0.000 A 
ATOM     25  C   UNL     1       5.066   6.983  17.197  0.00  0.00    +0.000 A 
ENDBRANCH  19  20
BRANCH  19  26
ATOM     26  C   UNL     1       2.155   5.095  18.778  0.00  0.00    +0.000 A 
ATOM     27  C   UNL     1       1.742   4.984  20.119  0.00  0.00    +0.000 A 
ATOM     28  C   UNL     1       1.013   3.880  20.560  0.00  0.00    +0.000 A 
ATOM     29  C   UNL     1       0.685   2.861  19.672  0.00  0.00    +0.000 A 
ATOM     30  C   UNL     1       1.099   2.939  18.345  0.00  0.00    +0.000 A 
ATOM     31  C   UNL     1       1.824   4.048  17.898  0.00  0.00    +0.000 A 
ENDBRANCH  19  26
ENDBRANCH  18  19
ENDBRANCH   1  18
TORSDOF 7
ENDMDL
MODEL 8
REMARK VINA RESULT:      -8.1      9.555     12.362
REMARK  Name = 
REMARK  8 active torsions:
REMARK  status: ('A' for Active; 'I' for Inactive)
REMARK    1  A    between atoms: C_1  and  N_2
REMARK    2  A    between atoms: C_6  and  S_7
REMARK    3  A    between atoms: S_7  and  C_8
REMARK    4  A    between atoms: C_9  and  C_10
REMARK    5  A    between atoms: C_10  and  O_12
REMARK    6  A    between atoms: O_12  and  C_13
REMARK    7  A    between atoms: C_13  and  C_14
REMARK    8  A    between atoms: C_13  and  C_20
REMARK                            x       y       z     vdW  Elec       q    Type
REMARK                         _______ _______ _______ _____ _____    ______ ____
ROOT
ATOM      1  C   UNL     1      -2.142  13.369  20.909  0.00  0.00    +0.000 C 
ATOM      2  O   UNL     1      -1.506  14.198  20.274  0.00  0.00    +0.000 OA
ENDROOT
BRANCH   1   4
ATOM      3  C   UNL     1      -4.279  14.056  22.051  0.00  0.00    +0.000 C 
ATOM      4  C   UNL     1      -2.988  13.669  22.105  0.00  0.00    +0.000 C 
ATOM      5  N   UNL     1      -2.430  13.567  23.380  0.00  0.00    +0.000 N 
ATOM      6  C   UNL     1      -1.610  14.580  23.812  0.00  0.00    +0.000 C 
ATOM      7  O   UNL     1      -0.666  15.127  23.291  0.00  0.00    +0.000 OA
ATOM      8  C   UNL     1      -2.512  14.881  25.016  0.00  0.00    +0.000 C 
ATOM      9  C   UNL     1      -3.420  13.780  24.456  0.00  0.00    +0.000 C 
ATOM     10  S   UNL     1      -4.947  14.365  23.643  0.00  0.00    +0.000 S 
BRANCH   3  11
ATOM     11  S   UNL     1      -5.240  14.404  20.653  0.00  0.00    +0.000 S 
BRANCH  11  17
ATOM     12  C   UNL     1      -7.408  13.432  18.399  0.00  0.00    +0.000 C 
ATOM     13  N   UNL     1      -6.999  12.643  19.526  0.00  0.00    +0.000 N 
ATOM     14  N   UNL     1      -7.536  11.426  19.732  0.00  0.00    +0.000 NA
ATOM     15  N   UNL     1      -6.949  10.968  20.829  0.00  0.00    +0.000 NA
ATOM     16  N   UNL     1      -6.054  11.881  21.332  0.00  0.00    +0.000 NA
ATOM     17  C   UNL     1      -6.102  12.914  20.521  0.00  0.00    +0.000 A 
ENDBRANCH  11  17
ENDBRANCH   3  11
ENDBRANCH   1   4
BRANCH   1  18
ATOM     18  O   UNL     1      -2.310  12.070  20.563  0.00  0.00    +0.000 OA
BRANCH  18  19
ATOM     19  C   UNL     1      -1.458  11.579  19.511  0.00  0.00    +0.000 C 
BRANCH  19  20
ATOM     20  C   UNL     1      -0.534  10.517  20.087  0.00  0.00    +0.000 A 
ATOM     21  C   UNL     1       0.548  10.006  19.353  0.00  0.00    +0.000 A 
ATOM     22  C   UNL     1       1.350   8.991  19.882  0.00  0.00    +0.000 A 
ATOM     23  C   UNL     1       1.083   8.471  21.147  0.00  0.00    +0.000 A 
ATOM     24  C   UNL     1       0.023   8.979  21.894  0.00  0.00    +0.000 A 
ATOM     25  C   UNL     1      -0.778   9.996  21.369  0.00  0.00    +0.000 A 
ENDBRANCH  19  20
BRANCH  19  26
ATOM     26  C   UNL     1      -2.330  11.116  18.344  0.00  0.00    +0.000 A 
ATOM     27  C   UNL     1      -3.674  11.512  18.215  0.00  0.00    +0.000 A 
ATOM     28  C   UNL     1      -4.421  11.173  17.086  0.00  0.00    +0.000 A 
ATOM     29  C   UNL     1      -3.841  10.426  16.066  0.00  0.00    +0.000 A 
ATOM     30  C   UNL     1      -2.518  10.007  16.179  0.00  0.00    +0.000 A 
ATOM     31  C   UNL     1      -1.766  10.352  17.306  0.00  0.00    +0.000 A 
ENDBRANCH  19  26
ENDBRANCH  18  19
ENDBRANCH   1  18
TORSDOF 7
ENDMDL
MODEL 9
REMARK VINA RESULT:      -8.1      7.271     10.385
REMARK  Name = 
REMARK  8 active torsions:
REMARK  status: ('A' for Active; 'I' for Inactive)
REMARK    1  A    between atoms: C_1  and  N_2
REMARK    2  A    between atoms: C_6  and  S_7
REMARK    3  A    between atoms: S_7  and  C_8
REMARK    4  A    between atoms: C_9  and  C_10
REMARK    5  A    between atoms: C_10  and  O_12
REMARK    6  A    between atoms: O_12  and  C_13
REMARK    7  A    between atoms: C_13  and  C_14
REMARK    8  A    between atoms: C_13  and  C_20
REMARK                            x       y       z     vdW  Elec       q    Type
REMARK                         _______ _______ _______ _____ _____    ______ ____
ROOT
ATOM      1  C   UNL     1       1.199  12.525  20.402  0.00  0.00    +0.000 C 
ATOM      2  O   UNL     1       1.429  11.966  21.465  0.00  0.00    +0.000 OA
ENDROOT
BRANCH   1   4
ATOM      3  C   UNL     1       0.904  15.005  20.083  0.00  0.00    +0.000 C 
ATOM      4  C   UNL     1       1.669  13.895  20.034  0.00  0.00    +0.000 C 
ATOM      5  N   UNL     1       2.980  14.072  19.589  0.00  0.00    +0.000 N 
ATOM      6  C   UNL     1       3.280  13.716  18.297  0.00  0.00    +0.000 C 
ATOM      7  O   UNL     1       3.055  12.707  17.670  0.00  0.00    +0.000 OA
ATOM      8  C   UNL     1       3.732  15.139  17.943  0.00  0.00    +0.000 C 
ATOM      9  C   UNL     1       3.326  15.494  19.378  0.00  0.00    +0.000 C 
ATOM     10  S   UNL     1       1.768  16.432  19.539  0.00  0.00    +0.000 S 
BRANCH   3  11
ATOM     11  S   UNL     1      -0.781  15.134  20.462  0.00  0.00    +0.000 S 
BRANCH  11  17
ATOM     12  C   UNL     1      -1.764  12.935  22.681  0.00  0.00    +0.000 C 
ATOM     13  N   UNL     1      -1.152  14.193  23.000  0.00  0.00    +0.000 N 
ATOM     14  N   UNL     1      -0.976  14.555  24.284  0.00  0.00    +0.000 NA
ATOM     15  N   UNL     1      -0.390  15.743  24.235  0.00  0.00    +0.000 NA
ATOM     16  N   UNL     1      -0.200  16.149  22.935  0.00  0.00    +0.000 NA
ATOM     17  C   UNL     1      -0.684  15.185  22.185  0.00  0.00    +0.000 A 
ENDBRANCH  11  17
ENDBRANCH   3  11
ENDBRANCH   1   4
BRANCH   1  18
ATOM     18  O   UNL     1       0.610  11.956  19.323  0.00  0.00    +0.000 OA
BRANCH  18  19
ATOM     19  C   UNL     1      -0.097  10.724  19.563  0.00  0.00    +0.000 C 
BRANCH  19  20
ATOM     20  C   UNL     1      -1.412  10.758  18.799  0.00  0.00    +0.000 A 
ATOM     21  C   UNL     1      -1.640   9.933  17.688  0.00  0.00    +0.000 A 
ATOM     22  C   UNL     1      -2.836  10.022  16.969  0.00  0.00    +0.000 A 
ATOM     23  C   UNL     1      -3.817  10.936  17.347  0.00  0.00    +0.000 A 
ATOM     24  C   UNL     1      -3.612  11.750  18.458  0.00  0.00    +0.000 A 
ATOM     25  C   UNL     1      -2.420  11.661  19.181  0.00  0.00    +0.000 A 
ENDBRANCH  19  20
BRANCH  19  26
ATOM     26  C   UNL     1       0.822   9.552  19.219  0.00  0.00    +0.000 A 
ATOM     27  C   UNL     1       1.474   9.456  17.975  0.00  0.00    +0.000 A 
ATOM     28  C   UNL     1       2.395   8.440  17.720  0.00  0.00    +0.000 A 
ATOM     29  C   UNL     1       2.680   7.495  18.702  0.00  0.00    +0.000 A 
ATOM     30  C   UNL     1       2.034   7.559  19.933  0.00  0.00    +0.000 A 
ATOM     31  C   UNL     1       1.115   8.580  20.193  0.00  0.00    +0.000 A 
ENDBRANCH  19  26
ENDBRANCH  18  19
ENDBRANCH   1  18
TORSDOF 7
ENDMDL
