MODEL 1
REMARK VINA RESULT:      -8.7      0.000      0.000
REMARK  Name = 
REMARK  13 active torsions:
REMARK  status: ('A' for Active; 'I' for Inactive)
REMARK    1  A    between atoms: NE_4  and  CD_5
REMARK    2  A    between atoms: CD_5  and  CG_6
REMARK    3  A    between atoms: CG_6  and  CB_7
REMARK    4  A    between atoms: CB_7  and  CA_8
REMARK    5  A    between atoms: CA_8  and  N_9
REMARK    6  A    between atoms: CA_8  and  C_25
REMARK    7  A    between atoms: C_10  and  C_12
REMARK    8  A    between atoms: C_12  and  C_13
REMARK    9  A    between atoms: C_12  and  C_19
REMARK   10  A    between atoms: N_27  and  C_28
REMARK   11  A    between atoms: C_28  and  C_29
REMARK   12  A    between atoms: C_28  and  C_31
REMARK   13  A    between atoms: C_29  and  O_30
REMARK                            x       y       z     vdW  Elec       q    Type
REMARK                         _______ _______ _______ _____ _____    ______ ____
ROOT
ATOM      1  CA  ARG A   1       6.346   4.946  16.967  0.00  0.00    +0.000 C 
ENDROOT
BRANCH   1   2
ATOM      2  N   ARG A   1       5.079   5.153  17.668  0.00  0.00    +0.000 N 
ATOM      3  C   UNK A   0       4.982   5.176  19.046  0.00  0.00    +0.000 C 
ATOM      4  O   UNK A   0       5.961   4.951  19.758  0.00  0.00    +0.000 OA
ATOM      5  H   ARG A   1       4.392   5.686  17.169  0.00  0.00    +0.000 HD
BRANCH   3   6
ATOM      6  C   UNK A   0       3.586   5.487  19.628  0.00  0.00    +0.000 C 
BRANCH   6   7
ATOM      7  C   UNK A   0       3.030   6.788  19.049  0.00  0.00    +0.000 A 
ATOM      8  C   UNK A   0       3.434   7.316  17.814  0.00  0.00    +0.000 A 
ATOM      9  C   UNK A   0       2.917   8.519  17.333  0.00  0.00    +0.000 A 
ATOM     10  C   UNK A   0       1.994   9.233  18.087  0.00  0.00    +0.000 A 
ATOM     11  C   UNK A   0       1.594   8.747  19.327  0.00  0.00    +0.000 A 
ATOM     12  C   UNK A   0       2.111   7.539  19.807  0.00  0.00    +0.000 A 
ENDBRANCH   6   7
BRANCH   6  13
ATOM     13  C   UNK A   0       2.615   4.288  19.698  0.00  0.00    +0.000 A 
ATOM     14  C   UNK A   0       2.175   3.687  18.504  0.00  0.00    +0.000 A 
ATOM     15  C   UNK A   0       1.298   2.594  18.522  0.00  0.00    +0.000 A 
ATOM     16  C   UNK A   0       0.829   2.084  19.729  0.00  0.00    +0.000 A 
ATOM     17  C   UNK A   0       1.243   2.661  20.920  0.00  0.00    +0.000 A 
ATOM     18  C   UNK A   0       2.132   3.737  20.901  0.00  0.00    +0.000 A 
ENDBRANCH   6  13
ENDBRANCH   3   6
ENDBRANCH   1   2
BRANCH   1  19
ATOM     19  C   ARG A   1       6.162   5.372  15.489  0.00  0.00    +0.000 C 
ATOM     20  O   ARG A   1       5.284   6.152  15.128  0.00  0.00    +0.000 OA
ATOM     21  N   UNK A   2       6.959   4.689  14.594  0.00  0.00    +0.000 N 
ATOM     22  H   UNK A   2       7.719   4.150  14.991  0.00  0.00    +0.000 HD
BRANCH  21  23
ATOM     23  C   UNK A   2       6.975   4.964  13.163  0.00  0.00    +0.000 C 
BRANCH  23  24
ATOM     24  C   UNK A   2       6.466   3.752  12.405  0.00  0.00    +0.000 A 
ATOM     25  C   UNK A   2       7.388   2.832  11.882  0.00  0.00    +0.000 A 
ATOM     26  C   UNK A   2       6.955   1.722  11.156  0.00  0.00    +0.000 A 
ATOM     27  C   UNK A   2       5.595   1.517  10.941  0.00  0.00    +0.000 A 
ATOM     28  C   UNK A   2       4.665   2.416  11.459  0.00  0.00    +0.000 A 
ATOM     29  C   UNK A   2       5.095   3.526  12.190  0.00  0.00    +0.000 A 
ENDBRANCH  23  24
BRANCH  23  30
ATOM     30  C   UNK A   2       8.370   5.409  12.661  0.00  0.00    +0.000 C 
BRANCH  30  31
ATOM     31  O   UNK A   2       9.089   6.200  13.607  0.00  0.00    +0.000 OA
ATOM     32  H   UNK A   2      10.044   6.012  13.509  0.00  0.00    +0.000 HD
ENDBRANCH  30  31
ENDBRANCH  23  30
ENDBRANCH  21  23
ENDBRANCH   1  19
BRANCH   1  33
ATOM     33  CB  ARG A   1       7.452   5.808  17.610  0.00  0.00    +0.000 C 
BRANCH  33  34
ATOM     34  CG  ARG A   1       7.254   7.324  17.422  0.00  0.00    +0.000 C 
BRANCH  34  35
ATOM     35  CD  ARG A   1       8.248   8.129  18.267  0.00  0.00    +0.000 C 
BRANCH  35  39
ATOM     36  NH1 ARG A   1       9.417  10.338  19.713  0.00  0.00    +0.000 NA
ATOM     37  CZ  ARG A   1       8.923  10.488  18.540  0.00  0.00    +0.000 C 
ATOM     38  NH2 ARG A   1       8.955  11.661  17.876  0.00  0.00    +0.000 N 
ATOM     39  NE  ARG A   1       8.304   9.517  17.833  0.00  0.00    +0.000 N 
ATOM     40  HH1 ARG A   1       9.822  11.222  20.026  0.00  0.00    +0.000 HD
ATOM     41 HH21 ARG A   1       9.143  12.472  18.451  0.00  0.00    +0.000 HD
ATOM     42 HH22 ARG A   1       8.153  11.821  17.280  0.00  0.00    +0.000 HD
ATOM     43  HE  ARG A   1       8.283   9.647  16.830  0.00  0.00    +0.000 HD
ENDBRANCH  35  39
ENDBRANCH  34  35
ENDBRANCH  33  34
ENDBRANCH   1  33
TORSDOF 13
ENDMDL
MODEL 2
REMARK VINA RESULT:      -8.6      1.027      3.462
REMARK  Name = 
REMARK  13 active torsions:
REMARK  status: ('A' for Active; 'I' for Inactive)
REMARK    1  A    between atoms: NE_4  and  CD_5
REMARK    2  A    between atoms: CD_5  and  CG_6
REMARK    3  A    between atoms: CG_6  and  CB_7
REMARK    4  A    between atoms: CB_7  and  CA_8
REMARK    5  A    between atoms: CA_8  and  N_9
REMARK    6  A    between atoms: CA_8  and  C_25
REMARK    7  A    between atoms: C_10  and  C_12
REMARK    8  A    between atoms: C_12  and  C_13
REMARK    9  A    between atoms: C_12  and  C_19
REMARK   10  A    between atoms: N_27  and  C_28
REMARK   11  A    between atoms: C_28  and  C_29
REMARK   12  A    between atoms: C_28  and  C_31
REMARK   13  A    between atoms: C_29  and  O_30
REMARK                            x       y       z     vdW  Elec       q    Type
REMARK                         _______ _______ _______ _____ _____    ______ ____
ROOT
ATOM      1  CA  ARG A   1       6.165   5.052  16.941  0.00  0.00    +0.000 C 
ENDROOT
BRANCH   1   2
ATOM      2  N   ARG A   1       4.869   5.327  17.561  0.00  0.00    +0.000 N 
ATOM      3  C   UNK A   0       3.776   4.497  17.407  0.00  0.00    +0.000 C 
ATOM      4  O   UNK A   0       3.824   3.509  16.673  0.00  0.00    +0.000 OA
ATOM      5  H   ARG A   1       4.901   5.861  18.409  0.00  0.00    +0.000 HD
BRANCH   3   6
ATOM      6  C   UNK A   0       2.506   4.886  18.193  0.00  0.00    +0.000 C 
BRANCH   6   7
ATOM      7  C   UNK A   0       2.299   3.959  19.391  0.00  0.00    +0.000 A 
ATOM      8  C   UNK A   0       1.033   3.615  19.887  0.00  0.00    +0.000 A 
ATOM      9  C   UNK A   0       0.889   2.783  20.998  0.00  0.00    +0.000 A 
ATOM     10  C   UNK A   0       2.012   2.288  21.650  0.00  0.00    +0.000 A 
ATOM     11  C   UNK A   0       3.281   2.634  21.196  0.00  0.00    +0.000 A 
ATOM     12  C   UNK A   0       3.424   3.467  20.081  0.00  0.00    +0.000 A 
ENDBRANCH   6   7
BRANCH   6  13
ATOM     13  C   UNK A   0       2.320   6.399  18.446  0.00  0.00    +0.000 A 
ATOM     14  C   UNK A   0       2.090   6.855  19.758  0.00  0.00    +0.000 A 
ATOM     15  C   UNK A   0       1.922   8.218  20.034  0.00  0.00    +0.000 A 
ATOM     16  C   UNK A   0       1.964   9.157  19.006  0.00  0.00    +0.000 A 
ATOM     17  C   UNK A   0       2.184   8.734  17.705  0.00  0.00    +0.000 A 
ATOM     18  C   UNK A   0       2.372   7.378  17.435  0.00  0.00    +0.000 A 
ENDBRANCH   6  13
ENDBRANCH   3   6
ENDBRANCH   1   2
BRANCH   1  19
ATOM     19  C   ARG A   1       6.104   5.501  15.459  0.00  0.00    +0.000 C 
ATOM     20  O   ARG A   1       5.374   6.409  15.072  0.00  0.00    +0.000 OA
ATOM     21  N   UNK A   2       6.814   4.699  14.590  0.00  0.00    +0.000 N 
ATOM     22  H   UNK A   2       7.465   4.048  15.011  0.00  0.00    +0.000 HD
BRANCH  21  23
ATOM     23  C   UNK A   2       6.924   4.968  13.162  0.00  0.00    +0.000 C 
BRANCH  23  24
ATOM     24  C   UNK A   2       6.513   3.736  12.377  0.00  0.00    +0.000 A 
ATOM     25  C   UNK A   2       5.149   3.471  12.178  0.00  0.00    +0.000 A 
ATOM     26  C   UNK A   2       4.737   2.333  11.485  0.00  0.00    +0.000 A 
ATOM     27  C   UNK A   2       5.682   1.441  10.983  0.00  0.00    +0.000 A 
ATOM     28  C   UNK A   2       7.040   1.692  11.165  0.00  0.00    +0.000 A 
ATOM     29  C   UNK A   2       7.456   2.833  11.855  0.00  0.00    +0.000 A 
ENDBRANCH  23  24
BRANCH  23  30
ATOM     30  C   UNK A   2       8.337   5.457  12.759  0.00  0.00    +0.000 C 
BRANCH  30  31
ATOM     31  O   UNK A   2       9.029   6.127  13.812  0.00  0.00    +0.000 OA
ATOM     32  H   UNK A   2       9.858   6.499  13.453  0.00  0.00    +0.000 HD
ENDBRANCH  30  31
ENDBRANCH  23  30
ENDBRANCH  21  23
ENDBRANCH   1  19
BRANCH   1  33
ATOM     33  CB  ARG A   1       7.275   5.842  17.665  0.00  0.00    +0.000 C 
BRANCH  33  34
ATOM     34  CG  ARG A   1       7.417   7.301  17.191  0.00  0.00    +0.000 C 
BRANCH  34  35
ATOM     35  CD  ARG A   1       8.237   8.136  18.181  0.00  0.00    +0.000 C 
BRANCH  35  39
ATOM     36  NH1 ARG A   1       9.621  10.276  19.537  0.00  0.00    +0.000 NA
ATOM     37  CZ  ARG A   1       8.919  10.489  18.485  0.00  0.00    +0.000 C 
ATOM     38  NH2 ARG A   1       8.815  11.702  17.907  0.00  0.00    +0.000 N 
ATOM     39  NE  ARG A   1       8.195   9.549  17.839  0.00  0.00    +0.000 N 
ATOM     40  HH1 ARG A   1      10.065  11.148  19.830  0.00  0.00    +0.000 HD
ATOM     41 HH21 ARG A   1       9.094  12.480  18.492  0.00  0.00    +0.000 HD
ATOM     42 HH22 ARG A   1       7.916  11.879  17.478  0.00  0.00    +0.000 HD
ATOM     43  HE  ARG A   1       7.990   9.743  16.867  0.00  0.00    +0.000 HD
ENDBRANCH  35  39
ENDBRANCH  34  35
ENDBRANCH  33  34
ENDBRANCH   1  33
TORSDOF 13
ENDMDL
MODEL 3
REMARK VINA RESULT:      -8.3      4.257      9.458
REMARK  Name = 
REMARK  13 active torsions:
REMARK  status: ('A' for Active; 'I' for Inactive)
REMARK    1  A    between atoms: NE_4  and  CD_5
REMARK    2  A    between atoms: CD_5  and  CG_6
REMARK    3  A    between atoms: CG_6  and  CB_7
REMARK    4  A    between atoms: CB_7  and  CA_8
REMARK    5  A    between atoms: CA_8  and  N_9
REMARK    6  A    between atoms: CA_8  and  C_25
REMARK    7  A    between atoms: C_10  and  C_12
REMARK    8  A    between atoms: C_12  and  C_13
REMARK    9  A    between atoms: C_12  and  C_19
REMARK   10  A    between atoms: N_27  and  C_28
REMARK   11  A    between atoms: C_28  and  C_29
REMARK   12  A    between atoms: C_28  and  C_31
REMARK   13  A    between atoms: C_29  and  O_30
REMARK                            x       y       z     vdW  Elec       q    Type
REMARK                         _______ _______ _______ _____ _____    ______ ____
ROOT
ATOM      1  CA  ARG A   1       1.269   9.680  18.354  0.00  0.00    +0.000 C 
ENDROOT
BRANCH   1   2
ATOM      2  N   ARG A   1       1.997   8.473  18.747  0.00  0.00    +0.000 N 
ATOM      3  C   UNK A   0       2.799   7.767  17.872  0.00  0.00    +0.000 C 
ATOM      4  O   UNK A   0       2.885   8.086  16.686  0.00  0.00    +0.000 OA
ATOM      5  H   ARG A   1       2.243   8.415  19.717  0.00  0.00    +0.000 HD
BRANCH   3   6
ATOM      6  C   UNK A   0       3.562   6.563  18.465  0.00  0.00    +0.000 C 
BRANCH   6   7
ATOM      7  C   UNK A   0       2.593   5.466  18.907  0.00  0.00    +0.000 A 
ATOM      8  C   UNK A   0       1.893   4.650  18.006  0.00  0.00    +0.000 A 
ATOM      9  C   UNK A   0       1.000   3.675  18.451  0.00  0.00    +0.000 A 
ATOM     10  C   UNK A   0       0.774   3.504  19.811  0.00  0.00    +0.000 A 
ATOM     11  C   UNK A   0       1.435   4.316  20.727  0.00  0.00    +0.000 A 
ATOM     12  C   UNK A   0       2.331   5.292  20.280  0.00  0.00    +0.000 A 
ENDBRANCH   6   7
BRANCH   6  13
ATOM     13  C   UNK A   0       4.807   6.111  17.672  0.00  0.00    +0.000 A 
ATOM     14  C   UNK A   0       4.709   5.006  16.806  0.00  0.00    +0.000 A 
ATOM     15  C   UNK A   0       5.812   4.565  16.063  0.00  0.00    +0.000 A 
ATOM     16  C   UNK A   0       7.042   5.206  16.177  0.00  0.00    +0.000 A 
ATOM     17  C   UNK A   0       7.168   6.293  17.028  0.00  0.00    +0.000 A 
ATOM     18  C   UNK A   0       6.063   6.744  17.751  0.00  0.00    +0.000 A 
ENDBRANCH   6  13
ENDBRANCH   3   6
ENDBRANCH   1   2
BRANCH   1  19
ATOM     19  C   ARG A   1       0.079   9.872  19.328  0.00  0.00    +0.000 C 
ATOM     20  O   ARG A   1      -1.085   9.947  18.945  0.00  0.00    +0.000 OA
ATOM     21  N   UNK A   2       0.445  10.108  20.637  0.00  0.00    +0.000 N 
ATOM     22  H   UNK A   2       1.411   9.920  20.874  0.00  0.00    +0.000 HD
BRANCH  21  23
ATOM     23  C   UNK A   2      -0.517  10.272  21.720  0.00  0.00    +0.000 C 
BRANCH  23  24
ATOM     24  C   UNK A   2      -0.595  11.734  22.116  0.00  0.00    +0.000 A 
ATOM     25  C   UNK A   2      -1.535  12.137  23.076  0.00  0.00    +0.000 A 
ATOM     26  C   UNK A   2      -1.651  13.478  23.444  0.00  0.00    +0.000 A 
ATOM     27  C   UNK A   2      -0.829  14.436  22.855  0.00  0.00    +0.000 A 
ATOM     28  C   UNK A   2       0.115  14.053  21.905  0.00  0.00    +0.000 A 
ATOM     29  C   UNK A   2       0.237  12.710  21.538  0.00  0.00    +0.000 A 
ENDBRANCH  23  24
BRANCH  23  30
ATOM     30  C   UNK A   2      -0.200   9.366  22.935  0.00  0.00    +0.000 C 
BRANCH  30  31
ATOM     31  O   UNK A   2       1.078   9.620  23.516  0.00  0.00    +0.000 OA
ATOM     32  H   UNK A   2       1.358   8.827  24.014  0.00  0.00    +0.000 HD
ENDBRANCH  30  31
ENDBRANCH  23  30
ENDBRANCH  21  23
ENDBRANCH   1  19
BRANCH   1  33
ATOM     33  CB  ARG A   1       2.199  10.909  18.440  0.00  0.00    +0.000 C 
BRANCH  33  34
ATOM     34  CG  ARG A   1       1.515  12.238  18.069  0.00  0.00    +0.000 C 
BRANCH  34  35
ATOM     35  CD  ARG A   1       2.261  13.438  18.666  0.00  0.00    +0.000 C 
BRANCH  35  39
ATOM     36  NH1 ARG A   1       3.881  15.826  18.749  0.00  0.00    +0.000 NA
ATOM     37  CZ  ARG A   1       4.276  14.765  18.146  0.00  0.00    +0.000 C 
ATOM     38  NH2 ARG A   1       5.483  14.666  17.554  0.00  0.00    +0.000 N 
ATOM     39  NE  ARG A   1       3.545  13.637  18.011  0.00  0.00    +0.000 N 
ATOM     40  HH1 ARG A   1       4.616  16.534  18.705  0.00  0.00    +0.000 HD
ATOM     41 HH21 ARG A   1       5.947  15.548  17.378  0.00  0.00    +0.000 HD
ATOM     42 HH22 ARG A   1       5.491  14.083  16.727  0.00  0.00    +0.000 HD
ATOM     43  HE  ARG A   1       4.071  12.789  17.846  0.00  0.00    +0.000 HD
ENDBRANCH  35  39
ENDBRANCH  34  35
ENDBRANCH  33  34
ENDBRANCH   1  33
TORSDOF 13
ENDMDL
MODEL 4
REMARK VINA RESULT:      -8.3      5.209      9.265
REMARK  Name = 
REMARK  13 active torsions:
REMARK  status: ('A' for Active; 'I' for Inactive)
REMARK    1  A    between atoms: NE_4  and  CD_5
REMARK    2  A    between atoms: CD_5  and  CG_6
REMARK    3  A    between atoms: CG_6  and  CB_7
REMARK    4  A    between atoms: CB_7  and  CA_8
REMARK    5  A    between atoms: CA_8  and  N_9
REMARK    6  A    between atoms: CA_8  and  C_25
REMARK    7  A    between atoms: C_10  and  C_12
REMARK    8  A    between atoms: C_12  and  C_13
REMARK    9  A    between atoms: C_12  and  C_19
REMARK   10  A    between atoms: N_27  and  C_28
REMARK   11  A    between atoms: C_28  and  C_29
REMARK   12  A    between atoms: C_28  and  C_31
REMARK   13  A    between atoms: C_29  and  O_30
REMARK                            x       y       z     vdW  Elec       q    Type
REMARK                         _______ _______ _______ _____ _____    ______ ____
ROOT
ATOM      1  CA  ARG A   1       1.335   9.270  19.984  0.00  0.00    +0.000 C 
ENDROOT
BRANCH   1   2
ATOM      2  N   ARG A   1       1.852   8.222  19.103  0.00  0.00    +0.000 N 
ATOM      3  C   UNK A   0       2.405   7.050  19.580  0.00  0.00    +0.000 C 
ATOM      4  O   UNK A   0       2.555   6.861  20.788  0.00  0.00    +0.000 OA
ATOM      5  H   ARG A   1       1.425   8.171  18.197  0.00  0.00    +0.000 HD
BRANCH   3   6
ATOM      6  C   UNK A   0       2.828   6.013  18.519  0.00  0.00    +0.000 C 
BRANCH   6   7
ATOM      7  C   UNK A   0       4.338   6.059  18.280  0.00  0.00    +0.000 A 
ATOM      8  C   UNK A   0       5.270   5.440  19.124  0.00  0.00    +0.000 A 
ATOM      9  C   UNK A   0       6.641   5.527  18.882  0.00  0.00    +0.000 A 
ATOM     10  C   UNK A   0       7.113   6.251  17.794  0.00  0.00    +0.000 A 
ATOM     11  C   UNK A   0       6.212   6.897  16.953  0.00  0.00    +0.000 A 
ATOM     12  C   UNK A   0       4.838   6.808  17.197  0.00  0.00    +0.000 A 
ENDBRANCH   6   7
BRANCH   6  13
ATOM     13  C   UNK A   0       2.193   4.613  18.669  0.00  0.00    +0.000 A 
ATOM     14  C   UNK A   0       2.550   3.593  17.767  0.00  0.00    +0.000 A 
ATOM     15  C   UNK A   0       2.003   2.307  17.870  0.00  0.00    +0.000 A 
ATOM     16  C   UNK A   0       1.075   2.013  18.866  0.00  0.00    +0.000 A 
ATOM     17  C   UNK A   0       0.701   3.001  19.763  0.00  0.00    +0.000 A 
ATOM     18  C   UNK A   0       1.263   4.274  19.672  0.00  0.00    +0.000 A 
ENDBRANCH   6  13
ENDBRANCH   3   6
ENDBRANCH   1   2
BRANCH   1  19
ATOM     19  C   ARG A   1       0.597  10.319  19.115  0.00  0.00    +0.000 C 
ATOM     20  O   ARG A   1      -0.190  10.007  18.226  0.00  0.00    +0.000 OA
ATOM     21  N   UNK A   2       1.010  11.619  19.316  0.00  0.00    +0.000 N 
ATOM     22  H   UNK A   2       1.578  11.788  20.137  0.00  0.00    +0.000 HD
BRANCH  21  23
ATOM     23  C   UNK A   2       0.416  12.763  18.634  0.00  0.00    +0.000 C 
BRANCH  23  24
ATOM     24  C   UNK A   2       1.421  13.899  18.574  0.00  0.00    +0.000 A 
ATOM     25  C   UNK A   2       0.991  15.210  18.830  0.00  0.00    +0.000 A 
ATOM     26  C   UNK A   2       1.883  16.280  18.757  0.00  0.00    +0.000 A 
ATOM     27  C   UNK A   2       3.216  16.056  18.424  0.00  0.00    +0.000 A 
ATOM     28  C   UNK A   2       3.662  14.759  18.172  0.00  0.00    +0.000 A 
ATOM     29  C   UNK A   2       2.772  13.685  18.250  0.00  0.00    +0.000 A 
ENDBRANCH  23  24
BRANCH  23  30
ATOM     30  C   UNK A   2      -0.916  13.211  19.281  0.00  0.00    +0.000 C 
BRANCH  30  31
ATOM     31  O   UNK A   2      -2.066  12.595  18.702  0.00  0.00    +0.000 OA
ATOM     32  H   UNK A   2      -1.853  11.661  18.505  0.00  0.00    +0.000 HD
ENDBRANCH  30  31
ENDBRANCH  23  30
ENDBRANCH  21  23
ENDBRANCH   1  19
BRANCH   1  33
ATOM     33  CB  ARG A   1       0.345   8.664  21.000  0.00  0.00    +0.000 C 
BRANCH  33  34
ATOM     34  CG  ARG A   1       0.519   9.194  22.436  0.00  0.00    +0.000 C 
BRANCH  34  35
ATOM     35  CD  ARG A   1      -0.754   9.886  22.938  0.00  0.00    +0.000 C 
BRANCH  35  39
ATOM     36  NH1 ARG A   1      -2.864  11.796  23.421  0.00  0.00    +0.000 NA
ATOM     37  CZ  ARG A   1      -1.694  12.165  23.048  0.00  0.00    +0.000 C 
ATOM     38  NH2 ARG A   1      -1.346  13.460  22.903  0.00  0.00    +0.000 N 
ATOM     39  NE  ARG A   1      -0.681  11.326  22.743  0.00  0.00    +0.000 N 
ATOM     40  HH1 ARG A   1      -3.443  12.621  23.585  0.00  0.00    +0.000 HD
ATOM     41 HH21 ARG A   1      -2.123  14.106  22.842  0.00  0.00    +0.000 HD
ATOM     42 HH22 ARG A   1      -0.678  13.628  22.162  0.00  0.00    +0.000 HD
ATOM     43  HE  ARG A   1       0.251  11.715  22.813  0.00  0.00    +0.000 HD
ENDBRANCH  35  39
ENDBRANCH  34  35
ENDBRANCH  33  34
ENDBRANCH   1  33
TORSDOF 13
ENDMDL
MODEL 5
REMARK VINA RESULT:      -8.3      5.083      9.218
REMARK  Name = 
REMARK  13 active torsions:
REMARK  status: ('A' for Active; 'I' for Inactive)
REMARK    1  A    between atoms: NE_4  and  CD_5
REMARK    2  A    between atoms: CD_5  and  CG_6
REMARK    3  A    between atoms: CG_6  and  CB_7
REMARK    4  A    between atoms: CB_7  and  CA_8
REMARK    5  A    between atoms: CA_8  and  N_9
REMARK    6  A    between atoms: CA_8  and  C_25
REMARK    7  A    between atoms: C_10  and  C_12
REMARK    8  A    between atoms: C_12  and  C_13
REMARK    9  A    between atoms: C_12  and  C_19
REMARK   10  A    between atoms: N_27  and  C_28
REMARK   11  A    between atoms: C_28  and  C_29
REMARK   12  A    between atoms: C_28  and  C_31
REMARK   13  A    between atoms: C_29  and  O_30
REMARK                            x       y       z     vdW  Elec       q    Type
REMARK                         _______ _______ _______ _____ _____    ______ ____
ROOT
ATOM      1  CA  ARG A   1       1.303   8.975  20.082  0.00  0.00    +0.000 C 
ENDROOT
BRANCH   1   2
ATOM      2  N   ARG A   1       1.632   7.711  19.423  0.00  0.00    +0.000 N 
ATOM      3  C   UNK A   0       2.652   7.593  18.500  0.00  0.00    +0.000 C 
ATOM      4  O   UNK A   0       3.296   8.576  18.131  0.00  0.00    +0.000 OA
ATOM      5  H   ARG A   1       1.410   6.883  19.943  0.00  0.00    +0.000 HD
BRANCH   3   6
ATOM      6  C   UNK A   0       2.922   6.173  17.958  0.00  0.00    +0.000 C 
BRANCH   6   7
ATOM      7  C   UNK A   0       4.417   5.953  17.722  0.00  0.00    +0.000 A 
ATOM      8  C   UNK A   0       5.330   5.700  18.755  0.00  0.00    +0.000 A 
ATOM      9  C   UNK A   0       6.690   5.528  18.498  0.00  0.00    +0.000 A 
ATOM     10  C   UNK A   0       7.172   5.621  17.198  0.00  0.00    +0.000 A 
ATOM     11  C   UNK A   0       6.293   5.897  16.156  0.00  0.00    +0.000 A 
ATOM     12  C   UNK A   0       4.929   6.067  16.415  0.00  0.00    +0.000 A 
ENDBRANCH   6   7
BRANCH   6  13
ATOM     13  C   UNK A   0       2.158   5.035  18.670  0.00  0.00    +0.000 A 
ATOM     14  C   UNK A   0       2.060   5.044  20.074  0.00  0.00    +0.000 A 
ATOM     15  C   UNK A   0       1.371   4.035  20.761  0.00  0.00    +0.000 A 
ATOM     16  C   UNK A   0       0.777   2.986  20.064  0.00  0.00    +0.000 A 
ATOM     17  C   UNK A   0       0.864   2.950  18.681  0.00  0.00    +0.000 A 
ATOM     18  C   UNK A   0       1.532   3.967  17.998  0.00  0.00    +0.000 A 
ENDBRANCH   6  13
ENDBRANCH   3   6
ENDBRANCH   1   2
BRANCH   1  19
ATOM     19  C   ARG A   1       0.743   9.950  19.016  0.00  0.00    +0.000 C 
ATOM     20  O   ARG A   1       0.105   9.569  18.039  0.00  0.00    +0.000 OA
ATOM     21  N   UNK A   2       1.150  11.259  19.170  0.00  0.00    +0.000 N 
ATOM     22  H   UNK A   2       1.580  11.494  20.057  0.00  0.00    +0.000 HD
BRANCH  21  23
ATOM     23  C   UNK A   2       0.705  12.344  18.304  0.00  0.00    +0.000 C 
BRANCH  23  24
ATOM     24  C   UNK A   2       1.575  13.566  18.529  0.00  0.00    +0.000 A 
ATOM     25  C   UNK A   2       0.987  14.752  18.995  0.00  0.00    +0.000 A 
ATOM     26  C   UNK A   2       1.753  15.902  19.187  0.00  0.00    +0.000 A 
ATOM     27  C   UNK A   2       3.119  15.884  18.913  0.00  0.00    +0.000 A 
ATOM     28  C   UNK A   2       3.721  14.713  18.456  0.00  0.00    +0.000 A 
ATOM     29  C   UNK A   2       2.957  13.559  18.268  0.00  0.00    +0.000 A 
ENDBRANCH  23  24
BRANCH  23  30
ATOM     30  C   UNK A   2      -0.798  12.669  18.488  0.00  0.00    +0.000 C 
BRANCH  30  31
ATOM     31  O   UNK A   2      -1.603  12.292  17.371  0.00  0.00    +0.000 OA
ATOM     32  H   UNK A   2      -1.841  13.098  16.872  0.00  0.00    +0.000 HD
ENDBRANCH  30  31
ENDBRANCH  23  30
ENDBRANCH  21  23
ENDBRANCH   1  19
BRANCH   1  33
ATOM     33  CB  ARG A   1       0.233   8.742  21.169  0.00  0.00    +0.000 C 
BRANCH  33  34
ATOM     34  CG  ARG A   1       0.563   9.398  22.523  0.00  0.00    +0.000 C 
BRANCH  34  35
ATOM     35  CD  ARG A   1      -0.664  10.097  23.121  0.00  0.00    +0.000 C 
BRANCH  35  39
ATOM     36  NH1 ARG A   1      -2.964  11.801  23.494  0.00  0.00    +0.000 NA
ATOM     37  CZ  ARG A   1      -1.986  12.146  22.740  0.00  0.00    +0.000 C 
ATOM     38  NH2 ARG A   1      -1.931  13.337  22.110  0.00  0.00    +0.000 N 
ATOM     39  NE  ARG A   1      -0.911  11.374  22.469  0.00  0.00    +0.000 N 
ATOM     40  HH1 ARG A   1      -3.648  12.559  23.529  0.00  0.00    +0.000 HD
ATOM     41 HH21 ARG A   1      -2.814  13.827  22.046  0.00  0.00    +0.000 HD
ATOM     42 HH22 ARG A   1      -1.469  13.308  21.210  0.00  0.00    +0.000 HD
ATOM     43  HE  ARG A   1      -0.078  11.866  22.174  0.00  0.00    +0.000 HD
ENDBRANCH  35  39
ENDBRANCH  34  35
ENDBRANCH  33  34
ENDBRANCH   1  33
TORSDOF 13
ENDMDL
MODEL 6
REMARK VINA RESULT:      -8.2      5.100      9.436
REMARK  Name = 
REMARK  13 active torsions:
REMARK  status: ('A' for Active; 'I' for Inactive)
REMARK    1  A    between atoms: NE_4  and  CD_5
REMARK    2  A    between atoms: CD_5  and  CG_6
REMARK    3  A    between atoms: CG_6  and  CB_7
REMARK    4  A    between atoms: CB_7  and  CA_8
REMARK    5  A    between atoms: CA_8  and  N_9
REMARK    6  A    between atoms: CA_8  and  C_25
REMARK    7  A    between atoms: C_10  and  C_12
REMARK    8  A    between atoms: C_12  and  C_13
REMARK    9  A    between atoms: C_12  and  C_19
REMARK   10  A    between atoms: N_27  and  C_28
REMARK   11  A    between atoms: C_28  and  C_29
REMARK   12  A    between atoms: C_28  and  C_31
REMARK   13  A    between atoms: C_29  and  O_30
REMARK                            x       y       z     vdW  Elec       q    Type
REMARK                         _______ _______ _______ _____ _____    ______ ____
ROOT
ATOM      1  CA  ARG A   1       1.090   9.841  19.297  0.00  0.00    +0.000 C 
ENDROOT
BRANCH   1   2
ATOM      2  N   ARG A   1       1.615   8.650  18.629  0.00  0.00    +0.000 N 
ATOM      3  C   UNK A   0       2.140   7.576  19.321  0.00  0.00    +0.000 C 
ATOM      4  O   UNK A   0       2.256   7.601  20.547  0.00  0.00    +0.000 OA
ATOM      5  H   ARG A   1       1.211   8.444  17.735  0.00  0.00    +0.000 HD
BRANCH   3   6
ATOM      6  C   UNK A   0       2.576   6.364  18.471  0.00  0.00    +0.000 C 
BRANCH   6   7
ATOM      7  C   UNK A   0       4.089   6.368  18.248  0.00  0.00    +0.000 A 
ATOM      8  C   UNK A   0       4.710   7.059  17.198  0.00  0.00    +0.000 A 
ATOM      9  C   UNK A   0       6.092   7.017  17.017  0.00  0.00    +0.000 A 
ATOM     10  C   UNK A   0       6.886   6.269  17.876  0.00  0.00    +0.000 A 
ATOM     11  C   UNK A   0       6.295   5.552  18.912  0.00  0.00    +0.000 A 
ATOM     12  C   UNK A   0       4.909   5.596  19.093  0.00  0.00    +0.000 A 
ENDBRANCH   6   7
BRANCH   6  13
ATOM     13  C   UNK A   0       1.937   5.013  18.864  0.00  0.00    +0.000 A 
ATOM     14  C   UNK A   0       1.593   4.779  20.209  0.00  0.00    +0.000 A 
ATOM     15  C   UNK A   0       1.006   3.572  20.609  0.00  0.00    +0.000 A 
ATOM     16  C   UNK A   0       0.762   2.564  19.680  0.00  0.00    +0.000 A 
ATOM     17  C   UNK A   0       1.096   2.766  18.350  0.00  0.00    +0.000 A 
ATOM     18  C   UNK A   0       1.661   3.978  17.950  0.00  0.00    +0.000 A 
ENDBRANCH   6  13
ENDBRANCH   3   6
ENDBRANCH   1   2
BRANCH   1  19
ATOM     19  C   ARG A   1       1.694  11.092  18.612  0.00  0.00    +0.000 C 
ATOM     20  O   ARG A   1       2.569  11.020  17.753  0.00  0.00    +0.000 OA
ATOM     21  N   UNK A   2       1.285  12.293  19.153  0.00  0.00    +0.000 N 
ATOM     22  H   UNK A   2       0.489  12.256  19.778  0.00  0.00    +0.000 HD
BRANCH  21  23
ATOM     23  C   UNK A   2       1.699  13.589  18.631  0.00  0.00    +0.000 C 
BRANCH  23  24
ATOM     24  C   UNK A   2       2.917  14.081  19.391  0.00  0.00    +0.000 A 
ATOM     25  C   UNK A   2       3.971  14.682  18.686  0.00  0.00    +0.000 A 
ATOM     26  C   UNK A   2       5.116  15.121  19.351  0.00  0.00    +0.000 A 
ATOM     27  C   UNK A   2       5.226  14.962  20.730  0.00  0.00    +0.000 A 
ATOM     28  C   UNK A   2       4.186  14.373  21.448  0.00  0.00    +0.000 A 
ATOM     29  C   UNK A   2       3.036  13.937  20.785  0.00  0.00    +0.000 A 
ENDBRANCH  23  24
BRANCH  23  30
ATOM     30  C   UNK A   2       0.553  14.630  18.653  0.00  0.00    +0.000 C 
BRANCH  30  31
ATOM     31  O   UNK A   2      -0.748  14.044  18.650  0.00  0.00    +0.000 OA
ATOM     32  H   UNK A   2      -0.699  13.178  18.199  0.00  0.00    +0.000 HD
ENDBRANCH  30  31
ENDBRANCH  23  30
ENDBRANCH  21  23
ENDBRANCH   1  19
BRANCH   1  33
ATOM     33  CB  ARG A   1      -0.447   9.884  19.169  0.00  0.00    +0.000 C 
BRANCH  33  34
ATOM     34  CG  ARG A   1      -0.966   9.572  17.753  0.00  0.00    +0.000 C 
BRANCH  34  35
ATOM     35  CD  ARG A   1      -1.818  10.722  17.201  0.00  0.00    +0.000 C 
BRANCH  35  39
ATOM     36  NH1 ARG A   1      -4.547  10.952  16.289  0.00  0.00    +0.000 NA
ATOM     37  CZ  ARG A   1      -3.600  10.605  15.497  0.00  0.00    +0.000 C 
ATOM     38  NH2 ARG A   1      -3.792  10.374  14.183  0.00  0.00    +0.000 N 
ATOM     39  NE  ARG A   1      -2.315  10.416  15.869  0.00  0.00    +0.000 N 
ATOM     40  HH1 ARG A   1      -5.420  11.022  15.763  0.00  0.00    +0.000 HD
ATOM     41 HH21 ARG A   1      -4.755  10.224  13.912  0.00  0.00    +0.000 HD
ATOM     42 HH22 ARG A   1      -3.194   9.653  13.799  0.00  0.00    +0.000 HD
ATOM     43  HE  ARG A   1      -1.627  10.498  15.132  0.00  0.00    +0.000 HD
ENDBRANCH  35  39
ENDBRANCH  34  35
ENDBRANCH  33  34
ENDBRANCH   1  33
TORSDOF 13
ENDMDL
MODEL 7
REMARK VINA RESULT:      -8.2      5.090      9.654
REMARK  Name = 
REMARK  13 active torsions:
REMARK  status: ('A' for Active; 'I' for Inactive)
REMARK    1  A    between atoms: NE_4  and  CD_5
REMARK    2  A    between atoms: CD_5  and  CG_6
REMARK    3  A    between atoms: CG_6  and  CB_7
REMARK    4  A    between atoms: CB_7  and  CA_8
REMARK    5  A    between atoms: CA_8  and  N_9
REMARK    6  A    between atoms: CA_8  and  C_25
REMARK    7  A    between atoms: C_10  and  C_12
REMARK    8  A    between atoms: C_12  and  C_13
REMARK    9  A    between atoms: C_12  and  C_19
REMARK   10  A    between atoms: N_27  and  C_28
REMARK   11  A    between atoms: C_28  and  C_29
REMARK   12  A    between atoms: C_28  and  C_31
REMARK   13  A    between atoms: C_29  and  O_30
REMARK                            x       y       z     vdW  Elec       q    Type
REMARK                         _______ _______ _______ _____ _____    ______ ____
ROOT
ATOM      1  CA  ARG A   1       0.913   9.620  18.628  0.00  0.00    +0.000 C 
ENDROOT
BRANCH   1   2
ATOM      2  N   ARG A   1       1.543   8.404  18.114  0.00  0.00    +0.000 N 
ATOM      3  C   UNK A   0       2.178   7.489  18.931  0.00  0.00    +0.000 C 
ATOM      4  O   UNK A   0       2.306   7.693  20.139  0.00  0.00    +0.000 OA
ATOM      5  H   ARG A   1       1.150   8.040  17.267  0.00  0.00    +0.000 HD
BRANCH   3   6
ATOM      6  C   UNK A   0       2.720   6.218  18.242  0.00  0.00    +0.000 C 
BRANCH   6   7
ATOM      7  C   UNK A   0       4.247   6.244  18.169  0.00  0.00    +0.000 A 
ATOM      8  C   UNK A   0       4.958   6.952  17.190  0.00  0.00    +0.000 A 
ATOM      9  C   UNK A   0       6.353   6.929  17.146  0.00  0.00    +0.000 A 
ATOM     10  C   UNK A   0       7.068   6.184  18.074  0.00  0.00    +0.000 A 
ATOM     11  C   UNK A   0       6.388   5.451  19.042  0.00  0.00    +0.000 A 
ATOM     12  C   UNK A   0       4.990   5.476  19.086  0.00  0.00    +0.000 A 
ENDBRANCH   6   7
BRANCH   6  13
ATOM     13  C   UNK A   0       2.069   4.892  18.691  0.00  0.00    +0.000 A 
ATOM     14  C   UNK A   0       1.621   4.759  20.019  0.00  0.00    +0.000 A 
ATOM     15  C   UNK A   0       1.019   3.576  20.468  0.00  0.00    +0.000 A 
ATOM     16  C   UNK A   0       0.864   2.492  19.608  0.00  0.00    +0.000 A 
ATOM     17  C   UNK A   0       1.302   2.594  18.296  0.00  0.00    +0.000 A 
ATOM     18  C   UNK A   0       1.881   3.781  17.846  0.00  0.00    +0.000 A 
ENDBRANCH   6  13
ENDBRANCH   3   6
ENDBRANCH   1   2
BRANCH   1  19
ATOM     19  C   ARG A   1       1.869  10.812  18.372  0.00  0.00    +0.000 C 
ATOM     20  O   ARG A   1       2.790  10.760  17.561  0.00  0.00    +0.000 OA
ATOM     21  N   UNK A   2       1.702  11.874  19.236  0.00  0.00    +0.000 N 
ATOM     22  H   UNK A   2       0.857  11.870  19.794  0.00  0.00    +0.000 HD
BRANCH  21  23
ATOM     23  C   UNK A   2       2.468  13.110  19.143  0.00  0.00    +0.000 C 
BRANCH  23  24
ATOM     24  C   UNK A   2       2.160  13.993  20.338  0.00  0.00    +0.000 A 
ATOM     25  C   UNK A   2       0.856  14.018  20.856  0.00  0.00    +0.000 A 
ATOM     26  C   UNK A   2       0.533  14.838  21.937  0.00  0.00    +0.000 A 
ATOM     27  C   UNK A   2       1.507  15.649  22.514  0.00  0.00    +0.000 A 
ATOM     28  C   UNK A   2       2.809  15.632  22.017  0.00  0.00    +0.000 A 
ATOM     29  C   UNK A   2       3.137  14.807  20.938  0.00  0.00    +0.000 A 
ENDBRANCH  23  24
BRANCH  23  30
ATOM     30  C   UNK A   2       2.231  13.854  17.806  0.00  0.00    +0.000 C 
BRANCH  30  31
ATOM     31  O   UNK A   2       3.363  14.600  17.361  0.00  0.00    +0.000 OA
ATOM     32  H   UNK A   2       3.595  14.307  16.458  0.00  0.00    +0.000 HD
ENDBRANCH  30  31
ENDBRANCH  23  30
ENDBRANCH  21  23
ENDBRANCH   1  19
BRANCH   1  33
ATOM     33  CB  ARG A   1      -0.422   9.874  17.896  0.00  0.00    +0.000 C 
BRANCH  33  34
ATOM     34  CG  ARG A   1      -1.376  10.822  18.646  0.00  0.00    +0.000 C 
BRANCH  34  35
ATOM     35  CD  ARG A   1      -2.162  11.710  17.674  0.00  0.00    +0.000 C 
BRANCH  35  39
ATOM     36  NH1 ARG A   1      -4.567  11.074  16.209  0.00  0.00    +0.000 NA
ATOM     37  CZ  ARG A   1      -3.403  10.891  15.703  0.00  0.00    +0.000 C 
ATOM     38  NH2 ARG A   1      -3.213  10.442  14.447  0.00  0.00    +0.000 N 
ATOM     39  NE  ARG A   1      -2.238  11.105  16.353  0.00  0.00    +0.000 N 
ATOM     40  HH1 ARG A   1      -5.279  10.836  15.516  0.00  0.00    +0.000 HD
ATOM     41 HH21 ARG A   1      -4.021  10.004  14.022  0.00  0.00    +0.000 HD
ATOM     42 HH22 ARG A   1      -2.390   9.863  14.335  0.00  0.00    +0.000 HD
ATOM     43  HE  ARG A   1      -1.430  11.269  15.766  0.00  0.00    +0.000 HD
ENDBRANCH  35  39
ENDBRANCH  34  35
ENDBRANCH  33  34
ENDBRANCH   1  33
TORSDOF 13
ENDMDL
MODEL 8
REMARK VINA RESULT:      -8.2      1.591      4.089
REMARK  Name = 
REMARK  13 active torsions:
REMARK  status: ('A' for Active; 'I' for Inactive)
REMARK    1  A    between atoms: NE_4  and  CD_5
REMARK    2  A    between atoms: CD_5  and  CG_6
REMARK    3  A    between atoms: CG_6  and  CB_7
REMARK    4  A    between atoms: CB_7  and  CA_8
REMARK    5  A    between atoms: CA_8  and  N_9
REMARK    6  A    between atoms: CA_8  and  C_25
REMARK    7  A    between atoms: C_10  and  C_12
REMARK    8  A    between atoms: C_12  and  C_13
REMARK    9  A    between atoms: C_12  and  C_19
REMARK   10  A    between atoms: N_27  and  C_28
REMARK   11  A    between atoms: C_28  and  C_29
REMARK   12  A    between atoms: C_28  and  C_31
REMARK   13  A    between atoms: C_29  and  O_30
REMARK                            x       y       z     vdW  Elec       q    Type
REMARK                         _______ _______ _______ _____ _____    ______ ____
ROOT
ATOM      1  CA  ARG A   1       6.500   6.808  18.128  0.00  0.00    +0.000 C 
ENDROOT
BRANCH   1   2
ATOM      2  N   ARG A   1       5.045   6.820  17.977  0.00  0.00    +0.000 N 
ATOM      3  C   UNK A   0       4.222   5.899  18.594  0.00  0.00    +0.000 C 
ATOM      4  O   UNK A   0       4.687   4.968  19.253  0.00  0.00    +0.000 OA
ATOM      5  H   ARG A   1       4.639   7.717  17.788  0.00  0.00    +0.000 HD
BRANCH   3   6
ATOM      6  C   UNK A   0       2.704   6.100  18.399  0.00  0.00    +0.000 C 
BRANCH   6   7
ATOM      7  C   UNK A   0       1.921   4.893  18.917  0.00  0.00    +0.000 A 
ATOM      8  C   UNK A   0       1.580   4.719  20.266  0.00  0.00    +0.000 A 
ATOM      9  C   UNK A   0       0.884   3.590  20.700  0.00  0.00    +0.000 A 
ATOM     10  C   UNK A   0       0.526   2.600  19.794  0.00  0.00    +0.000 A 
ATOM     11  C   UNK A   0       0.874   2.733  18.454  0.00  0.00    +0.000 A 
ATOM     12  C   UNK A   0       1.570   3.866  18.019  0.00  0.00    +0.000 A 
ENDBRANCH   6   7
BRANCH   6  13
ATOM     13  C   UNK A   0       2.164   7.495  18.785  0.00  0.00    +0.000 A 
ATOM     14  C   UNK A   0       1.829   7.756  20.127  0.00  0.00    +0.000 A 
ATOM     15  C   UNK A   0       1.342   9.009  20.524  0.00  0.00    +0.000 A 
ATOM     16  C   UNK A   0       1.164  10.025  19.589  0.00  0.00    +0.000 A 
ATOM     17  C   UNK A   0       1.481   9.792  18.260  0.00  0.00    +0.000 A 
ATOM     18  C   UNK A   0       1.985   8.551  17.871  0.00  0.00    +0.000 A 
ENDBRANCH   6  13
ENDBRANCH   3   6
ENDBRANCH   1   2
BRANCH   1  19
ATOM     19  C   ARG A   1       7.051   5.530  17.446  0.00  0.00    +0.000 C 
ATOM     20  O   ARG A   1       8.151   5.057  17.716  0.00  0.00    +0.000 OA
ATOM     21  N   UNK A   2       6.277   5.059  16.406  0.00  0.00    +0.000 N 
ATOM     22  H   UNK A   2       5.344   5.446  16.330  0.00  0.00    +0.000 HD
BRANCH  21  23
ATOM     23  C   UNK A   2       6.591   3.847  15.659  0.00  0.00    +0.000 C 
BRANCH  23  24
ATOM     24  C   UNK A   2       6.820   4.192  14.199  0.00  0.00    +0.000 A 
ATOM     25  C   UNK A   2       6.173   3.442  13.206  0.00  0.00    +0.000 A 
ATOM     26  C   UNK A   2       6.382   3.715  11.854  0.00  0.00    +0.000 A 
ATOM     27  C   UNK A   2       7.244   4.741  11.476  0.00  0.00    +0.000 A 
ATOM     28  C   UNK A   2       7.890   5.502  12.449  0.00  0.00    +0.000 A 
ATOM     29  C   UNK A   2       7.678   5.233  13.803  0.00  0.00    +0.000 A 
ENDBRANCH  23  24
BRANCH  23  30
ATOM     30  C   UNK A   2       5.508   2.753  15.825  0.00  0.00    +0.000 C 
BRANCH  30  31
ATOM     31  O   UNK A   2       4.790   2.845  17.055  0.00  0.00    +0.000 OA
ATOM     32  H   UNK A   2       4.234   3.649  17.033  0.00  0.00    +0.000 HD
ENDBRANCH  30  31
ENDBRANCH  23  30
ENDBRANCH  21  23
ENDBRANCH   1  19
BRANCH   1  33
ATOM     33  CB  ARG A   1       7.112   8.050  17.449  0.00  0.00    +0.000 C 
BRANCH  33  34
ATOM     34  CG  ARG A   1       8.412   8.549  18.110  0.00  0.00    +0.000 C 
BRANCH  34  35
ATOM     35  CD  ARG A   1       8.538  10.074  18.019  0.00  0.00    +0.000 C 
BRANCH  35  39
ATOM     36  NH1 ARG A   1      10.925  11.618  17.516  0.00  0.00    +0.000 NA
ATOM     37  CZ  ARG A   1      10.533  11.353  18.708  0.00  0.00    +0.000 C 
ATOM     38  NH2 ARG A   1      11.167  11.812  19.806  0.00  0.00    +0.000 N 
ATOM     39  NE  ARG A   1       9.466  10.585  19.016  0.00  0.00    +0.000 N 
ATOM     40  HH1 ARG A   1      11.754  12.213  17.556  0.00  0.00    +0.000 HD
ATOM     41 HH21 ARG A   1      12.110  12.144  19.648  0.00  0.00    +0.000 HD
ATOM     42 HH22 ARG A   1      11.136  11.179  20.595  0.00  0.00    +0.000 HD
ATOM     43  HE  ARG A   1       9.060  10.740  19.930  0.00  0.00    +0.000 HD
ENDBRANCH  35  39
ENDBRANCH  34  35
ENDBRANCH  33  34
ENDBRANCH   1  33
TORSDOF 13
ENDMDL
MODEL 9
REMARK VINA RESULT:      -8.2      5.108      9.360
REMARK  Name = 
REMARK  13 active torsions:
REMARK  status: ('A' for Active; 'I' for Inactive)
REMARK    1  A    between atoms: NE_4  and  CD_5
REMARK    2  A    between atoms: CD_5  and  CG_6
REMARK    3  A    between atoms: CG_6  and  CB_7
REMARK    4  A    between atoms: CB_7  and  CA_8
REMARK    5  A    between atoms: CA_8  and  N_9
REMARK    6  A    between atoms: CA_8  and  C_25
REMARK    7  A    between atoms: C_10  and  C_12
REMARK    8  A    between atoms: C_12  and  C_13
REMARK    9  A    between atoms: C_12  and  C_19
REMARK   10  A    between atoms: N_27  and  C_28
REMARK   11  A    between atoms: C_28  and  C_29
REMARK   12  A    between atoms: C_28  and  C_31
REMARK   13  A    between atoms: C_29  and  O_30
REMARK                            x       y       z     vdW  Elec       q    Type
REMARK                         _______ _______ _______ _____ _____    ______ ____
ROOT
ATOM      1  CA  ARG A   1       1.427   9.422  19.558  0.00  0.00    +0.000 C 
ENDROOT
BRANCH   1   2
ATOM      2  N   ARG A   1       1.910   8.296  18.758  0.00  0.00    +0.000 N 
ATOM      3  C   UNK A   0       2.434   7.150  19.322  0.00  0.00    +0.000 C 
ATOM      4  O   UNK A   0       2.586   7.049  20.539  0.00  0.00    +0.000 OA
ATOM      5  H   ARG A   1       1.477   8.188  17.861  0.00  0.00    +0.000 HD
BRANCH   3   6
ATOM      6  C   UNK A   0       2.823   6.023  18.341  0.00  0.00    +0.000 C 
BRANCH   6   7
ATOM      7  C   UNK A   0       4.325   6.041  18.054  0.00  0.00    +0.000 A 
ATOM      8  C   UNK A   0       4.873   6.516  16.853  0.00  0.00    +0.000 A 
ATOM      9  C   UNK A   0       6.249   6.493  16.623  0.00  0.00    +0.000 A 
ATOM     10  C   UNK A   0       7.109   5.980  17.585  0.00  0.00    +0.000 A 
ATOM     11  C   UNK A   0       6.591   5.478  18.775  0.00  0.00    +0.000 A 
ATOM     12  C   UNK A   0       5.212   5.503  19.006  0.00  0.00    +0.000 A 
ENDBRANCH   6   7
BRANCH   6  13
ATOM     13  C   UNK A   0       2.189   4.644  18.629  0.00  0.00    +0.000 A 
ATOM     14  C   UNK A   0       1.366   4.488  19.761  0.00  0.00    +0.000 A 
ATOM     15  C   UNK A   0       0.766   3.257  20.058  0.00  0.00    +0.000 A 
ATOM     16  C   UNK A   0       0.984   2.150  19.242  0.00  0.00    +0.000 A 
ATOM     17  C   UNK A   0       1.795   2.276  18.124  0.00  0.00    +0.000 A 
ATOM     18  C   UNK A   0       2.375   3.507  17.819  0.00  0.00    +0.000 A 
ENDBRANCH   6  13
ENDBRANCH   3   6
ENDBRANCH   1   2
BRANCH   1  19
ATOM     19  C   ARG A   1       1.544  10.712  18.708  0.00  0.00    +0.000 C 
ATOM     20  O   ARG A   1       2.179  10.759  17.659  0.00  0.00    +0.000 OA
ATOM     21  N   UNK A   2       1.010  11.837  19.302  0.00  0.00    +0.000 N 
ATOM     22  H   UNK A   2       0.417  11.681  20.108  0.00  0.00    +0.000 HD
BRANCH  21  23
ATOM     23  C   UNK A   2       0.976  13.143  18.656  0.00  0.00    +0.000 C 
BRANCH  23  24
ATOM     24  C   UNK A   2       1.794  14.133  19.464  0.00  0.00    +0.000 A 
ATOM     25  C   UNK A   2       1.762  15.493  19.120  0.00  0.00    +0.000 A 
ATOM     26  C   UNK A   2       2.523  16.426  19.825  0.00  0.00    +0.000 A 
ATOM     27  C   UNK A   2       3.329  16.012  20.883  0.00  0.00    +0.000 A 
ATOM     28  C   UNK A   2       3.367  14.667  21.243  0.00  0.00    +0.000 A 
ATOM     29  C   UNK A   2       2.602  13.731  20.542  0.00  0.00    +0.000 A 
ENDBRANCH  23  24
BRANCH  23  30
ATOM     30  C   UNK A   2      -0.468  13.650  18.422  0.00  0.00    +0.000 C 
BRANCH  30  31
ATOM     31  O   UNK A   2      -1.242  13.734  19.619  0.00  0.00    +0.000 OA
ATOM     32  H   UNK A   2      -2.168  13.933  19.378  0.00  0.00    +0.000 HD
ENDBRANCH  30  31
ENDBRANCH  23  30
ENDBRANCH  21  23
ENDBRANCH   1  19
BRANCH   1  33
ATOM     33  CB  ARG A   1      -0.051   9.200  19.944  0.00  0.00    +0.000 C 
BRANCH  33  34
ATOM     34  CG  ARG A   1      -0.247   8.594  21.347  0.00  0.00    +0.000 C 
BRANCH  34  35
ATOM     35  CD  ARG A   1       0.220   9.557  22.445  0.00  0.00    +0.000 C 
BRANCH  35  39
ATOM     36  NH1 ARG A   1      -0.283  12.388  22.183  0.00  0.00    +0.000 NA
ATOM     37  CZ  ARG A   1      -1.102  11.612  22.794  0.00  0.00    +0.000 C 
ATOM     38  NH2 ARG A   1      -2.272  12.041  23.310  0.00  0.00    +0.000 N 
ATOM     39  NE  ARG A   1      -0.901  10.294  23.009  0.00  0.00    +0.000 N 
ATOM     40  HH1 ARG A   1      -0.668  13.333  22.158  0.00  0.00    +0.000 HD
ATOM     41 HH21 ARG A   1      -2.344  13.044  23.429  0.00  0.00    +0.000 HD
ATOM     42 HH22 ARG A   1      -2.553  11.558  24.153  0.00  0.00    +0.000 HD
ATOM     43  HE  ARG A   1      -1.733   9.741  23.168  0.00  0.00    +0.000 HD
ENDBRANCH  35  39
ENDBRANCH  34  35
ENDBRANCH  33  34
ENDBRANCH   1  33
TORSDOF 13
ENDMDL
