MODEL 1
REMARK VINA RESULT:      -9.4      0.000      0.000
REMARK  Name = 
REMARK  6 active torsions:
REMARK  status: ('A' for Active; 'I' for Inactive)
REMARK    1  A    between atoms: C_1  and  C_2
REMARK    2  A    between atoms: C_7  and  N_8
REMARK    3  A    between atoms: N_11  and  N_12
REMARK    4  A    between atoms: C_15  and  C_16
REMARK    5  A    between atoms: C_16  and  C_17
REMARK    6  A    between atoms: C_28  and  C_29
REMARK                            x       y       z     vdW  Elec       q    Type
REMARK                         _______ _______ _______ _____ _____    ______ ____
ROOT
ATOM      1  N   UNL     1       9.022   8.861  18.967  0.00  0.00    +0.000 N 
ATOM      2  C   UNL     1       8.088   8.471  18.012  0.00  0.00    +0.000 C 
ATOM      3  O   UNL     1       7.552   9.238  17.217  0.00  0.00    +0.000 OA
ATOM      4  N   UNL     1       7.762   7.115  18.109  0.00  0.00    +0.000 N 
ATOM      5  H   UNL     1       9.631   8.150  19.344  0.00  0.00    +0.000 HD
ATOM      6  H   UNL     1       8.535   6.495  18.323  0.00  0.00    +0.000 HD
ENDROOT
BRANCH   1  13
ATOM      7  C   UNL     1      10.736  16.447  19.602  0.00  0.00    +0.000 C 
ATOM      8  C   UNL     1      10.496  15.024  19.197  0.00  0.00    +0.000 A 
ATOM      9  N   UNL     1      10.096  14.191  20.184  0.00  0.00    +0.000 NA
ATOM     10  C   UNL     1       9.870  12.911  19.851  0.00  0.00    +0.000 A 
ATOM     11  C   UNL     1       9.441  12.052  20.842  0.00  0.00    +0.000 A 
ATOM     12  C   UNL     1       9.170  10.717  20.566  0.00  0.00    +0.000 A 
ATOM     13  C   UNL     1       9.316  10.212  19.277  0.00  0.00    +0.000 A 
ATOM     14  C   UNL     1       9.796  11.072  18.278  0.00  0.00    +0.000 A 
ATOM     15  C   UNL     1      10.051  12.426  18.538  0.00  0.00    +0.000 A 
ATOM     16  N   UNL     1      10.453  13.262  17.556  0.00  0.00    +0.000 NA
ATOM     17  C   UNL     1      10.665  14.568  17.889  0.00  0.00    +0.000 A 
ATOM     18  C   UNL     1      11.067  15.500  16.787  0.00  0.00    +0.000 C 
ENDBRANCH   1  13
BRANCH   4  19
ATOM     19  N   UNL     1       6.719   6.577  17.269  0.00  0.00    +0.000 NA
ATOM     20  C   UNL     1       7.053   5.210  16.832  0.00  0.00    +0.000 C 
ATOM     21  C   UNL     1       5.936   4.574  16.003  0.00  0.00    +0.000 C 
ATOM     22  C   UNL     1       4.601   4.541  16.761  0.00  0.00    +0.000 C 
ATOM     23  C   UNL     1       4.273   5.982  17.167  0.00  0.00    +0.000 C 
ATOM     24  C   UNL     1       5.411   6.630  17.962  0.00  0.00    +0.000 C 
BRANCH  22  25
ATOM     25  C   UNL     1       4.600   3.623  18.004  0.00  0.00    +0.000 C 
BRANCH  25  26
ATOM     26  C   UNL     1       3.264   3.445  18.679  0.00  0.00    +0.000 A 
ATOM     27  C   UNL     1       3.000   4.088  19.897  0.00  0.00    +0.000 A 
ATOM     28  C   UNL     1       1.752   3.966  20.506  0.00  0.00    +0.000 A 
ATOM     29  C   UNL     1       0.754   3.204  19.904  0.00  0.00    +0.000 A 
ATOM     30  C   UNL     1       1.005   2.560  18.695  0.00  0.00    +0.000 A 
ATOM     31  C   UNL     1       2.254   2.679  18.084  0.00  0.00    +0.000 A 
ENDBRANCH  25  26
ENDBRANCH  22  25
ENDBRANCH   4  19
TORSDOF 4
ENDMDL
MODEL 2
REMARK VINA RESULT:      -9.1      1.052      1.948
REMARK  Name = 
REMARK  6 active torsions:
REMARK  status: ('A' for Active; 'I' for Inactive)
REMARK    1  A    between atoms: C_1  and  C_2
REMARK    2  A    between atoms: C_7  and  N_8
REMARK    3  A    between atoms: N_11  and  N_12
REMARK    4  A    between atoms: C_15  and  C_16
REMARK    5  A    between atoms: C_16  and  C_17
REMARK    6  A    between atoms: C_28  and  C_29
REMARK                            x       y       z     vdW  Elec       q    Type
REMARK                         _______ _______ _______ _____ _____    ______ ____
ROOT
ATOM      1  N   UNL     1       8.984   8.736  19.075  0.00  0.00    +0.000 N 
ATOM      2  C   UNL     1       8.159   8.220  18.081  0.00  0.00    +0.000 C 
ATOM      3  O   UNL     1       7.768   8.859  17.107  0.00  0.00    +0.000 OA
ATOM      4  N   UNL     1       7.751   6.912  18.353  0.00  0.00    +0.000 N 
ATOM      5  H   UNL     1       9.502   8.081  19.641  0.00  0.00    +0.000 HD
ATOM      6  H   UNL     1       8.457   6.313  18.766  0.00  0.00    +0.000 HD
ENDROOT
BRANCH   1  13
ATOM      7  C   UNL     1      10.547  16.185  20.795  0.00  0.00    +0.000 C 
ATOM      8  C   UNL     1      10.128  14.748  20.739  0.00  0.00    +0.000 A 
ATOM      9  N   UNL     1      10.340  14.119  19.561  0.00  0.00    +0.000 NA
ATOM     10  C   UNL     1       9.978  12.829  19.480  0.00  0.00    +0.000 A 
ATOM     11  C   UNL     1      10.207  12.166  18.292  0.00  0.00    +0.000 A 
ATOM     12  C   UNL     1       9.874  10.825  18.143  0.00  0.00    +0.000 A 
ATOM     13  C   UNL     1       9.308  10.110  19.196  0.00  0.00    +0.000 A 
ATOM     14  C   UNL     1       9.033  10.794  20.389  0.00  0.00    +0.000 A 
ATOM     15  C   UNL     1       9.384  12.140  20.560  0.00  0.00    +0.000 A 
ATOM     16  N   UNL     1       9.172  12.774  21.734  0.00  0.00    +0.000 NA
ATOM     17  C   UNL     1       9.557  14.080  21.822  0.00  0.00    +0.000 A 
ATOM     18  C   UNL     1       9.360  14.764  23.141  0.00  0.00    +0.000 C 
ENDBRANCH   1  13
BRANCH   4  19
ATOM     19  N   UNL     1       6.795   6.272  17.481  0.00  0.00    +0.000 NA
ATOM     20  C   UNL     1       7.181   4.875  17.216  0.00  0.00    +0.000 C 
ATOM     21  C   UNL     1       6.151   4.139  16.359  0.00  0.00    +0.000 C 
ATOM     22  C   UNL     1       4.752   4.156  16.992  0.00  0.00    +0.000 C 
ATOM     23  C   UNL     1       4.374   5.623  17.220  0.00  0.00    +0.000 C 
ATOM     24  C   UNL     1       5.429   6.369  18.045  0.00  0.00    +0.000 C 
BRANCH  22  25
ATOM     25  C   UNL     1       4.647   3.367  18.317  0.00  0.00    +0.000 C 
BRANCH  25  26
ATOM     26  C   UNL     1       3.263   3.270  18.906  0.00  0.00    +0.000 A 
ATOM     27  C   UNL     1       2.965   3.923  20.111  0.00  0.00    +0.000 A 
ATOM     28  C   UNL     1       1.676   3.878  20.642  0.00  0.00    +0.000 A 
ATOM     29  C   UNL     1       0.672   3.183  19.973  0.00  0.00    +0.000 A 
ATOM     30  C   UNL     1       0.956   2.530  18.776  0.00  0.00    +0.000 A 
ATOM     31  C   UNL     1       2.246   2.572  18.244  0.00  0.00    +0.000 A 
ENDBRANCH  25  26
ENDBRANCH  22  25
ENDBRANCH   4  19
TORSDOF 4
ENDMDL
MODEL 3
REMARK VINA RESULT:      -8.9      1.198      2.186
REMARK  Name = 
REMARK  6 active torsions:
REMARK  status: ('A' for Active; 'I' for Inactive)
REMARK    1  A    between atoms: C_1  and  C_2
REMARK    2  A    between atoms: C_7  and  N_8
REMARK    3  A    between atoms: N_11  and  N_12
REMARK    4  A    between atoms: C_15  and  C_16
REMARK    5  A    between atoms: C_16  and  C_17
REMARK    6  A    between atoms: C_28  and  C_29
REMARK                            x       y       z     vdW  Elec       q    Type
REMARK                         _______ _______ _______ _____ _____    ______ ____
ROOT
ATOM      1  N   UNL     1       8.989   8.862  19.236  0.00  0.00    +0.000 N 
ATOM      2  C   UNL     1       8.299   8.180  18.239  0.00  0.00    +0.000 C 
ATOM      3  O   UNL     1       8.033   8.653  17.137  0.00  0.00    +0.000 OA
ATOM      4  N   UNL     1       7.866   6.920  18.659  0.00  0.00    +0.000 N 
ATOM      5  H   UNL     1       9.434   8.314  19.957  0.00  0.00    +0.000 HD
ATOM      6  H   UNL     1       8.516   6.408  19.244  0.00  0.00    +0.000 HD
ENDROOT
BRANCH   1  13
ATOM      7  C   UNL     1      10.639  16.448  20.020  0.00  0.00    +0.000 C 
ATOM      8  C   UNL     1      10.260  15.006  20.161  0.00  0.00    +0.000 A 
ATOM      9  N   UNL     1      10.254  14.285  19.018  0.00  0.00    +0.000 NA
ATOM     10  C   UNL     1       9.922  12.988  19.113  0.00  0.00    +0.000 A 
ATOM     11  C   UNL     1       9.931  12.232  17.959  0.00  0.00    +0.000 A 
ATOM     12  C   UNL     1       9.615  10.879  17.985  0.00  0.00    +0.000 A 
ATOM     13  C   UNL     1       9.290  10.246  19.182  0.00  0.00    +0.000 A 
ATOM     14  C   UNL     1       9.236  11.022  20.349  0.00  0.00    +0.000 A 
ATOM     15  C   UNL     1       9.574  12.383  20.340  0.00  0.00    +0.000 A 
ATOM     16  N   UNL     1       9.580  13.108  21.479  0.00  0.00    +0.000 NA
ATOM     17  C   UNL     1       9.935  14.423  21.386  0.00  0.00    +0.000 A 
ATOM     18  C   UNL     1       9.983  15.211  22.660  0.00  0.00    +0.000 C 
ENDBRANCH   1  13
BRANCH   4  19
ATOM     19  N   UNL     1       7.031   6.132  17.784  0.00  0.00    +0.000 NA
ATOM     20  C   UNL     1       6.342   5.069  18.536  0.00  0.00    +0.000 C 
ATOM     21  C   UNL     1       5.386   4.260  17.658  0.00  0.00    +0.000 C 
ATOM     22  C   UNL     1       4.334   5.148  16.977  0.00  0.00    +0.000 C 
ATOM     23  C   UNL     1       5.089   6.217  16.180  0.00  0.00    +0.000 C 
ATOM     24  C   UNL     1       6.076   6.998  17.054  0.00  0.00    +0.000 C 
BRANCH  22  25
ATOM     25  C   UNL     1       3.340   5.815  17.954  0.00  0.00    +0.000 C 
BRANCH  25  26
ATOM     26  C   UNL     1       2.429   4.871  18.698  0.00  0.00    +0.000 A 
ATOM     27  C   UNL     1       1.754   3.854  18.006  0.00  0.00    +0.000 A 
ATOM     28  C   UNL     1       0.945   2.948  18.691  0.00  0.00    +0.000 A 
ATOM     29  C   UNL     1       0.803   3.047  20.072  0.00  0.00    +0.000 A 
ATOM     30  C   UNL     1       1.467   4.053  20.770  0.00  0.00    +0.000 A 
ATOM     31  C   UNL     1       2.276   4.962  20.086  0.00  0.00    +0.000 A 
ENDBRANCH  25  26
ENDBRANCH  22  25
ENDBRANCH   4  19
TORSDOF 4
ENDMDL
MODEL 4
REMARK VINA RESULT:      -8.7      0.977      1.417
REMARK  Name = 
REMARK  6 active torsions:
REMARK  status: ('A' for Active; 'I' for Inactive)
REMARK    1  A    between atoms: C_1  and  C_2
REMARK    2  A    between atoms: C_7  and  N_8
REMARK    3  A    between atoms: N_11  and  N_12
REMARK    4  A    between atoms: C_15  and  C_16
REMARK    5  A    between atoms: C_16  and  C_17
REMARK    6  A    between atoms: C_28  and  C_29
REMARK                            x       y       z     vdW  Elec       q    Type
REMARK                         _______ _______ _______ _____ _____    ______ ____
ROOT
ATOM      1  N   UNL     1       9.308   9.373  19.406  0.00  0.00    +0.000 N 
ATOM      2  C   UNL     1       8.523   8.744  18.445  0.00  0.00    +0.000 C 
ATOM      3  O   UNL     1       7.969   9.326  17.516  0.00  0.00    +0.000 OA
ATOM      4  N   UNL     1       8.363   7.379  18.700  0.00  0.00    +0.000 N 
ATOM      5  H   UNL     1       9.964   8.805  19.920  0.00  0.00    +0.000 HD
ATOM      6  H   UNL     1       9.185   6.902  19.053  0.00  0.00    +0.000 HD
ENDROOT
BRANCH   1  13
ATOM      7  C   UNL     1      10.084  17.133  19.157  0.00  0.00    +0.000 C 
ATOM      8  C   UNL     1      10.071  15.651  18.939  0.00  0.00    +0.000 A 
ATOM      9  N   UNL     1       9.586  14.911  19.960  0.00  0.00    +0.000 NA
ATOM     10  C   UNL     1       9.558  13.580  19.794  0.00  0.00    +0.000 A 
ATOM     11  C   UNL     1       9.046  12.810  20.818  0.00  0.00    +0.000 A 
ATOM     12  C   UNL     1       8.969  11.427  20.707  0.00  0.00    +0.000 A 
ATOM     13  C   UNL     1       9.399  10.780  19.551  0.00  0.00    +0.000 A 
ATOM     14  C   UNL     1       9.962  11.556  18.528  0.00  0.00    +0.000 A 
ATOM     15  C   UNL     1      10.025  12.953  18.618  0.00  0.00    +0.000 A 
ATOM     16  N   UNL     1      10.511  13.698  17.600  0.00  0.00    +0.000 NA
ATOM     17  C   UNL     1      10.523  15.053  17.762  0.00  0.00    +0.000 A 
ATOM     18  C   UNL     1      11.021  15.875  16.613  0.00  0.00    +0.000 C 
ENDBRANCH   1  13
BRANCH   4  19
ATOM     19  N   UNL     1       7.478   6.602  17.865  0.00  0.00    +0.000 NA
ATOM     20  C   UNL     1       6.907   5.472  18.617  0.00  0.00    +0.000 C 
ATOM     21  C   UNL     1       5.902   4.669  17.789  0.00  0.00    +0.000 C 
ATOM     22  C   UNL     1       4.756   5.545  17.263  0.00  0.00    +0.000 C 
ATOM     23  C   UNL     1       5.387   6.687  16.460  0.00  0.00    +0.000 C 
ATOM     24  C   UNL     1       6.424   7.464  17.280  0.00  0.00    +0.000 C 
BRANCH  22  25
ATOM     25  C   UNL     1       3.836   6.115  18.367  0.00  0.00    +0.000 C 
BRANCH  25  26
ATOM     26  C   UNL     1       2.798   5.162  18.902  0.00  0.00    +0.000 A 
ATOM     27  C   UNL     1       2.171   4.249  18.042  0.00  0.00    +0.000 A 
ATOM     28  C   UNL     1       1.243   3.333  18.535  0.00  0.00    +0.000 A 
ATOM     29  C   UNL     1       0.933   3.318  19.893  0.00  0.00    +0.000 A 
ATOM     30  C   UNL     1       1.548   4.221  20.757  0.00  0.00    +0.000 A 
ATOM     31  C   UNL     1       2.476   5.140  20.265  0.00  0.00    +0.000 A 
ENDBRANCH  25  26
ENDBRANCH  22  25
ENDBRANCH   4  19
TORSDOF 4
ENDMDL
MODEL 5
REMARK VINA RESULT:      -8.6      1.556     11.055
REMARK  Name = 
REMARK  6 active torsions:
REMARK  status: ('A' for Active; 'I' for Inactive)
REMARK    1  A    between atoms: C_1  and  C_2
REMARK    2  A    between atoms: C_7  and  N_8
REMARK    3  A    between atoms: N_11  and  N_12
REMARK    4  A    between atoms: C_15  and  C_16
REMARK    5  A    between atoms: C_16  and  C_17
REMARK    6  A    between atoms: C_28  and  C_29
REMARK                            x       y       z     vdW  Elec       q    Type
REMARK                         _______ _______ _______ _____ _____    ______ ____
ROOT
ATOM      1  N   UNL     1       6.783   8.064  17.078  0.00  0.00    +0.000 N 
ATOM      2  C   UNL     1       7.898   8.354  17.858  0.00  0.00    +0.000 C 
ATOM      3  O   UNL     1       8.457   7.543  18.592  0.00  0.00    +0.000 OA
ATOM      4  N   UNL     1       8.266   9.699  17.780  0.00  0.00    +0.000 N 
ATOM      5  H   UNL     1       6.593   8.665  16.291  0.00  0.00    +0.000 HD
ATOM      6  H   UNL     1       8.186  10.120  16.861  0.00  0.00    +0.000 HD
ENDROOT
BRANCH   1  13
ATOM      7  C   UNL     1       2.023   2.014  18.353  0.00  0.00    +0.000 C 
ATOM      8  C   UNL     1       2.795   3.298  18.341  0.00  0.00    +0.000 A 
ATOM      9  N   UNL     1       3.797   3.373  17.437  0.00  0.00    +0.000 NA
ATOM     10  C   UNL     1       4.505   4.512  17.400  0.00  0.00    +0.000 A 
ATOM     11  C   UNL     1       5.518   4.614  16.469  0.00  0.00    +0.000 A 
ATOM     12  C   UNL     1       6.281   5.771  16.361  0.00  0.00    +0.000 A 
ATOM     13  C   UNL     1       6.035   6.865  17.187  0.00  0.00    +0.000 A 
ATOM     14  C   UNL     1       5.036   6.747  18.164  0.00  0.00    +0.000 A 
ATOM     15  C   UNL     1       4.245   5.594  18.268  0.00  0.00    +0.000 A 
ATOM     16  N   UNL     1       3.243   5.514  19.171  0.00  0.00    +0.000 NA
ATOM     17  C   UNL     1       2.511   4.362  19.197  0.00  0.00    +0.000 A 
ATOM     18  C   UNL     1       1.373   4.296  20.169  0.00  0.00    +0.000 C 
ENDBRANCH   1  13
BRANCH   4  19
ATOM     19  N   UNL     1       9.331  10.191  18.622  0.00  0.00    +0.000 NA
ATOM     20  C   UNL     1      10.140  11.196  17.909  0.00  0.00    +0.000 C 
ATOM     21  C   UNL     1      11.231  11.800  18.795  0.00  0.00    +0.000 C 
ATOM     22  C   UNL     1      10.656  12.437  20.068  0.00  0.00    +0.000 C 
ATOM     23  C   UNL     1       9.852  11.355  20.796  0.00  0.00    +0.000 C 
ATOM     24  C   UNL     1       8.786  10.723  19.893  0.00  0.00    +0.000 C 
BRANCH  22  25
ATOM     25  C   UNL     1       9.769  13.677  19.810  0.00  0.00    +0.000 C 
BRANCH  25  26
ATOM     26  C   UNL     1      10.432  14.804  19.059  0.00  0.00    +0.000 A 
ATOM     27  C   UNL     1      11.691  15.273  19.462  0.00  0.00    +0.000 A 
ATOM     28  C   UNL     1      12.333  16.283  18.747  0.00  0.00    +0.000 A 
ATOM     29  C   UNL     1      11.724  16.834  17.622  0.00  0.00    +0.000 A 
ATOM     30  C   UNL     1      10.473  16.378  17.214  0.00  0.00    +0.000 A 
ATOM     31  C   UNL     1       9.829  15.368  17.929  0.00  0.00    +0.000 A 
ENDBRANCH  25  26
ENDBRANCH  22  25
ENDBRANCH   4  19
TORSDOF 4
ENDMDL
MODEL 6
REMARK VINA RESULT:      -8.4      1.247      1.510
REMARK  Name = 
REMARK  6 active torsions:
REMARK  status: ('A' for Active; 'I' for Inactive)
REMARK    1  A    between atoms: C_1  and  C_2
REMARK    2  A    between atoms: C_7  and  N_8
REMARK    3  A    between atoms: N_11  and  N_12
REMARK    4  A    between atoms: C_15  and  C_16
REMARK    5  A    between atoms: C_16  and  C_17
REMARK    6  A    between atoms: C_28  and  C_29
REMARK                            x       y       z     vdW  Elec       q    Type
REMARK                         _______ _______ _______ _____ _____    ______ ____
ROOT
ATOM      1  N   UNL     1       7.659   9.607  17.458  0.00  0.00    +0.000 N 
ATOM      2  C   UNL     1       7.584   8.246  17.738  0.00  0.00    +0.000 C 
ATOM      3  O   UNL     1       8.179   7.698  18.663  0.00  0.00    +0.000 OA
ATOM      4  N   UNL     1       6.820   7.550  16.798  0.00  0.00    +0.000 N 
ATOM      5  H   UNL     1       6.917  10.013  16.909  0.00  0.00    +0.000 HD
ATOM      6  H   UNL     1       5.990   8.031  16.469  0.00  0.00    +0.000 HD
ENDROOT
BRANCH   1  13
ATOM      7  C   UNL     1      12.333  15.225  20.193  0.00  0.00    +0.000 C 
ATOM      8  C   UNL     1      11.374  14.344  19.452  0.00  0.00    +0.000 A 
ATOM      9  N   UNL     1      11.235  13.089  19.936  0.00  0.00    +0.000 NA
ATOM     10  C   UNL     1      10.380  12.276  19.295  0.00  0.00    +0.000 A 
ATOM     11  C   UNL     1      10.210  10.999  19.788  0.00  0.00    +0.000 A 
ATOM     12  C   UNL     1       9.328  10.109  19.186  0.00  0.00    +0.000 A 
ATOM     13  C   UNL     1       8.583  10.489  18.073  0.00  0.00    +0.000 A 
ATOM     14  C   UNL     1       8.788  11.771  17.543  0.00  0.00    +0.000 A 
ATOM     15  C   UNL     1       9.658  12.685  18.153  0.00  0.00    +0.000 A 
ATOM     16  N   UNL     1       9.802  13.939  17.673  0.00  0.00    +0.000 NA
ATOM     17  C   UNL     1      10.657  14.772  18.334  0.00  0.00    +0.000 A 
ATOM     18  C   UNL     1      10.779  16.175  17.824  0.00  0.00    +0.000 C 
ENDBRANCH   1  13
BRANCH   4  19
ATOM     19  N   UNL     1       6.741   6.111  16.875  0.00  0.00    +0.000 NA
ATOM     20  C   UNL     1       6.012   5.692  18.085  0.00  0.00    +0.000 C 
ATOM     21  C   UNL     1       5.838   4.174  18.163  0.00  0.00    +0.000 C 
ATOM     22  C   UNL     1       5.120   3.609  16.930  0.00  0.00    +0.000 C 
ATOM     23  C   UNL     1       5.924   4.038  15.698  0.00  0.00    +0.000 C 
ATOM     24  C   UNL     1       6.132   5.555  15.644  0.00  0.00    +0.000 C 
BRANCH  22  25
ATOM     25  C   UNL     1       3.649   4.065  16.790  0.00  0.00    +0.000 C 
BRANCH  25  26
ATOM     26  C   UNL     1       2.742   3.692  17.935  0.00  0.00    +0.000 A 
ATOM     27  C   UNL     1       2.304   4.676  18.834  0.00  0.00    +0.000 A 
ATOM     28  C   UNL     1       1.429   4.350  19.869  0.00  0.00    +0.000 A 
ATOM     29  C   UNL     1       0.981   3.040  20.016  0.00  0.00    +0.000 A 
ATOM     30  C   UNL     1       1.411   2.054  19.131  0.00  0.00    +0.000 A 
ATOM     31  C   UNL     1       2.288   2.378  18.095  0.00  0.00    +0.000 A 
ENDBRANCH  25  26
ENDBRANCH  22  25
ENDBRANCH   4  19
TORSDOF 4
ENDMDL
MODEL 7
REMARK VINA RESULT:      -8.4      1.511      2.104
REMARK  Name = 
REMARK  6 active torsions:
REMARK  status: ('A' for Active; 'I' for Inactive)
REMARK    1  A    between atoms: C_1  and  C_2
REMARK    2  A    between atoms: C_7  and  N_8
REMARK    3  A    between atoms: N_11  and  N_12
REMARK    4  A    between atoms: C_15  and  C_16
REMARK    5  A    between atoms: C_16  and  C_17
REMARK    6  A    between atoms: C_28  and  C_29
REMARK                            x       y       z     vdW  Elec       q    Type
REMARK                         _______ _______ _______ _____ _____    ______ ____
ROOT
ATOM      1  N   UNL     1       9.197   9.543  19.084  0.00  0.00    +0.000 N 
ATOM      2  C   UNL     1       8.613   8.637  18.205  0.00  0.00    +0.000 C 
ATOM      3  O   UNL     1       8.480   8.831  17.000  0.00  0.00    +0.000 OA
ATOM      4  N   UNL     1       8.115   7.507  18.860  0.00  0.00    +0.000 N 
ATOM      5  H   UNL     1       9.548   9.187  19.960  0.00  0.00    +0.000 HD
ATOM      6  H   UNL     1       8.686   7.156  19.620  0.00  0.00    +0.000 HD
ENDROOT
BRANCH   1  13
ATOM      7  C   UNL     1      10.026  17.154  17.574  0.00  0.00    +0.000 C 
ATOM      8  C   UNL     1       9.580  15.764  17.912  0.00  0.00    +0.000 A 
ATOM      9  N   UNL     1      10.521  14.800  17.795  0.00  0.00    +0.000 NA
ATOM     10  C   UNL     1      10.153  13.545  18.094  0.00  0.00    +0.000 A 
ATOM     11  C   UNL     1      11.107  12.552  18.001  0.00  0.00    +0.000 A 
ATOM     12  C   UNL     1      10.802  11.233  18.312  0.00  0.00    +0.000 A 
ATOM     13  C   UNL     1       9.524  10.878  18.737  0.00  0.00    +0.000 A 
ATOM     14  C   UNL     1       8.541  11.878  18.789  0.00  0.00    +0.000 A 
ATOM     15  C   UNL     1       8.842  13.216  18.499  0.00  0.00    +0.000 A 
ATOM     16  N   UNL     1       7.904  14.182  18.612  0.00  0.00    +0.000 NA
ATOM     17  C   UNL     1       8.283  15.462  18.326  0.00  0.00    +0.000 A 
ATOM     18  C   UNL     1       7.251  16.535  18.496  0.00  0.00    +0.000 C 
ENDBRANCH   1  13
BRANCH   4  19
ATOM     19  N   UNL     1       7.372   6.524  18.108  0.00  0.00    +0.000 NA
ATOM     20  C   UNL     1       6.803   5.501  19.003  0.00  0.00    +0.000 C 
ATOM     21  C   UNL     1       5.942   4.484  18.253  0.00  0.00    +0.000 C 
ATOM     22  C   UNL     1       4.800   5.154  17.476  0.00  0.00    +0.000 C 
ATOM     23  C   UNL     1       5.432   6.185  16.535  0.00  0.00    +0.000 C 
ATOM     24  C   UNL     1       6.328   7.177  17.285  0.00  0.00    +0.000 C 
BRANCH  22  25
ATOM     25  C   UNL     1       3.737   5.832  18.372  0.00  0.00    +0.000 C 
BRANCH  25  26
ATOM     26  C   UNL     1       2.674   4.917  18.923  0.00  0.00    +0.000 A 
ATOM     27  C   UNL     1       2.030   3.999  18.080  0.00  0.00    +0.000 A 
ATOM     28  C   UNL     1       1.078   3.117  18.589  0.00  0.00    +0.000 A 
ATOM     29  C   UNL     1       0.760   3.142  19.945  0.00  0.00    +0.000 A 
ATOM     30  C   UNL     1       1.391   4.050  20.791  0.00  0.00    +0.000 A 
ATOM     31  C   UNL     1       2.344   4.935  20.284  0.00  0.00    +0.000 A 
ENDBRANCH  25  26
ENDBRANCH  22  25
ENDBRANCH   4  19
TORSDOF 4
ENDMDL
MODEL 8
REMARK VINA RESULT:      -8.4      1.243      1.996
REMARK  Name = 
REMARK  6 active torsions:
REMARK  status: ('A' for Active; 'I' for Inactive)
REMARK    1  A    between atoms: C_1  and  C_2
REMARK    2  A    between atoms: C_7  and  N_8
REMARK    3  A    between atoms: N_11  and  N_12
REMARK    4  A    between atoms: C_15  and  C_16
REMARK    5  A    between atoms: C_16  and  C_17
REMARK    6  A    between atoms: C_28  and  C_29
REMARK                            x       y       z     vdW  Elec       q    Type
REMARK                         _______ _______ _______ _____ _____    ______ ____
ROOT
ATOM      1  N   UNL     1       9.018   9.315  19.110  0.00  0.00    +0.000 N 
ATOM      2  C   UNL     1       8.443   8.390  18.245  0.00  0.00    +0.000 C 
ATOM      3  O   UNL     1       8.139   8.631  17.079  0.00  0.00    +0.000 OA
ATOM      4  N   UNL     1       8.169   7.172  18.873  0.00  0.00    +0.000 N 
ATOM      5  H   UNL     1       9.517   8.959  19.912  0.00  0.00    +0.000 HD
ATOM      6  H   UNL     1       8.869   6.857  19.535  0.00  0.00    +0.000 HD
ENDROOT
BRANCH   1  13
ATOM      7  C   UNL     1      10.551  16.906  18.151  0.00  0.00    +0.000 C 
ATOM      8  C   UNL     1      10.458  15.466  18.555  0.00  0.00    +0.000 A 
ATOM      9  N   UNL     1       9.528  14.731  17.905  0.00  0.00    +0.000 NA
ATOM     10  C   UNL     1       9.424  13.437  18.242  0.00  0.00    +0.000 A 
ATOM     11  C   UNL     1       8.494  12.668  17.573  0.00  0.00    +0.000 A 
ATOM     12  C   UNL     1       8.344  11.315  17.857  0.00  0.00    +0.000 A 
ATOM     13  C   UNL     1       9.137  10.697  18.821  0.00  0.00    +0.000 A 
ATOM     14  C   UNL     1      10.051  11.488  19.534  0.00  0.00    +0.000 A 
ATOM     15  C   UNL     1      10.228  12.847  19.241  0.00  0.00    +0.000 A 
ATOM     16  N   UNL     1      11.155  13.586  19.889  0.00  0.00    +0.000 NA
ATOM     17  C   UNL     1      11.274  14.898  19.534  0.00  0.00    +0.000 A 
ATOM     18  C   UNL     1      12.333  15.701  20.225  0.00  0.00    +0.000 C 
ENDBRANCH   1  13
BRANCH   4  19
ATOM     19  N   UNL     1       7.462   6.145  18.147  0.00  0.00    +0.000 NA
ATOM     20  C   UNL     1       6.634   5.336  19.059  0.00  0.00    +0.000 C 
ATOM     21  C   UNL     1       5.806   4.285  18.317  0.00  0.00    +0.000 C 
ATOM     22  C   UNL     1       4.900   4.912  17.248  0.00  0.00    +0.000 C 
ATOM     23  C   UNL     1       5.799   5.715  16.302  0.00  0.00    +0.000 C 
ATOM     24  C   UNL     1       6.658   6.739  17.054  0.00  0.00    +0.000 C 
BRANCH  22  25
ATOM     25  C   UNL     1       3.782   5.816  17.816  0.00  0.00    +0.000 C 
BRANCH  25  26
ATOM     26  C   UNL     1       2.737   5.113  18.645  0.00  0.00    +0.000 A 
ATOM     27  C   UNL     1       1.974   4.079  18.083  0.00  0.00    +0.000 A 
ATOM     28  C   UNL     1       1.037   3.392  18.854  0.00  0.00    +0.000 A 
ATOM     29  C   UNL     1       0.854   3.729  20.193  0.00  0.00    +0.000 A 
ATOM     30  C   UNL     1       1.605   4.755  20.761  0.00  0.00    +0.000 A 
ATOM     31  C   UNL     1       2.543   5.446  19.990  0.00  0.00    +0.000 A 
ENDBRANCH  25  26
ENDBRANCH  22  25
ENDBRANCH   4  19
TORSDOF 4
ENDMDL
MODEL 9
REMARK VINA RESULT:      -8.3      1.258      1.949
REMARK  Name = 
REMARK  6 active torsions:
REMARK  status: ('A' for Active; 'I' for Inactive)
REMARK    1  A    between atoms: C_1  and  C_2
REMARK    2  A    between atoms: C_7  and  N_8
REMARK    3  A    between atoms: N_11  and  N_12
REMARK    4  A    between atoms: C_15  and  C_16
REMARK    5  A    between atoms: C_16  and  C_17
REMARK    6  A    between atoms: C_28  and  C_29
REMARK                            x       y       z     vdW  Elec       q    Type
REMARK                         _______ _______ _______ _____ _____    ______ ____
ROOT
ATOM      1  N   UNL     1       9.163   9.398  19.161  0.00  0.00    +0.000 N 
ATOM      2  C   UNL     1       8.525   8.577  18.236  0.00  0.00    +0.000 C 
ATOM      3  O   UNL     1       8.288   8.898  17.075  0.00  0.00    +0.000 OA
ATOM      4  N   UNL     1       8.106   7.369  18.799  0.00  0.00    +0.000 N 
ATOM      5  H   UNL     1       9.594   8.958  19.960  0.00  0.00    +0.000 HD
ATOM      6  H   UNL     1       8.746   6.953  19.467  0.00  0.00    +0.000 HD
ENDROOT
BRANCH   1  13
ATOM      7  C   UNL     1      10.103  17.139  18.859  0.00  0.00    +0.000 C 
ATOM      8  C   UNL     1       9.721  15.715  19.129  0.00  0.00    +0.000 A 
ATOM      9  N   UNL     1      10.302  14.790  18.333  0.00  0.00    +0.000 NA
ATOM     10  C   UNL     1       9.982  13.505  18.552  0.00  0.00    +0.000 A 
ATOM     11  C   UNL     1      10.582  12.546  17.762  0.00  0.00    +0.000 A 
ATOM     12  C   UNL     1      10.312  11.195  17.945  0.00  0.00    +0.000 A 
ATOM     13  C   UNL     1       9.434  10.772  18.940  0.00  0.00    +0.000 A 
ATOM     14  C   UNL     1       8.789  11.748  19.713  0.00  0.00    +0.000 A 
ATOM     15  C   UNL     1       9.069  13.112  19.554  0.00  0.00    +0.000 A 
ATOM     16  N   UNL     1       8.490  14.041  20.346  0.00  0.00    +0.000 NA
ATOM     17  C   UNL     1       8.828  15.346  20.135  0.00  0.00    +0.000 A 
ATOM     18  C   UNL     1       8.217  16.367  21.045  0.00  0.00    +0.000 C 
ENDBRANCH   1  13
BRANCH   4  19
ATOM     19  N   UNL     1       7.321   6.453  18.005  0.00  0.00    +0.000 NA
ATOM     20  C   UNL     1       6.745   5.391  18.848  0.00  0.00    +0.000 C 
ATOM     21  C   UNL     1       5.841   4.445  18.056  0.00  0.00    +0.000 C 
ATOM     22  C   UNL     1       4.701   5.191  17.349  0.00  0.00    +0.000 C 
ATOM     23  C   UNL     1       5.341   6.262  16.459  0.00  0.00    +0.000 C 
ATOM     24  C   UNL     1       6.278   7.183  17.248  0.00  0.00    +0.000 C 
BRANCH  22  25
ATOM     25  C   UNL     1       3.676   5.838  18.308  0.00  0.00    +0.000 C 
BRANCH  25  26
ATOM     26  C   UNL     1       2.750   4.879  19.012  0.00  0.00    +0.000 A 
ATOM     27  C   UNL     1       2.720   4.831  20.413  0.00  0.00    +0.000 A 
ATOM     28  C   UNL     1       1.835   3.980  21.074  0.00  0.00    +0.000 A 
ATOM     29  C   UNL     1       0.969   3.172  20.343  0.00  0.00    +0.000 A 
ATOM     30  C   UNL     1       0.990   3.210  18.951  0.00  0.00    +0.000 A 
ATOM     31  C   UNL     1       1.877   4.059  18.287  0.00  0.00    +0.000 A 
ENDBRANCH  25  26
ENDBRANCH  22  25
ENDBRANCH   4  19
TORSDOF 4
ENDMDL
