MODEL 1
REMARK VINA RESULT:      -7.6      0.000      0.000
REMARK  Name = 
REMARK  5 active torsions:
REMARK  status: ('A' for Active; 'I' for Inactive)
REMARK    1  A    between atoms: C_2  and  C_3
REMARK    2  A    between atoms: C_3  and  N_4
REMARK    3  A    between atoms: C_12  and  C_13
REMARK    4  A    between atoms: C_14  and  C_15
REMARK    5  A    between atoms: C_15  and  O_16
REMARK                            x       y       z     vdW  Elec       q    Type
REMARK                         _______ _______ _______ _____ _____    ______ ____
ROOT
ATOM      1  N   UNL     1       5.346   6.067  17.143  0.00  0.00    +0.000 N 
ATOM      2  C   UNL     1       5.283   4.783  17.596  0.00  0.00    +0.000 A 
ATOM      3 CL   UNL     1       4.045   3.723  17.102  0.00  0.00    +0.000 Cl
ATOM      4  N   UNL     1       6.245   4.482  18.438  0.00  0.00    +0.000 NA
ATOM      5  C   UNL     1       6.988   5.641  18.521  0.00  0.00    +0.000 A 
ATOM      6  C   UNL     1       8.114   6.001  19.284  0.00  0.00    +0.000 A 
ATOM      7  N   UNL     1       8.685   5.149  20.216  0.00  0.00    +0.000 N 
ATOM      8  N   UNL     1       8.638   7.241  19.124  0.00  0.00    +0.000 NA
ATOM      9  C   UNL     1       8.030   8.078  18.256  0.00  0.00    +0.000 A 
ATOM     10  N   UNL     1       6.936   7.860  17.503  0.00  0.00    +0.000 NA
ATOM     11  C   UNL     1       6.469   6.619  17.690  0.00  0.00    +0.000 A 
ATOM     12  H   UNL     1       8.455   4.168  20.101  0.00  0.00    +0.000 HD
ATOM     13  H   UNL     1       9.626   5.400  20.486  0.00  0.00    +0.000 HD
ENDROOT
BRANCH   9  14
ATOM     14  C   UNL     1       8.547   9.404  18.155  0.00  0.00    +0.000 C 
ATOM     15  C   UNL     1       8.908  10.554  18.117  0.00  0.00    +0.000 C 
BRANCH  15  16
ATOM     16  C   UNL     1       9.342  11.968  18.116  0.00  0.00    +0.000 C 
ATOM     17  C   UNL     1       9.229  12.610  19.510  0.00  0.00    +0.000 C 
ATOM     18  C   UNL     1      10.274  12.091  20.497  0.00  0.00    +0.000 C 
ATOM     19  C   UNL     1      11.689  12.224  19.942  0.00  0.00    +0.000 C 
ATOM     20  C   UNL     1      11.825  11.586  18.563  0.00  0.00    +0.000 C 
ATOM     21  C   UNL     1      10.776  12.116  17.586  0.00  0.00    +0.000 C 
BRANCH  16  22
ATOM     22  O   UNL     1       8.479  12.691  17.235  0.00  0.00    +0.000 OA
ATOM     23  H   UNL     1       8.653  12.363  16.335  0.00  0.00    +0.000 HD
ENDBRANCH  16  22
ENDBRANCH  15  16
ENDBRANCH   9  14
BRANCH   1  24
ATOM     24  C   UNL     1       4.413   6.778  16.301  0.00  0.00    +0.000 C 
BRANCH  24  26
ATOM     25  C   UNL     1       2.494   8.137  17.864  0.00  0.00    +0.000 C 
ATOM     26  C   UNL     1       3.380   7.510  17.143  0.00  0.00    +0.000 C 
ENDBRANCH  24  26
ENDBRANCH   1  24
TORSDOF 5
ENDMDL
MODEL 2
REMARK VINA RESULT:      -7.5      5.797      8.480
REMARK  Name = 
REMARK  5 active torsions:
REMARK  status: ('A' for Active; 'I' for Inactive)
REMARK    1  A    between atoms: C_2  and  C_3
REMARK    2  A    between atoms: C_3  and  N_4
REMARK    3  A    between atoms: C_12  and  C_13
REMARK    4  A    between atoms: C_14  and  C_15
REMARK    5  A    between atoms: C_15  and  O_16
REMARK                            x       y       z     vdW  Elec       q    Type
REMARK                         _______ _______ _______ _____ _____    ______ ____
ROOT
ATOM      1  N   UNL     1       6.088   3.870  13.345  0.00  0.00    +0.000 N 
ATOM      2  C   UNL     1       7.125   4.677  12.980  0.00  0.00    +0.000 A 
ATOM      3 CL   UNL     1       7.813   4.597  11.426  0.00  0.00    +0.000 Cl
ATOM      4  N   UNL     1       7.522   5.479  13.942  0.00  0.00    +0.000 NA
ATOM      5  C   UNL     1       6.676   5.184  14.991  0.00  0.00    +0.000 A 
ATOM      6  C   UNL     1       6.601   5.647  16.317  0.00  0.00    +0.000 A 
ATOM      7  N   UNL     1       7.513   6.548  16.844  0.00  0.00    +0.000 N 
ATOM      8  N   UNL     1       5.620   5.166  17.119  0.00  0.00    +0.000 NA
ATOM      9  C   UNL     1       4.780   4.242  16.607  0.00  0.00    +0.000 A 
ATOM     10  N   UNL     1       4.774   3.701  15.374  0.00  0.00    +0.000 NA
ATOM     11  C   UNL     1       5.753   4.220  14.623  0.00  0.00    +0.000 A 
ATOM     12  H   UNL     1       8.033   7.085  16.158  0.00  0.00    +0.000 HD
ATOM     13  H   UNL     1       7.202   7.009  17.687  0.00  0.00    +0.000 HD
ENDROOT
BRANCH   9  14
ATOM     14  C   UNL     1       3.800   3.690  17.485  0.00  0.00    +0.000 C 
ATOM     15  C   UNL     1       2.905   3.270  18.177  0.00  0.00    +0.000 C 
BRANCH  15  16
ATOM     16  C   UNL     1       1.786   2.743  18.987  0.00  0.00    +0.000 C 
ATOM     17  C   UNL     1       2.271   1.818  20.116  0.00  0.00    +0.000 C 
ATOM     18  C   UNL     1       2.984   2.565  21.241  0.00  0.00    +0.000 C 
ATOM     19  C   UNL     1       2.130   3.703  21.792  0.00  0.00    +0.000 C 
ATOM     20  C   UNL     1       1.644   4.640  20.689  0.00  0.00    +0.000 C 
ATOM     21  C   UNL     1       0.931   3.878  19.572  0.00  0.00    +0.000 C 
BRANCH  16  22
ATOM     22  O   UNL     1       0.946   1.972  18.124  0.00  0.00    +0.000 OA
ATOM     23  H   UNL     1       1.178   2.215  17.210  0.00  0.00    +0.000 HD
ENDBRANCH  16  22
ENDBRANCH  15  16
ENDBRANCH   9  14
BRANCH   1  24
ATOM     24  C   UNL     1       5.465   2.803  12.600  0.00  0.00    +0.000 C 
BRANCH  24  26
ATOM     25  C   UNL     1       3.640   3.840  10.711  0.00  0.00    +0.000 C 
ATOM     26  C   UNL     1       4.482   3.362  11.583  0.00  0.00    +0.000 C 
ENDBRANCH  24  26
ENDBRANCH   1  24
TORSDOF 5
ENDMDL
MODEL 3
REMARK VINA RESULT:      -7.3      5.856      8.595
REMARK  Name = 
REMARK  5 active torsions:
REMARK  status: ('A' for Active; 'I' for Inactive)
REMARK    1  A    between atoms: C_2  and  C_3
REMARK    2  A    between atoms: C_3  and  N_4
REMARK    3  A    between atoms: C_12  and  C_13
REMARK    4  A    between atoms: C_14  and  C_15
REMARK    5  A    between atoms: C_15  and  O_16
REMARK                            x       y       z     vdW  Elec       q    Type
REMARK                         _______ _______ _______ _____ _____    ______ ____
ROOT
ATOM      1  N   UNL     1       6.263   3.851  13.172  0.00  0.00    +0.000 N 
ATOM      2  C   UNL     1       7.218   4.729  12.753  0.00  0.00    +0.000 A 
ATOM      3 CL   UNL     1       7.807   4.710  11.156  0.00  0.00    +0.000 Cl
ATOM      4  N   UNL     1       7.624   5.545  13.699  0.00  0.00    +0.000 NA
ATOM      5  C   UNL     1       6.870   5.183  14.796  0.00  0.00    +0.000 A 
ATOM      6  C   UNL     1       6.851   5.626  16.131  0.00  0.00    +0.000 A 
ATOM      7  N   UNL     1       7.735   6.580  16.611  0.00  0.00    +0.000 N 
ATOM      8  N   UNL     1       5.959   5.073  16.987  0.00  0.00    +0.000 NA
ATOM      9  C   UNL     1       5.149   4.100  16.516  0.00  0.00    +0.000 A 
ATOM     10  N   UNL     1       5.098   3.573  15.279  0.00  0.00    +0.000 NA
ATOM     11  C   UNL     1       5.990   4.164  14.474  0.00  0.00    +0.000 A 
ATOM     12  H   UNL     1       8.173   7.158  15.901  0.00  0.00    +0.000 HD
ATOM     13  H   UNL     1       7.450   7.011  17.479  0.00  0.00    +0.000 HD
ENDROOT
BRANCH   9  14
ATOM     14  C   UNL     1       4.267   3.475  17.448  0.00  0.00    +0.000 C 
ATOM     15  C   UNL     1       3.560   2.864  18.210  0.00  0.00    +0.000 C 
BRANCH  15  16
ATOM     16  C   UNL     1       2.732   2.092  19.161  0.00  0.00    +0.000 C 
ATOM     17  C   UNL     1       3.014   2.479  20.623  0.00  0.00    +0.000 C 
ATOM     18  C   UNL     1       2.485   3.864  20.992  0.00  0.00    +0.000 C 
ATOM     19  C   UNL     1       1.003   4.008  20.661  0.00  0.00    +0.000 C 
ATOM     20  C   UNL     1       0.701   3.637  19.212  0.00  0.00    +0.000 C 
ATOM     21  C   UNL     1       1.234   2.248  18.859  0.00  0.00    +0.000 C 
BRANCH  16  22
ATOM     22  O   UNL     1       3.061   0.709  19.007  0.00  0.00    +0.000 OA
ATOM     23  H   UNL     1       3.968   0.670  18.656  0.00  0.00    +0.000 HD
ENDBRANCH  16  22
ENDBRANCH  15  16
ENDBRANCH   9  14
BRANCH   1  24
ATOM     24  C   UNL     1       5.663   2.752  12.453  0.00  0.00    +0.000 C 
BRANCH  24  26
ATOM     25  C   UNL     1       3.595   3.676  10.767  0.00  0.00    +0.000 C 
ATOM     26  C   UNL     1       4.550   3.250  11.545  0.00  0.00    +0.000 C 
ENDBRANCH  24  26
ENDBRANCH   1  24
TORSDOF 5
ENDMDL
MODEL 4
REMARK VINA RESULT:      -7.3      5.336      6.931
REMARK  Name = 
REMARK  5 active torsions:
REMARK  status: ('A' for Active; 'I' for Inactive)
REMARK    1  A    between atoms: C_2  and  C_3
REMARK    2  A    between atoms: C_3  and  N_4
REMARK    3  A    between atoms: C_12  and  C_13
REMARK    4  A    between atoms: C_14  and  C_15
REMARK    5  A    between atoms: C_15  and  O_16
REMARK                            x       y       z     vdW  Elec       q    Type
REMARK                         _______ _______ _______ _____ _____    ______ ____
ROOT
ATOM      1  N   UNL     1       2.531   3.791  18.301  0.00  0.00    +0.000 N 
ATOM      2  C   UNL     1       3.671   3.094  18.029  0.00  0.00    +0.000 A 
ATOM      3 CL   UNL     1       3.731   1.398  18.159  0.00  0.00    +0.000 Cl
ATOM      4  N   UNL     1       4.679   3.862  17.684  0.00  0.00    +0.000 NA
ATOM      5  C   UNL     1       4.153   5.137  17.720  0.00  0.00    +0.000 A 
ATOM      6  C   UNL     1       4.715   6.409  17.507  0.00  0.00    +0.000 A 
ATOM      7  N   UNL     1       6.064   6.592  17.246  0.00  0.00    +0.000 N 
ATOM      8  N   UNL     1       3.913   7.497  17.598  0.00  0.00    +0.000 NA
ATOM      9  C   UNL     1       2.615   7.302  17.916  0.00  0.00    +0.000 A 
ATOM     10  N   UNL     1       1.976   6.146  18.172  0.00  0.00    +0.000 NA
ATOM     11  C   UNL     1       2.811   5.106  18.057  0.00  0.00    +0.000 A 
ATOM     12  H   UNL     1       6.553   5.770  16.910  0.00  0.00    +0.000 HD
ATOM     13  H   UNL     1       6.290   7.491  16.843  0.00  0.00    +0.000 HD
ENDROOT
BRANCH   9  14
ATOM     14  C   UNL     1       1.801   8.463  18.081  0.00  0.00    +0.000 C 
ATOM     15  C   UNL     1       1.039   9.385  18.236  0.00  0.00    +0.000 C 
BRANCH  15  16
ATOM     16  C   UNL     1       0.090  10.495  18.467  0.00  0.00    +0.000 C 
ATOM     17  C   UNL     1      -0.763  10.277  19.729  0.00  0.00    +0.000 C 
ATOM     18  C   UNL     1       0.030  10.433  21.025  0.00  0.00    +0.000 C 
ATOM     19  C   UNL     1       0.762  11.770  21.080  0.00  0.00    +0.000 C 
ATOM     20  C   UNL     1       1.622  12.004  19.841  0.00  0.00    +0.000 C 
ATOM     21  C   UNL     1       0.814  11.846  18.552  0.00  0.00    +0.000 C 
BRANCH  16  22
ATOM     22  O   UNL     1      -0.798  10.552  17.347  0.00  0.00    +0.000 OA
ATOM     23  H   UNL     1      -1.276  11.398  17.406  0.00  0.00    +0.000 HD
ENDBRANCH  16  22
ENDBRANCH  15  16
ENDBRANCH   9  14
BRANCH   1  24
ATOM     24  C   UNL     1       1.270   3.304  18.806  0.00  0.00    +0.000 C 
BRANCH  24  26
ATOM     25  C   UNL     1       1.444   2.769  21.573  0.00  0.00    +0.000 C 
ATOM     26  C   UNL     1       1.363   3.016  20.296  0.00  0.00    +0.000 C 
ENDBRANCH  24  26
ENDBRANCH   1  24
TORSDOF 5
ENDMDL
MODEL 5
REMARK VINA RESULT:      -7.2      5.227      6.881
REMARK  Name = 
REMARK  5 active torsions:
REMARK  status: ('A' for Active; 'I' for Inactive)
REMARK    1  A    between atoms: C_2  and  C_3
REMARK    2  A    between atoms: C_3  and  N_4
REMARK    3  A    between atoms: C_12  and  C_13
REMARK    4  A    between atoms: C_14  and  C_15
REMARK    5  A    between atoms: C_15  and  O_16
REMARK                            x       y       z     vdW  Elec       q    Type
REMARK                         _______ _______ _______ _____ _____    ______ ____
ROOT
ATOM      1  N   UNL     1       2.513   3.918  18.370  0.00  0.00    +0.000 N 
ATOM      2  C   UNL     1       3.525   3.093  17.979  0.00  0.00    +0.000 A 
ATOM      3 CL   UNL     1       3.428   1.406  18.178  0.00  0.00    +0.000 Cl
ATOM      4  N   UNL     1       4.550   3.737  17.468  0.00  0.00    +0.000 NA
ATOM      5  C   UNL     1       4.168   5.062  17.515  0.00  0.00    +0.000 A 
ATOM      6  C   UNL     1       4.824   6.258  17.171  0.00  0.00    +0.000 A 
ATOM      7  N   UNL     1       6.134   6.286  16.723  0.00  0.00    +0.000 N 
ATOM      8  N   UNL     1       4.158   7.429  17.319  0.00  0.00    +0.000 NA
ATOM      9  C   UNL     1       2.904   7.386  17.818  0.00  0.00    +0.000 A 
ATOM     10  N   UNL     1       2.190   6.314  18.210  0.00  0.00    +0.000 NA
ATOM     11  C   UNL     1       2.890   5.187  18.031  0.00  0.00    +0.000 A 
ATOM     12  H   UNL     1       6.485   5.405  16.362  0.00  0.00    +0.000 HD
ATOM     13  H   UNL     1       6.394   7.142  16.253  0.00  0.00    +0.000 HD
ENDROOT
BRANCH   9  14
ATOM     14  C   UNL     1       2.244   8.632  18.038  0.00  0.00    +0.000 C 
ATOM     15  C   UNL     1       1.748   9.701  18.296  0.00  0.00    +0.000 C 
BRANCH  15  16
ATOM     16  C   UNL     1       1.182  11.030  18.612  0.00  0.00    +0.000 C 
ATOM     17  C   UNL     1      -0.335  11.088  18.364  0.00  0.00    +0.000 C 
ATOM     18  C   UNL     1      -1.143  10.291  19.386  0.00  0.00    +0.000 C 
ATOM     19  C   UNL     1      -0.802  10.699  20.816  0.00  0.00    +0.000 C 
ATOM     20  C   UNL     1       0.698  10.640  21.087  0.00  0.00    +0.000 C 
ATOM     21  C   UNL     1       1.492  11.445  20.058  0.00  0.00    +0.000 C 
BRANCH  16  22
ATOM     22  O   UNL     1       1.800  11.986  17.747  0.00  0.00    +0.000 OA
ATOM     23  H   UNL     1       2.615  12.285  18.189  0.00  0.00    +0.000 HD
ENDBRANCH  16  22
ENDBRANCH  15  16
ENDBRANCH   9  14
BRANCH   1  24
ATOM     24  C   UNL     1       1.290   3.586  19.062  0.00  0.00    +0.000 C 
BRANCH  24  26
ATOM     25  C   UNL     1       1.824   2.868  21.740  0.00  0.00    +0.000 C 
ATOM     26  C   UNL     1       1.577   3.199  20.505  0.00  0.00    +0.000 C 
ENDBRANCH  24  26
ENDBRANCH   1  24
TORSDOF 5
ENDMDL
MODEL 6
REMARK VINA RESULT:      -7.1      1.293      1.829
REMARK  Name = 
REMARK  5 active torsions:
REMARK  status: ('A' for Active; 'I' for Inactive)
REMARK    1  A    between atoms: C_2  and  C_3
REMARK    2  A    between atoms: C_3  and  N_4
REMARK    3  A    between atoms: C_12  and  C_13
REMARK    4  A    between atoms: C_14  and  C_15
REMARK    5  A    between atoms: C_15  and  O_16
REMARK                            x       y       z     vdW  Elec       q    Type
REMARK                         _______ _______ _______ _____ _____    ______ ____
ROOT
ATOM      1  N   UNL     1       6.094   5.477  16.522  0.00  0.00    +0.000 N 
ATOM      2  C   UNL     1       6.009   4.242  17.093  0.00  0.00    +0.000 A 
ATOM      3 CL   UNL     1       5.100   2.991  16.382  0.00  0.00    +0.000 Cl
ATOM      4  N   UNL     1       6.675   4.146  18.221  0.00  0.00    +0.000 NA
ATOM      5  C   UNL     1       7.240   5.394  18.381  0.00  0.00    +0.000 A 
ATOM      6  C   UNL     1       8.024   5.963  19.401  0.00  0.00    +0.000 A 
ATOM      7  N   UNL     1       8.342   5.282  20.565  0.00  0.00    +0.000 N 
ATOM      8  N   UNL     1       8.453   7.241  19.254  0.00  0.00    +0.000 NA
ATOM      9  C   UNL     1       8.080   7.910  18.142  0.00  0.00    +0.000 A 
ATOM     10  N   UNL     1       7.310   7.485  17.122  0.00  0.00    +0.000 NA
ATOM     11  C   UNL     1       6.926   6.216  17.314  0.00  0.00    +0.000 A 
ATOM     12  H   UNL     1       8.254   4.273  20.511  0.00  0.00    +0.000 HD
ATOM     13  H   UNL     1       9.119   5.675  21.077  0.00  0.00    +0.000 HD
ENDROOT
BRANCH   9  14
ATOM     14  C   UNL     1       8.476   9.276  18.036  0.00  0.00    +0.000 C 
ATOM     15  C   UNL     1       8.830  10.430  18.041  0.00  0.00    +0.000 C 
BRANCH  15  16
ATOM     16  C   UNL     1       9.301  11.831  18.070  0.00  0.00    +0.000 C 
ATOM     17  C   UNL     1       9.171  12.458  19.469  0.00  0.00    +0.000 C 
ATOM     18  C   UNL     1      10.176  11.899  20.475  0.00  0.00    +0.000 C 
ATOM     19  C   UNL     1      11.607  12.000  19.958  0.00  0.00    +0.000 C 
ATOM     20  C   UNL     1      11.762  11.376  18.573  0.00  0.00    +0.000 C 
ATOM     21  C   UNL     1      10.752  11.947  17.578  0.00  0.00    +0.000 C 
BRANCH  16  22
ATOM     22  O   UNL     1       8.481  12.588  17.177  0.00  0.00    +0.000 OA
ATOM     23  H   UNL     1       7.564  12.289  17.310  0.00  0.00    +0.000 HD
ENDBRANCH  16  22
ENDBRANCH  15  16
ENDBRANCH   9  14
BRANCH   1  24
ATOM     24  C   UNL     1       5.419   5.981  15.350  0.00  0.00    +0.000 C 
BRANCH  24  26
ATOM     25  C   UNL     1       5.735   4.207  13.176  0.00  0.00    +0.000 C 
ATOM     26  C   UNL     1       5.590   5.026  14.179  0.00  0.00    +0.000 C 
ENDBRANCH  24  26
ENDBRANCH   1  24
TORSDOF 5
ENDMDL
MODEL 7
REMARK VINA RESULT:      -7.1      5.418      8.312
REMARK  Name = 
REMARK  5 active torsions:
REMARK  status: ('A' for Active; 'I' for Inactive)
REMARK    1  A    between atoms: C_2  and  C_3
REMARK    2  A    between atoms: C_3  and  N_4
REMARK    3  A    between atoms: C_12  and  C_13
REMARK    4  A    between atoms: C_14  and  C_15
REMARK    5  A    between atoms: C_15  and  O_16
REMARK                            x       y       z     vdW  Elec       q    Type
REMARK                         _______ _______ _______ _____ _____    ______ ____
ROOT
ATOM      1  N   UNL     1       6.300   3.960  13.793  0.00  0.00    +0.000 N 
ATOM      2  C   UNL     1       7.187   4.848  13.261  0.00  0.00    +0.000 A 
ATOM      3 CL   UNL     1       7.678   4.751  11.634  0.00  0.00    +0.000 Cl
ATOM      4  N   UNL     1       7.611   5.740  14.127  0.00  0.00    +0.000 NA
ATOM      5  C   UNL     1       6.942   5.418  15.290  0.00  0.00    +0.000 A 
ATOM      6  C   UNL     1       6.984   5.946  16.593  0.00  0.00    +0.000 A 
ATOM      7  N   UNL     1       7.850   6.965  16.957  0.00  0.00    +0.000 N 
ATOM      8  N   UNL     1       6.171   5.411  17.537  0.00  0.00    +0.000 NA
ATOM      9  C   UNL     1       5.380   4.377  17.179  0.00  0.00    +0.000 A 
ATOM     10  N   UNL     1       5.279   3.770  15.982  0.00  0.00    +0.000 NA
ATOM     11  C   UNL     1       6.092   4.344  15.087  0.00  0.00    +0.000 A 
ATOM     12  H   UNL     1       8.217   7.513  16.186  0.00  0.00    +0.000 HD
ATOM     13  H   UNL     1       7.598   7.438  17.813  0.00  0.00    +0.000 HD
ENDROOT
BRANCH   9  14
ATOM     14  C   UNL     1       4.585   3.777  18.201  0.00  0.00    +0.000 C 
ATOM     15  C   UNL     1       3.969   3.314  19.129  0.00  0.00    +0.000 C 
BRANCH  15  16
ATOM     16  C   UNL     1       3.210   2.790  20.285  0.00  0.00    +0.000 C 
ATOM     17  C   UNL     1       2.635   3.917  21.161  0.00  0.00    +0.000 C 
ATOM     18  C   UNL     1       1.479   4.664  20.498  0.00  0.00    +0.000 C 
ATOM     19  C   UNL     1       0.381   3.710  20.039  0.00  0.00    +0.000 C 
ATOM     20  C   UNL     1       0.928   2.588  19.160  0.00  0.00    +0.000 C 
ATOM     21  C   UNL     1       2.082   1.849  19.838  0.00  0.00    +0.000 C 
BRANCH  16  22
ATOM     22  O   UNL     1       4.112   2.029  21.093  0.00  0.00    +0.000 OA
ATOM     23  H   UNL     1       3.725   1.984  21.985  0.00  0.00    +0.000 HD
ENDBRANCH  16  22
ENDBRANCH  15  16
ENDBRANCH   9  14
BRANCH   1  24
ATOM     24  C   UNL     1       5.710   2.793  13.183  0.00  0.00    +0.000 C 
BRANCH  24  26
ATOM     25  C   UNL     1       3.940   3.539  11.112  0.00  0.00    +0.000 C 
ATOM     26  C   UNL     1       4.757   3.195  12.067  0.00  0.00    +0.000 C 
ENDBRANCH  24  26
ENDBRANCH   1  24
TORSDOF 5
ENDMDL
MODEL 8
REMARK VINA RESULT:      -6.9      4.195      7.131
REMARK  Name = 
REMARK  5 active torsions:
REMARK  status: ('A' for Active; 'I' for Inactive)
REMARK    1  A    between atoms: C_2  and  C_3
REMARK    2  A    between atoms: C_3  and  N_4
REMARK    3  A    between atoms: C_12  and  C_13
REMARK    4  A    between atoms: C_14  and  C_15
REMARK    5  A    between atoms: C_15  and  O_16
REMARK                            x       y       z     vdW  Elec       q    Type
REMARK                         _______ _______ _______ _____ _____    ______ ____
ROOT
ATOM      1  N   UNL     1       4.677   5.506  17.082  0.00  0.00    +0.000 N 
ATOM      2  C   UNL     1       4.847   4.169  16.875  0.00  0.00    +0.000 A 
ATOM      3 CL   UNL     1       5.944   3.579  15.715  0.00  0.00    +0.000 Cl
ATOM      4  N   UNL     1       4.078   3.424  17.637  0.00  0.00    +0.000 NA
ATOM      5  C   UNL     1       3.379   4.338  18.398  0.00  0.00    +0.000 A 
ATOM      6  C   UNL     1       2.366   4.200  19.364  0.00  0.00    +0.000 A 
ATOM      7  N   UNL     1       1.820   2.972  19.701  0.00  0.00    +0.000 N 
ATOM      8  N   UNL     1       1.883   5.316  19.963  0.00  0.00    +0.000 NA
ATOM      9  C   UNL     1       2.383   6.509  19.576  0.00  0.00    +0.000 A 
ATOM     10  N   UNL     1       3.322   6.767  18.645  0.00  0.00    +0.000 NA
ATOM     11  C   UNL     1       3.771   5.631  18.097  0.00  0.00    +0.000 A 
ATOM     12  H   UNL     1       2.387   2.167  19.456  0.00  0.00    +0.000 HD
ATOM     13  H   UNL     1       1.321   2.966  20.579  0.00  0.00    +0.000 HD
ENDROOT
BRANCH   9  14
ATOM     14  C   UNL     1       1.812   7.679  20.160  0.00  0.00    +0.000 C 
ATOM     15  C   UNL     1       1.352   8.714  20.574  0.00  0.00    +0.000 C 
BRANCH  15  16
ATOM     16  C   UNL     1       0.764   9.988  21.041  0.00  0.00    +0.000 C 
ATOM     17  C   UNL     1       1.480  11.211  20.443  0.00  0.00    +0.000 C 
ATOM     18  C   UNL     1       1.197  11.406  18.955  0.00  0.00    +0.000 C 
ATOM     19  C   UNL     1      -0.301  11.451  18.667  0.00  0.00    +0.000 C 
ATOM     20  C   UNL     1      -1.031  10.241  19.244  0.00  0.00    +0.000 C 
ATOM     21  C   UNL     1      -0.740  10.061  20.734  0.00  0.00    +0.000 C 
BRANCH  16  22
ATOM     22  O   UNL     1       0.917  10.046  22.462  0.00  0.00    +0.000 OA
ATOM     23  H   UNL     1       1.288  10.921  22.672  0.00  0.00    +0.000 HD
ENDBRANCH  16  22
ENDBRANCH  15  16
ENDBRANCH   9  14
BRANCH   1  24
ATOM     24  C   UNL     1       5.262   6.615  16.368  0.00  0.00    +0.000 C 
BRANCH  24  26
ATOM     25  C   UNL     1       7.626   7.486  17.644  0.00  0.00    +0.000 C 
ATOM     26  C   UNL     1       6.536   7.084  17.055  0.00  0.00    +0.000 C 
ENDBRANCH  24  26
ENDBRANCH   1  24
TORSDOF 5
ENDMDL
MODEL 9
REMARK VINA RESULT:      -6.8      5.426      7.939
REMARK  Name = 
REMARK  5 active torsions:
REMARK  status: ('A' for Active; 'I' for Inactive)
REMARK    1  A    between atoms: C_2  and  C_3
REMARK    2  A    between atoms: C_3  and  N_4
REMARK    3  A    between atoms: C_12  and  C_13
REMARK    4  A    between atoms: C_14  and  C_15
REMARK    5  A    between atoms: C_15  and  O_16
REMARK                            x       y       z     vdW  Elec       q    Type
REMARK                         _______ _______ _______ _____ _____    ______ ____
ROOT
ATOM      1  N   UNL     1       3.396   4.529  18.354  0.00  0.00    +0.000 N 
ATOM      2  C   UNL     1       3.719   4.771  19.656  0.00  0.00    +0.000 A 
ATOM      3 CL   UNL     1       2.524   4.915  20.859  0.00  0.00    +0.000 Cl
ATOM      4  N   UNL     1       5.012   4.892  19.855  0.00  0.00    +0.000 NA
ATOM      5  C   UNL     1       5.561   4.698  18.605  0.00  0.00    +0.000 A 
ATOM      6  C   UNL     1       6.882   4.748  18.123  0.00  0.00    +0.000 A 
ATOM      7  N   UNL     1       7.956   5.089  18.930  0.00  0.00    +0.000 N 
ATOM      8  N   UNL     1       7.106   4.486  16.812  0.00  0.00    +0.000 NA
ATOM      9  C   UNL     1       6.039   4.218  16.029  0.00  0.00    +0.000 A 
ATOM     10  N   UNL     1       4.736   4.176  16.366  0.00  0.00    +0.000 NA
ATOM     11  C   UNL     1       4.575   4.429  17.671  0.00  0.00    +0.000 A 
ATOM     12  H   UNL     1       7.793   4.995  19.926  0.00  0.00    +0.000 HD
ATOM     13  H   UNL     1       8.856   4.822  18.557  0.00  0.00    +0.000 HD
ENDROOT
BRANCH   9  14
ATOM     14  C   UNL     1       6.283   4.018  14.637  0.00  0.00    +0.000 C 
ATOM     15  C   UNL     1       6.423   3.917  13.444  0.00  0.00    +0.000 C 
BRANCH  15  16
ATOM     16  C   UNL     1       6.600   3.839  11.978  0.00  0.00    +0.000 C 
ATOM     17  C   UNL     1       7.145   2.472  11.531  0.00  0.00    +0.000 C 
ATOM     18  C   UNL     1       6.122   1.345  11.658  0.00  0.00    +0.000 C 
ATOM     19  C   UNL     1       4.821   1.681  10.937  0.00  0.00    +0.000 C 
ATOM     20  C   UNL     1       4.256   3.031  11.372  0.00  0.00    +0.000 C 
ATOM     21  C   UNL     1       5.291   4.148  11.236  0.00  0.00    +0.000 C 
BRANCH  16  22
ATOM     22  O   UNL     1       7.555   4.833  11.598  0.00  0.00    +0.000 OA
ATOM     23  H   UNL     1       7.369   5.626  12.132  0.00  0.00    +0.000 HD
ENDBRANCH  16  22
ENDBRANCH  15  16
ENDBRANCH   9  14
BRANCH   1  24
ATOM     24  C   UNL     1       2.090   4.445  17.745  0.00  0.00    +0.000 C 
BRANCH  24  26
ATOM     25  C   UNL     1       0.658   2.232  18.760  0.00  0.00    +0.000 C 
ATOM     26  C   UNL     1       1.319   3.253  18.291  0.00  0.00    +0.000 C 
ENDBRANCH  24  26
ENDBRANCH   1  24
TORSDOF 5
ENDMDL
