MODEL 1
REMARK VINA RESULT:      -6.6      0.000      0.000
REMARK  Name = 
REMARK  6 active torsions:
REMARK  status: ('A' for Active; 'I' for Inactive)
REMARK    1  A    between atoms: C_1  and  C_2
REMARK    2  A    between atoms: C_5  and  C_6
REMARK    3  A    between atoms: C_6  and  C_7
REMARK    4  A    between atoms: C_7  and  N_8
REMARK    5  A    between atoms: C_12  and  C_13
REMARK    6  A    between atoms: C_13  and  O_14
REMARK                            x       y       z     vdW  Elec       q    Type
REMARK                         _______ _______ _______ _____ _____    ______ ____
ROOT
ATOM      1  C   UNL     1       3.845   4.323  19.564  0.00  0.00    +0.000 C 
ENDROOT
BRANCH   1   2
ATOM      2  N   UNL     1       2.411   4.644  19.413  0.00  0.00    +0.000 NA
ATOM      3  C   UNL     1       1.668   4.573  20.684  0.00  0.00    +0.000 C 
ATOM      4  C   UNL     1       1.202   3.137  20.774  0.00  0.00    +0.000 C 
ATOM      5  C   UNL     1       0.767   2.851  19.353  0.00  0.00    +0.000 C 
ATOM      6  C   UNL     1       1.663   3.751  18.481  0.00  0.00    +0.000 C 
BRANCH   6   7
ATOM      7  C   UNL     1       2.443   2.925  17.437  0.00  0.00    +0.000 C 
BRANCH   7   8
ATOM      8  O   UNL     1       2.562   1.562  17.843  0.00  0.00    +0.000 OA
ATOM      9  H   UNL     1       3.402   1.226  17.483  0.00  0.00    +0.000 HD
ENDBRANCH   7   8
ENDBRANCH   6   7
ENDBRANCH   1   2
BRANCH   1  10
ATOM     10  C   UNL     1       4.773   5.501  19.201  0.00  0.00    +0.000 C 
BRANCH  10  15
ATOM     11  C   UNL     1       7.052   4.804  13.885  0.00  0.00    +0.000 C 
ATOM     12  C   UNL     1       6.496   5.015  15.261  0.00  0.00    +0.000 A 
ATOM     13  C   UNL     1       7.140   4.493  16.387  0.00  0.00    +0.000 A 
ATOM     14  C   UNL     1       6.596   4.668  17.662  0.00  0.00    +0.000 A 
ATOM     15  C   UNL     1       5.393   5.360  17.831  0.00  0.00    +0.000 A 
ATOM     16  C   UNL     1       4.759   5.904  16.706  0.00  0.00    +0.000 A 
ATOM     17  C   UNL     1       5.305   5.730  15.432  0.00  0.00    +0.000 A 
ENDBRANCH  10  15
ENDBRANCH   1  10
TORSDOF 5
ENDMDL
MODEL 2
REMARK VINA RESULT:      -6.5      2.251      5.660
REMARK  Name = 
REMARK  6 active torsions:
REMARK  status: ('A' for Active; 'I' for Inactive)
REMARK    1  A    between atoms: C_1  and  C_2
REMARK    2  A    between atoms: C_5  and  C_6
REMARK    3  A    between atoms: C_6  and  C_7
REMARK    4  A    between atoms: C_7  and  N_8
REMARK    5  A    between atoms: C_12  and  C_13
REMARK    6  A    between atoms: C_13  and  O_14
REMARK                            x       y       z     vdW  Elec       q    Type
REMARK                         _______ _______ _______ _____ _____    ______ ____
ROOT
ATOM      1  C   UNL     1       4.933   6.665  17.569  0.00  0.00    +0.000 C 
ENDROOT
BRANCH   1   2
ATOM      2  N   UNL     1       5.410   5.333  17.992  0.00  0.00    +0.000 NA
ATOM      3  C   UNL     1       6.242   5.378  19.207  0.00  0.00    +0.000 C 
ATOM      4  C   UNL     1       7.652   5.574  18.697  0.00  0.00    +0.000 C 
ATOM      5  C   UNL     1       7.693   4.650  17.501  0.00  0.00    +0.000 C 
ATOM      6  C   UNL     1       6.243   4.615  16.983  0.00  0.00    +0.000 C 
BRANCH   6   7
ATOM      7  C   UNL     1       6.164   5.037  15.500  0.00  0.00    +0.000 C 
BRANCH   7   8
ATOM      8  O   UNL     1       7.458   5.351  14.986  0.00  0.00    +0.000 OA
ATOM      9  H   UNL     1       7.848   6.021  15.574  0.00  0.00    +0.000 HD
ENDBRANCH   7   8
ENDBRANCH   6   7
ENDBRANCH   1   2
BRANCH   1  10
ATOM     10  C   UNL     1       3.396   6.794  17.582  0.00  0.00    +0.000 C 
BRANCH  10  15
ATOM     11  C   UNL     1       1.005   2.896  21.191  0.00  0.00    +0.000 C 
ATOM     12  C   UNL     1       1.579   3.911  20.250  0.00  0.00    +0.000 A 
ATOM     13  C   UNL     1       1.662   3.655  18.877  0.00  0.00    +0.000 A 
ATOM     14  C   UNL     1       2.229   4.595  18.012  0.00  0.00    +0.000 A 
ATOM     15  C   UNL     1       2.731   5.803  18.506  0.00  0.00    +0.000 A 
ATOM     16  C   UNL     1       2.627   6.069  19.878  0.00  0.00    +0.000 A 
ATOM     17  C   UNL     1       2.059   5.130  20.742  0.00  0.00    +0.000 A 
ENDBRANCH  10  15
ENDBRANCH   1  10
TORSDOF 5
ENDMDL
MODEL 3
REMARK VINA RESULT:      -6.5      2.226      3.056
REMARK  Name = 
REMARK  6 active torsions:
REMARK  status: ('A' for Active; 'I' for Inactive)
REMARK    1  A    between atoms: C_1  and  C_2
REMARK    2  A    between atoms: C_5  and  C_6
REMARK    3  A    between atoms: C_6  and  C_7
REMARK    4  A    between atoms: C_7  and  N_8
REMARK    5  A    between atoms: C_12  and  C_13
REMARK    6  A    between atoms: C_13  and  O_14
REMARK                            x       y       z     vdW  Elec       q    Type
REMARK                         _______ _______ _______ _____ _____    ______ ____
ROOT
ATOM      1  C   UNL     1       3.048   3.816  17.761  0.00  0.00    +0.000 C 
ENDROOT
BRANCH   1   2
ATOM      2  N   UNL     1       3.113   3.569  19.215  0.00  0.00    +0.000 NA
ATOM      3  C   UNL     1       2.287   2.426  19.644  0.00  0.00    +0.000 C 
ATOM      4  C   UNL     1       0.930   3.025  19.940  0.00  0.00    +0.000 C 
ATOM      5  C   UNL     1       1.295   4.308  20.653  0.00  0.00    +0.000 C 
ATOM      6  C   UNL     1       2.661   4.708  20.067  0.00  0.00    +0.000 C 
BRANCH   6   7
ATOM      7  C   UNL     1       2.621   6.130  19.466  0.00  0.00    +0.000 C 
BRANCH   7   8
ATOM      8  O   UNL     1       2.286   7.098  20.459  0.00  0.00    +0.000 OA
ATOM      9  H   UNL     1       1.433   6.833  20.846  0.00  0.00    +0.000 HD
ENDBRANCH   7   8
ENDBRANCH   6   7
ENDBRANCH   1   2
BRANCH   1  10
ATOM     10  C   UNL     1       4.395   3.590  17.045  0.00  0.00    +0.000 C 
BRANCH  10  15
ATOM     11  C   UNL     1       7.928   8.177  17.691  0.00  0.00    +0.000 C 
ATOM     12  C   UNL     1       7.034   6.992  17.483  0.00  0.00    +0.000 A 
ATOM     13  C   UNL     1       5.843   7.106  16.758  0.00  0.00    +0.000 A 
ATOM     14  C   UNL     1       5.001   6.002  16.597  0.00  0.00    +0.000 A 
ATOM     15  C   UNL     1       5.331   4.769  17.167  0.00  0.00    +0.000 A 
ATOM     16  C   UNL     1       6.535   4.649  17.874  0.00  0.00    +0.000 A 
ATOM     17  C   UNL     1       7.377   5.751  18.032  0.00  0.00    +0.000 A 
ENDBRANCH  10  15
ENDBRANCH   1  10
TORSDOF 5
ENDMDL
MODEL 4
REMARK VINA RESULT:      -6.4      2.192      2.802
REMARK  Name = 
REMARK  6 active torsions:
REMARK  status: ('A' for Active; 'I' for Inactive)
REMARK    1  A    between atoms: C_1  and  C_2
REMARK    2  A    between atoms: C_5  and  C_6
REMARK    3  A    between atoms: C_6  and  C_7
REMARK    4  A    between atoms: C_7  and  N_8
REMARK    5  A    between atoms: C_12  and  C_13
REMARK    6  A    between atoms: C_13  and  O_14
REMARK                            x       y       z     vdW  Elec       q    Type
REMARK                         _______ _______ _______ _____ _____    ______ ____
ROOT
ATOM      1  C   UNL     1       3.062   3.776  17.605  0.00  0.00    +0.000 C 
ENDROOT
BRANCH   1   2
ATOM      2  N   UNL     1       3.002   3.417  19.036  0.00  0.00    +0.000 NA
ATOM      3  C   UNL     1       2.171   2.227  19.297  0.00  0.00    +0.000 C 
ATOM      4  C   UNL     1       0.777   2.775  19.513  0.00  0.00    +0.000 C 
ATOM      5  C   UNL     1       1.042   4.005  20.353  0.00  0.00    +0.000 C 
ATOM      6  C   UNL     1       2.444   4.476  19.927  0.00  0.00    +0.000 C 
BRANCH   6   7
ATOM      7  C   UNL     1       2.421   5.940  19.437  0.00  0.00    +0.000 C 
BRANCH   7   8
ATOM      8  O   UNL     1       2.332   6.848  20.533  0.00  0.00    +0.000 OA
ATOM      9  H   UNL     1       1.821   7.618  20.229  0.00  0.00    +0.000 HD
ENDBRANCH   7   8
ENDBRANCH   6   7
ENDBRANCH   1   2
BRANCH   1  10
ATOM     10  C   UNL     1       4.467   3.602  16.993  0.00  0.00    +0.000 C 
BRANCH  10  15
ATOM     11  C   UNL     1       8.009   8.166  17.746  0.00  0.00    +0.000 C 
ATOM     12  C   UNL     1       7.085   6.995  17.595  0.00  0.00    +0.000 A 
ATOM     13  C   UNL     1       7.444   5.728  18.066  0.00  0.00    +0.000 A 
ATOM     14  C   UNL     1       6.589   4.636  17.892  0.00  0.00    +0.000 A 
ATOM     15  C   UNL     1       5.365   4.791  17.234  0.00  0.00    +0.000 A 
ATOM     16  C   UNL     1       4.995   6.065  16.782  0.00  0.00    +0.000 A 
ATOM     17  C   UNL     1       5.849   7.155  16.959  0.00  0.00    +0.000 A 
ENDBRANCH  10  15
ENDBRANCH   1  10
TORSDOF 5
ENDMDL
MODEL 5
REMARK VINA RESULT:      -6.4      2.755      5.987
REMARK  Name = 
REMARK  6 active torsions:
REMARK  status: ('A' for Active; 'I' for Inactive)
REMARK    1  A    between atoms: C_1  and  C_2
REMARK    2  A    between atoms: C_5  and  C_6
REMARK    3  A    between atoms: C_6  and  C_7
REMARK    4  A    between atoms: C_7  and  N_8
REMARK    5  A    between atoms: C_12  and  C_13
REMARK    6  A    between atoms: C_13  and  O_14
REMARK                            x       y       z     vdW  Elec       q    Type
REMARK                         _______ _______ _______ _____ _____    ______ ____
ROOT
ATOM      1  C   UNL     1       4.996   7.019  17.738  0.00  0.00    +0.000 C 
ENDROOT
BRANCH   1   2
ATOM      2  N   UNL     1       5.934   6.740  16.632  0.00  0.00    +0.000 NA
ATOM      3  C   UNL     1       5.359   5.860  15.598  0.00  0.00    +0.000 C 
ATOM      4  C   UNL     1       5.694   4.459  16.059  0.00  0.00    +0.000 C 
ATOM      5  C   UNL     1       7.116   4.615  16.552  0.00  0.00    +0.000 C 
ATOM      6  C   UNL     1       7.205   6.073  17.040  0.00  0.00    +0.000 C 
BRANCH   6   7
ATOM      7  C   UNL     1       7.658   6.147  18.514  0.00  0.00    +0.000 C 
BRANCH   7   8
ATOM      8  O   UNL     1       8.402   7.338  18.764  0.00  0.00    +0.000 OA
ATOM      9  H   UNL     1       8.717   7.667  17.904  0.00  0.00    +0.000 HD
ENDBRANCH   7   8
ENDBRANCH   6   7
ENDBRANCH   1   2
BRANCH   1  10
ATOM     10  C   UNL     1       3.519   6.792  17.356  0.00  0.00    +0.000 C 
BRANCH  10  15
ATOM     11  C   UNL     1       0.976   2.970  20.944  0.00  0.00    +0.000 C 
ATOM     12  C   UNL     1       1.591   3.968  20.008  0.00  0.00    +0.000 A 
ATOM     13  C   UNL     1       1.632   3.734  18.630  0.00  0.00    +0.000 A 
ATOM     14  C   UNL     1       2.235   4.656  17.770  0.00  0.00    +0.000 A 
ATOM     15  C   UNL     1       2.815   5.823  18.276  0.00  0.00    +0.000 A 
ATOM     16  C   UNL     1       2.754   6.069  19.654  0.00  0.00    +0.000 A 
ATOM     17  C   UNL     1       2.149   5.148  20.512  0.00  0.00    +0.000 A 
ENDBRANCH  10  15
ENDBRANCH   1  10
TORSDOF 5
ENDMDL
MODEL 6
REMARK VINA RESULT:      -6.4      2.295      5.622
REMARK  Name = 
REMARK  6 active torsions:
REMARK  status: ('A' for Active; 'I' for Inactive)
REMARK    1  A    between atoms: C_1  and  C_2
REMARK    2  A    between atoms: C_5  and  C_6
REMARK    3  A    between atoms: C_6  and  C_7
REMARK    4  A    between atoms: C_7  and  N_8
REMARK    5  A    between atoms: C_12  and  C_13
REMARK    6  A    between atoms: C_13  and  O_14
REMARK                            x       y       z     vdW  Elec       q    Type
REMARK                         _______ _______ _______ _____ _____    ______ ____
ROOT
ATOM      1  C   UNL     1       5.052   6.687  17.462  0.00  0.00    +0.000 C 
ENDROOT
BRANCH   1   2
ATOM      2  N   UNL     1       5.487   5.349  17.913  0.00  0.00    +0.000 NA
ATOM      3  C   UNL     1       6.286   5.391  19.151  0.00  0.00    +0.000 C 
ATOM      4  C   UNL     1       7.714   5.550  18.679  0.00  0.00    +0.000 C 
ATOM      5  C   UNL     1       7.767   4.611  17.495  0.00  0.00    +0.000 C 
ATOM      6  C   UNL     1       6.332   4.601  16.937  0.00  0.00    +0.000 C 
BRANCH   6   7
ATOM      7  C   UNL     1       6.304   5.007  15.448  0.00  0.00    +0.000 C 
BRANCH   7   8
ATOM      8  O   UNL     1       7.599   5.408  15.000  0.00  0.00    +0.000 OA
ATOM      9  H   UNL     1       8.070   4.603  14.722  0.00  0.00    +0.000 HD
ENDBRANCH   7   8
ENDBRANCH   6   7
ENDBRANCH   1   2
BRANCH   1  10
ATOM     10  C   UNL     1       3.526   6.891  17.547  0.00  0.00    +0.000 C 
BRANCH  10  15
ATOM     11  C   UNL     1       0.702   2.935  20.759  0.00  0.00    +0.000 C 
ATOM     12  C   UNL     1       1.467   3.934  19.945  0.00  0.00    +0.000 A 
ATOM     13  C   UNL     1       2.088   5.032  20.550  0.00  0.00    +0.000 A 
ATOM     14  C   UNL     1       2.772   5.976  19.778  0.00  0.00    +0.000 A 
ATOM     15  C   UNL     1       2.838   5.842  18.388  0.00  0.00    +0.000 A 
ATOM     16  C   UNL     1       2.236   4.730  17.784  0.00  0.00    +0.000 A 
ATOM     17  C   UNL     1       1.554   3.787  18.556  0.00  0.00    +0.000 A 
ENDBRANCH  10  15
ENDBRANCH   1  10
TORSDOF 5
ENDMDL
MODEL 7
REMARK VINA RESULT:      -6.3      0.800      1.306
REMARK  Name = 
REMARK  6 active torsions:
REMARK  status: ('A' for Active; 'I' for Inactive)
REMARK    1  A    between atoms: C_1  and  C_2
REMARK    2  A    between atoms: C_5  and  C_6
REMARK    3  A    between atoms: C_6  and  C_7
REMARK    4  A    between atoms: C_7  and  N_8
REMARK    5  A    between atoms: C_12  and  C_13
REMARK    6  A    between atoms: C_13  and  O_14
REMARK                            x       y       z     vdW  Elec       q    Type
REMARK                         _______ _______ _______ _____ _____    ______ ____
ROOT
ATOM      1  C   UNL     1       3.852   4.576  19.425  0.00  0.00    +0.000 C 
ENDROOT
BRANCH   1   2
ATOM      2  N   UNL     1       2.391   4.787  19.443  0.00  0.00    +0.000 NA
ATOM      3  C   UNL     1       1.844   4.916  20.805  0.00  0.00    +0.000 C 
ATOM      4  C   UNL     1       1.511   3.501  21.220  0.00  0.00    +0.000 C 
ATOM      5  C   UNL     1       0.904   2.930  19.957  0.00  0.00    +0.000 C 
ATOM      6  C   UNL     1       1.591   3.697  18.811  0.00  0.00    +0.000 C 
BRANCH   6   7
ATOM      7  C   UNL     1       2.280   2.731  17.822  0.00  0.00    +0.000 C 
BRANCH   7   8
ATOM      8  O   UNL     1       2.359   1.413  18.362  0.00  0.00    +0.000 OA
ATOM      9  H   UNL     1       1.906   0.818  17.739  0.00  0.00    +0.000 HD
ENDBRANCH   7   8
ENDBRANCH   6   7
ENDBRANCH   1   2
BRANCH   1  10
ATOM     10  C   UNL     1       4.618   5.685  18.675  0.00  0.00    +0.000 C 
BRANCH  10  15
ATOM     11  C   UNL     1       6.416   4.128  13.357  0.00  0.00    +0.000 C 
ATOM     12  C   UNL     1       5.911   4.526  14.711  0.00  0.00    +0.000 A 
ATOM     13  C   UNL     1       5.481   5.833  14.964  0.00  0.00    +0.000 A 
ATOM     14  C   UNL     1       5.042   6.202  16.238  0.00  0.00    +0.000 A 
ATOM     15  C   UNL     1       5.036   5.273  17.283  0.00  0.00    +0.000 A 
ATOM     16  C   UNL     1       5.445   3.958  17.025  0.00  0.00    +0.000 A 
ATOM     17  C   UNL     1       5.881   3.590  15.750  0.00  0.00    +0.000 A 
ENDBRANCH  10  15
ENDBRANCH   1  10
TORSDOF 5
ENDMDL
MODEL 8
REMARK VINA RESULT:      -6.3      2.161      3.152
REMARK  Name = 
REMARK  6 active torsions:
REMARK  status: ('A' for Active; 'I' for Inactive)
REMARK    1  A    between atoms: C_1  and  C_2
REMARK    2  A    between atoms: C_5  and  C_6
REMARK    3  A    between atoms: C_6  and  C_7
REMARK    4  A    between atoms: C_7  and  N_8
REMARK    5  A    between atoms: C_12  and  C_13
REMARK    6  A    between atoms: C_13  and  O_14
REMARK                            x       y       z     vdW  Elec       q    Type
REMARK                         _______ _______ _______ _____ _____    ______ ____
ROOT
ATOM      1  C   UNL     1       4.372   3.450  18.914  0.00  0.00    +0.000 C 
ENDROOT
BRANCH   1   2
ATOM      2  N   UNL     1       3.216   2.562  18.678  0.00  0.00    +0.000 NA
ATOM      3  C   UNL     1       2.410   2.963  17.511  0.00  0.00    +0.000 C 
ATOM      4  C   UNL     1       1.387   3.928  18.066  0.00  0.00    +0.000 C 
ATOM      5  C   UNL     1       0.989   3.261  19.365  0.00  0.00    +0.000 C 
ATOM      6  C   UNL     1       2.243   2.484  19.806  0.00  0.00    +0.000 C 
BRANCH   6   7
ATOM      7  C   UNL     1       2.694   2.902  21.223  0.00  0.00    +0.000 C 
BRANCH   7   8
ATOM      8  O   UNL     1       1.689   2.604  22.191  0.00  0.00    +0.000 OA
ATOM      9  H   UNL     1       1.641   3.361  22.800  0.00  0.00    +0.000 HD
ENDBRANCH   7   8
ENDBRANCH   6   7
ENDBRANCH   1   2
BRANCH   1  10
ATOM     10  C   UNL     1       5.242   3.664  17.659  0.00  0.00    +0.000 C 
BRANCH  10  15
ATOM     11  C   UNL     1       8.181   8.684  17.979  0.00  0.00    +0.000 C 
ATOM     12  C   UNL     1       7.443   7.384  17.857  0.00  0.00    +0.000 A 
ATOM     13  C   UNL     1       6.307   7.273  17.049  0.00  0.00    +0.000 A 
ATOM     14  C   UNL     1       5.608   6.066  16.967  0.00  0.00    +0.000 A 
ATOM     15  C   UNL     1       6.028   4.952  17.699  0.00  0.00    +0.000 A 
ATOM     16  C   UNL     1       7.180   5.055  18.491  0.00  0.00    +0.000 A 
ATOM     17  C   UNL     1       7.879   6.262  18.570  0.00  0.00    +0.000 A 
ENDBRANCH  10  15
ENDBRANCH   1  10
TORSDOF 5
ENDMDL
MODEL 9
REMARK VINA RESULT:      -6.3      1.925      2.527
REMARK  Name = 
REMARK  6 active torsions:
REMARK  status: ('A' for Active; 'I' for Inactive)
REMARK    1  A    between atoms: C_1  and  C_2
REMARK    2  A    between atoms: C_5  and  C_6
REMARK    3  A    between atoms: C_6  and  C_7
REMARK    4  A    between atoms: C_7  and  N_8
REMARK    5  A    between atoms: C_12  and  C_13
REMARK    6  A    between atoms: C_13  and  O_14
REMARK                            x       y       z     vdW  Elec       q    Type
REMARK                         _______ _______ _______ _____ _____    ______ ____
ROOT
ATOM      1  C   UNL     1       2.870   3.889  17.879  0.00  0.00    +0.000 C 
ENDROOT
BRANCH   1   2
ATOM      2  N   UNL     1       2.316   2.623  18.398  0.00  0.00    +0.000 NA
ATOM      3  C   UNL     1       0.855   2.667  18.588  0.00  0.00    +0.000 C 
ATOM      4  C   UNL     1       0.669   3.174  20.001  0.00  0.00    +0.000 C 
ATOM      5  C   UNL     1       1.746   2.425  20.756  0.00  0.00    +0.000 C 
ATOM      6  C   UNL     1       2.861   2.194  19.720  0.00  0.00    +0.000 C 
BRANCH   6   7
ATOM      7  C   UNL     1       4.208   2.773  20.205  0.00  0.00    +0.000 C 
BRANCH   7   8
ATOM      8  O   UNL     1       5.262   1.824  20.051  0.00  0.00    +0.000 OA
ATOM      9  H   UNL     1       5.056   1.289  19.264  0.00  0.00    +0.000 HD
ENDBRANCH   7   8
ENDBRANCH   6   7
ENDBRANCH   1   2
BRANCH   1  10
ATOM     10  C   UNL     1       4.176   3.700  17.080  0.00  0.00    +0.000 C 
BRANCH  10  15
ATOM     11  C   UNL     1       7.993   8.068  17.616  0.00  0.00    +0.000 C 
ATOM     12  C   UNL     1       7.003   6.947  17.521  0.00  0.00    +0.000 A 
ATOM     13  C   UNL     1       7.335   5.654  17.940  0.00  0.00    +0.000 A 
ATOM     14  C   UNL     1       6.415   4.610  17.818  0.00  0.00    +0.000 A 
ATOM     15  C   UNL     1       5.150   4.838  17.267  0.00  0.00    +0.000 A 
ATOM     16  C   UNL     1       4.809   6.138  16.869  0.00  0.00    +0.000 A 
ATOM     17  C   UNL     1       5.728   7.182  16.993  0.00  0.00    +0.000 A 
ENDBRANCH  10  15
ENDBRANCH   1  10
TORSDOF 5
ENDMDL
