MODEL 1
REMARK VINA RESULT:      -6.3      0.000      0.000
REMARK  Name = 
REMARK  10 active torsions:
REMARK  status: ('A' for Active; 'I' for Inactive)
REMARK    1  A    between atoms: C_1  and  C_2
REMARK    2  A    between atoms: C_2  and  C_3
REMARK    3  A    between atoms: C_7  and  O_8
REMARK    4  A    between atoms: O_8  and  C_9
REMARK    5  A    between atoms: C_12  and  C_14
REMARK    6  A    between atoms: C_14  and  N_15
REMARK    7  A    between atoms: C_14  and  C_16
REMARK    8  A    between atoms: C_16  and  C_17
REMARK    9  A    between atoms: C_17  and  S_18
REMARK   10  A    between atoms: S_18  and  C_19
REMARK                            x       y       z     vdW  Elec       q    Type
REMARK                         _______ _______ _______ _____ _____    ______ ____
ROOT
ATOM      1  C   UNL     1       6.036   5.215  16.977  0.00  0.00    +0.000 C 
ATOM      2  C   UNL     1       4.577   5.447  16.534  0.00  0.00    +0.000 C 
ATOM      3  N   UNL     1       4.247   5.493  17.945  0.00  0.00    +0.000 N 
ATOM      4  C   UNL     1       3.077   5.839  18.549  0.00  0.00    +0.000 C 
ATOM      5  O   UNL     1       2.144   6.327  17.909  0.00  0.00    +0.000 OA
ATOM      6  C   UNL     1       5.466   4.844  18.370  0.00  0.00    +0.000 C 
ENDROOT
BRANCH   1   7
ATOM      7  O   UNL     1       6.751   4.185  16.254  0.00  0.00    +0.000 OA
BRANCH   7  12
ATOM      8  C   UNL     1       6.150   3.556  12.638  0.00  0.00    +0.000 A 
ATOM      9  C   UNL     1       7.011   4.521  12.105  0.00  0.00    +0.000 A 
ATOM     10  C   UNL     1       7.756   5.341  12.951  0.00  0.00    +0.000 A 
ATOM     11  C   UNL     1       7.645   5.199  14.337  0.00  0.00    +0.000 A 
ATOM     12  C   UNL     1       6.784   4.245  14.880  0.00  0.00    +0.000 A 
ATOM     13  C   UNL     1       6.041   3.427  14.032  0.00  0.00    +0.000 A 
BRANCH   8  15
ATOM     14  C   UNL     1       4.110   3.261  11.234  0.00  0.00    +0.000 C 
ATOM     15  C   UNL     1       5.389   2.613  11.741  0.00  0.00    +0.000 C 
ENDBRANCH   8  15
ENDBRANCH   7  12
ENDBRANCH   1   7
BRANCH   4  16
ATOM     16  C   UNL     1       3.021   5.677  20.084  0.00  0.00    +0.000 C 
BRANCH  16  17
ATOM     17  N   UNL     1       1.995   6.601  20.622  0.00  0.00    +0.000 NA
ATOM     18  H   UNL     1       1.693   7.221  19.867  0.00  0.00    +0.000 HD
ATOM     19  H   UNL     1       2.421   7.203  21.324  0.00  0.00    +0.000 HD
ENDBRANCH  16  17
BRANCH  16  20
ATOM     20  C   UNL     1       2.639   4.238  20.474  0.00  0.00    +0.000 C 
BRANCH  20  21
ATOM     21  C   UNL     1       1.176   3.875  20.193  0.00  0.00    +0.000 C 
BRANCH  21  22
ATOM     22  S   UNL     1       1.019   2.682  18.822  0.00  0.00    +0.000 S 
ATOM     23  C   UNL     1       2.727   2.095  18.767  0.00  0.00    +0.000 C 
ENDBRANCH  21  22
ENDBRANCH  20  21
ENDBRANCH  16  20
ENDBRANCH   4  16
TORSDOF 8
ENDMDL
MODEL 2
REMARK VINA RESULT:      -6.3      3.333      7.992
REMARK  Name = 
REMARK  10 active torsions:
REMARK  status: ('A' for Active; 'I' for Inactive)
REMARK    1  A    between atoms: C_1  and  C_2
REMARK    2  A    between atoms: C_2  and  C_3
REMARK    3  A    between atoms: C_7  and  O_8
REMARK    4  A    between atoms: O_8  and  C_9
REMARK    5  A    between atoms: C_12  and  C_14
REMARK    6  A    between atoms: C_14  and  N_15
REMARK    7  A    between atoms: C_14  and  C_16
REMARK    8  A    between atoms: C_16  and  C_17
REMARK    9  A    between atoms: C_17  and  S_18
REMARK   10  A    between atoms: S_18  and  C_19
REMARK                            x       y       z     vdW  Elec       q    Type
REMARK                         _______ _______ _______ _____ _____    ______ ____
ROOT
ATOM      1  C   UNL     1       4.495   6.510  17.902  0.00  0.00    +0.000 C 
ATOM      2  C   UNL     1       5.610   5.478  18.167  0.00  0.00    +0.000 C 
ATOM      3  N   UNL     1       5.850   5.500  16.737  0.00  0.00    +0.000 N 
ATOM      4  C   UNL     1       6.863   4.939  16.021  0.00  0.00    +0.000 C 
ATOM      5  O   UNL     1       7.839   4.433  16.579  0.00  0.00    +0.000 OA
ATOM      6  C   UNL     1       4.568   6.083  16.414  0.00  0.00    +0.000 C 
ENDROOT
BRANCH   1   7
ATOM      7  O   UNL     1       3.249   6.275  18.601  0.00  0.00    +0.000 OA
BRANCH   7  12
ATOM      8  C   UNL     1       1.188   8.703  20.520  0.00  0.00    +0.000 A 
ATOM      9  C   UNL     1       0.926   9.621  19.497  0.00  0.00    +0.000 A 
ATOM     10  C   UNL     1       1.436   9.408  18.217  0.00  0.00    +0.000 A 
ATOM     11  C   UNL     1       2.208   8.274  17.952  0.00  0.00    +0.000 A 
ATOM     12  C   UNL     1       2.482   7.357  18.967  0.00  0.00    +0.000 A 
ATOM     13  C   UNL     1       1.972   7.572  20.246  0.00  0.00    +0.000 A 
BRANCH   8  15
ATOM     14  C   UNL     1      -0.323  10.096  21.935  0.00  0.00    +0.000 C 
ATOM     15  C   UNL     1       0.589   8.879  21.893  0.00  0.00    +0.000 C 
ENDBRANCH   8  15
ENDBRANCH   7  12
ENDBRANCH   1   7
BRANCH   4  16
ATOM     16  C   UNL     1       6.767   5.057  14.485  0.00  0.00    +0.000 C 
BRANCH  16  17
ATOM     17  N   UNL     1       8.082   5.497  13.959  0.00  0.00    +0.000 NA
ATOM     18  H   UNL     1       8.752   4.736  14.091  0.00  0.00    +0.000 HD
ATOM     19  H   UNL     1       8.425   6.272  14.523  0.00  0.00    +0.000 HD
ENDBRANCH  16  17
BRANCH  16  20
ATOM     20  C   UNL     1       6.412   3.702  13.848  0.00  0.00    +0.000 C 
BRANCH  20  21
ATOM     21  C   UNL     1       6.486   3.685  12.316  0.00  0.00    +0.000 C 
BRANCH  21  22
ATOM     22  S   UNL     1       5.526   2.309  11.601  0.00  0.00    +0.000 S 
ATOM     23  C   UNL     1       4.019   3.212  11.177  0.00  0.00    +0.000 C 
ENDBRANCH  21  22
ENDBRANCH  20  21
ENDBRANCH  16  20
ENDBRANCH   4  16
TORSDOF 8
ENDMDL
MODEL 3
REMARK VINA RESULT:      -6.2      5.817      7.833
REMARK  Name = 
REMARK  10 active torsions:
REMARK  status: ('A' for Active; 'I' for Inactive)
REMARK    1  A    between atoms: C_1  and  C_2
REMARK    2  A    between atoms: C_2  and  C_3
REMARK    3  A    between atoms: C_7  and  O_8
REMARK    4  A    between atoms: O_8  and  C_9
REMARK    5  A    between atoms: C_12  and  C_14
REMARK    6  A    between atoms: C_14  and  N_15
REMARK    7  A    between atoms: C_14  and  C_16
REMARK    8  A    between atoms: C_16  and  C_17
REMARK    9  A    between atoms: C_17  and  S_18
REMARK   10  A    between atoms: S_18  and  C_19
REMARK                            x       y       z     vdW  Elec       q    Type
REMARK                         _______ _______ _______ _____ _____    ______ ____
ROOT
ATOM      1  C   UNL     1       8.448   8.597  18.015  0.00  0.00    +0.000 C 
ATOM      2  C   UNL     1       8.383   7.278  18.812  0.00  0.00    +0.000 C 
ATOM      3  N   UNL     1       7.623   6.744  17.698  0.00  0.00    +0.000 N 
ATOM      4  C   UNL     1       7.231   5.464  17.453  0.00  0.00    +0.000 C 
ATOM      5  O   UNL     1       7.640   4.525  18.139  0.00  0.00    +0.000 OA
ATOM      6  C   UNL     1       7.282   8.041  17.159  0.00  0.00    +0.000 C 
ENDROOT
BRANCH   1   7
ATOM      7  O   UNL     1       8.197   9.800  18.780  0.00  0.00    +0.000 OA
BRANCH   7  12
ATOM      8  C   UNL     1      11.044  12.151  18.330  0.00  0.00    +0.000 A 
ATOM      9  C   UNL     1      11.334  12.400  19.676  0.00  0.00    +0.000 A 
ATOM     10  C   UNL     1      10.586  11.786  20.679  0.00  0.00    +0.000 A 
ATOM     11  C   UNL     1       9.543  10.919  20.342  0.00  0.00    +0.000 A 
ATOM     12  C   UNL     1       9.240  10.670  19.004  0.00  0.00    +0.000 A 
ATOM     13  C   UNL     1       9.989  11.285  18.002  0.00  0.00    +0.000 A 
BRANCH   8  15
ATOM     14  C   UNL     1      11.364  14.123  16.836  0.00  0.00    +0.000 C 
ATOM     15  C   UNL     1      11.885  12.749  17.231  0.00  0.00    +0.000 C 
ENDBRANCH   8  15
ENDBRANCH   7  12
ENDBRANCH   1   7
BRANCH   4  16
ATOM     16  C   UNL     1       6.331   5.244  16.218  0.00  0.00    +0.000 C 
BRANCH  16  17
ATOM     17  N   UNL     1       7.192   5.126  15.017  0.00  0.00    +0.000 NA
ATOM     18  H   UNL     1       6.648   5.414  14.201  0.00  0.00    +0.000 HD
ATOM     19  H   UNL     1       7.424   4.146  14.866  0.00  0.00    +0.000 HD
ENDBRANCH  16  17
BRANCH  16  20
ATOM     20  C   UNL     1       5.505   3.954  16.358  0.00  0.00    +0.000 C 
BRANCH  20  21
ATOM     21  C   UNL     1       4.107   4.160  16.954  0.00  0.00    +0.000 C 
BRANCH  21  22
ATOM     22  S   UNL     1       3.551   2.712  17.912  0.00  0.00    +0.000 S 
ATOM     23  C   UNL     1       4.456   3.028  19.444  0.00  0.00    +0.000 C 
ENDBRANCH  21  22
ENDBRANCH  20  21
ENDBRANCH  16  20
ENDBRANCH   4  16
TORSDOF 8
ENDMDL
MODEL 4
REMARK VINA RESULT:      -6.1      2.109      2.663
REMARK  Name = 
REMARK  10 active torsions:
REMARK  status: ('A' for Active; 'I' for Inactive)
REMARK    1  A    between atoms: C_1  and  C_2
REMARK    2  A    between atoms: C_2  and  C_3
REMARK    3  A    between atoms: C_7  and  O_8
REMARK    4  A    between atoms: O_8  and  C_9
REMARK    5  A    between atoms: C_12  and  C_14
REMARK    6  A    between atoms: C_14  and  N_15
REMARK    7  A    between atoms: C_14  and  C_16
REMARK    8  A    between atoms: C_16  and  C_17
REMARK    9  A    between atoms: C_17  and  S_18
REMARK   10  A    between atoms: S_18  and  C_19
REMARK                            x       y       z     vdW  Elec       q    Type
REMARK                         _______ _______ _______ _____ _____    ______ ____
ROOT
ATOM      1  C   UNL     1       5.108   3.824  16.670  0.00  0.00    +0.000 C 
ATOM      2  C   UNL     1       5.497   3.885  18.162  0.00  0.00    +0.000 C 
ATOM      3  N   UNL     1       4.118   3.539  18.446  0.00  0.00    +0.000 N 
ATOM      4  C   UNL     1       3.538   3.200  19.630  0.00  0.00    +0.000 C 
ATOM      5  O   UNL     1       4.213   2.998  20.641  0.00  0.00    +0.000 OA
ATOM      6  C   UNL     1       3.633   3.913  17.138  0.00  0.00    +0.000 C 
ENDROOT
BRANCH   1   7
ATOM      7  O   UNL     1       5.613   4.905  15.850  0.00  0.00    +0.000 OA
BRANCH   7  12
ATOM      8  C   UNL     1       5.906   3.546  12.401  0.00  0.00    +0.000 A 
ATOM      9  C   UNL     1       7.106   4.162  12.027  0.00  0.00    +0.000 A 
ATOM     10  C   UNL     1       7.772   4.999  12.921  0.00  0.00    +0.000 A 
ATOM     11  C   UNL     1       7.244   5.224  14.195  0.00  0.00    +0.000 A 
ATOM     12  C   UNL     1       6.045   4.621  14.575  0.00  0.00    +0.000 A 
ATOM     13  C   UNL     1       5.380   3.785  13.681  0.00  0.00    +0.000 A 
BRANCH   8  15
ATOM     14  C   UNL     1       3.875   3.151  11.009  0.00  0.00    +0.000 C 
ATOM     15  C   UNL     1       5.207   2.583  11.476  0.00  0.00    +0.000 C 
ENDBRANCH   8  15
ENDBRANCH   7  12
ENDBRANCH   1   7
BRANCH   4  16
ATOM     16  C   UNL     1       2.008   2.990  19.611  0.00  0.00    +0.000 C 
BRANCH  16  17
ATOM     17  N   UNL     1       1.611   2.280  20.850  0.00  0.00    +0.000 NA
ATOM     18  H   UNL     1       1.129   1.418  20.586  0.00  0.00    +0.000 HD
ATOM     19  H   UNL     1       0.924   2.840  21.352  0.00  0.00    +0.000 HD
ENDBRANCH  16  17
BRANCH  16  20
ATOM     20  C   UNL     1       1.266   4.337  19.558  0.00  0.00    +0.000 C 
BRANCH  20  21
ATOM     21  C   UNL     1       1.793   5.388  20.542  0.00  0.00    +0.000 C 
BRANCH  21  22
ATOM     22  S   UNL     1       2.342   6.906  19.693  0.00  0.00    +0.000 S 
ATOM     23  C   UNL     1       1.466   8.122  20.703  0.00  0.00    +0.000 C 
ENDBRANCH  21  22
ENDBRANCH  20  21
ENDBRANCH  16  20
ENDBRANCH   4  16
TORSDOF 8
ENDMDL
MODEL 5
REMARK VINA RESULT:      -6.1      0.919      1.040
REMARK  Name = 
REMARK  10 active torsions:
REMARK  status: ('A' for Active; 'I' for Inactive)
REMARK    1  A    between atoms: C_1  and  C_2
REMARK    2  A    between atoms: C_2  and  C_3
REMARK    3  A    between atoms: C_7  and  O_8
REMARK    4  A    between atoms: O_8  and  C_9
REMARK    5  A    between atoms: C_12  and  C_14
REMARK    6  A    between atoms: C_14  and  N_15
REMARK    7  A    between atoms: C_14  and  C_16
REMARK    8  A    between atoms: C_16  and  C_17
REMARK    9  A    between atoms: C_17  and  S_18
REMARK   10  A    between atoms: S_18  and  C_19
REMARK                            x       y       z     vdW  Elec       q    Type
REMARK                         _______ _______ _______ _____ _____    ______ ____
ROOT
ATOM      1  C   UNL     1       5.615   5.042  17.383  0.00  0.00    +0.000 C 
ATOM      2  C   UNL     1       4.386   5.796  16.834  0.00  0.00    +0.000 C 
ATOM      3  N   UNL     1       3.891   5.804  18.197  0.00  0.00    +0.000 N 
ATOM      4  C   UNL     1       2.821   6.460  18.725  0.00  0.00    +0.000 C 
ATOM      5  O   UNL     1       2.195   7.297  18.071  0.00  0.00    +0.000 OA
ATOM      6  C   UNL     1       4.764   4.742  18.643  0.00  0.00    +0.000 C 
ENDROOT
BRANCH   1   7
ATOM      7  O   UNL     1       6.057   3.912  16.593  0.00  0.00    +0.000 OA
BRANCH   7  12
ATOM      8  C   UNL     1       5.912   3.737  12.882  0.00  0.00    +0.000 A 
ATOM      9  C   UNL     1       6.971   4.601  12.583  0.00  0.00    +0.000 A 
ATOM     10  C   UNL     1       7.692   5.208  13.610  0.00  0.00    +0.000 A 
ATOM     11  C   UNL     1       7.359   4.952  14.943  0.00  0.00    +0.000 A 
ATOM     12  C   UNL     1       6.301   4.098  15.252  0.00  0.00    +0.000 A 
ATOM     13  C   UNL     1       5.581   3.493  14.224  0.00  0.00    +0.000 A 
BRANCH   8  15
ATOM     14  C   UNL     1       5.865   1.718  11.417  0.00  0.00    +0.000 C 
ATOM     15  C   UNL     1       5.165   3.017  11.788  0.00  0.00    +0.000 C 
ENDBRANCH   8  15
ENDBRANCH   7  12
ENDBRANCH   1   7
BRANCH   4  16
ATOM     16  C   UNL     1       2.498   6.168  20.206  0.00  0.00    +0.000 C 
BRANCH  16  17
ATOM     17  N   UNL     1       1.965   7.403  20.828  0.00  0.00    +0.000 NA
ATOM     18  H   UNL     1       1.246   7.790  20.212  0.00  0.00    +0.000 HD
ATOM     19  H   UNL     1       2.703   8.103  20.869  0.00  0.00    +0.000 HD
ENDBRANCH  16  17
BRANCH  16  20
ATOM     20  C   UNL     1       1.439   5.058  20.332  0.00  0.00    +0.000 C 
BRANCH  20  21
ATOM     21  C   UNL     1       1.893   3.843  21.150  0.00  0.00    +0.000 C 
BRANCH  21  22
ATOM     22  S   UNL     1       2.143   2.370  20.104  0.00  0.00    +0.000 S 
ATOM     23  C   UNL     1       0.946   2.746  18.803  0.00  0.00    +0.000 C 
ENDBRANCH  21  22
ENDBRANCH  20  21
ENDBRANCH  16  20
ENDBRANCH   4  16
TORSDOF 8
ENDMDL
MODEL 6
REMARK VINA RESULT:      -6.1      1.962      2.783
REMARK  Name = 
REMARK  10 active torsions:
REMARK  status: ('A' for Active; 'I' for Inactive)
REMARK    1  A    between atoms: C_1  and  C_2
REMARK    2  A    between atoms: C_2  and  C_3
REMARK    3  A    between atoms: C_7  and  O_8
REMARK    4  A    between atoms: O_8  and  C_9
REMARK    5  A    between atoms: C_12  and  C_14
REMARK    6  A    between atoms: C_14  and  N_15
REMARK    7  A    between atoms: C_14  and  C_16
REMARK    8  A    between atoms: C_16  and  C_17
REMARK    9  A    between atoms: C_17  and  S_18
REMARK   10  A    between atoms: S_18  and  C_19
REMARK                            x       y       z     vdW  Elec       q    Type
REMARK                         _______ _______ _______ _____ _____    ______ ____
ROOT
ATOM      1  C   UNL     1       7.087   4.528  14.827  0.00  0.00    +0.000 C 
ATOM      2  C   UNL     1       6.632   5.705  15.714  0.00  0.00    +0.000 C 
ATOM      3  N   UNL     1       5.874   4.727  16.472  0.00  0.00    +0.000 N 
ATOM      4  C   UNL     1       5.211   4.872  17.652  0.00  0.00    +0.000 C 
ATOM      5  O   UNL     1       5.315   5.899  18.324  0.00  0.00    +0.000 OA
ATOM      6  C   UNL     1       5.908   3.725  15.431  0.00  0.00    +0.000 C 
ENDROOT
BRANCH   1   7
ATOM      7  O   UNL     1       7.063   4.776  13.401  0.00  0.00    +0.000 OA
BRANCH   7  12
ATOM      8  C   UNL     1       4.618   2.911  11.311  0.00  0.00    +0.000 A 
ATOM      9  C   UNL     1       5.436   1.846  10.919  0.00  0.00    +0.000 A 
ATOM     10  C   UNL     1       6.758   1.781  11.355  0.00  0.00    +0.000 A 
ATOM     11  C   UNL     1       7.269   2.779  12.188  0.00  0.00    +0.000 A 
ATOM     12  C   UNL     1       6.465   3.849  12.579  0.00  0.00    +0.000 A 
ATOM     13  C   UNL     1       5.143   3.913  12.142  0.00  0.00    +0.000 A 
BRANCH   8  15
ATOM     14  C   UNL     1       2.944   3.999   9.815  0.00  0.00    +0.000 C 
ATOM     15  C   UNL     1       3.166   2.964  10.907  0.00  0.00    +0.000 C 
ENDBRANCH   8  15
ENDBRANCH   7  12
ENDBRANCH   1   7
BRANCH   4  16
ATOM     16  C   UNL     1       4.405   3.649  18.142  0.00  0.00    +0.000 C 
BRANCH  16  17
ATOM     17  N   UNL     1       5.197   2.942  19.175  0.00  0.00    +0.000 NA
ATOM     18  H   UNL     1       5.596   3.638  19.808  0.00  0.00    +0.000 HD
ATOM     19  H   UNL     1       5.990   2.481  18.732  0.00  0.00    +0.000 HD
ENDBRANCH  16  17
BRANCH  16  20
ATOM     20  C   UNL     1       3.065   4.084  18.762  0.00  0.00    +0.000 C 
BRANCH  20  21
ATOM     21  C   UNL     1       2.905   3.715  20.242  0.00  0.00    +0.000 C 
BRANCH  21  22
ATOM     22  S   UNL     1       1.300   2.918  20.577  0.00  0.00    +0.000 S 
ATOM     23  C   UNL     1       0.872   2.431  18.890  0.00  0.00    +0.000 C 
ENDBRANCH  21  22
ENDBRANCH  20  21
ENDBRANCH  16  20
ENDBRANCH   4  16
TORSDOF 8
ENDMDL
MODEL 7
REMARK VINA RESULT:      -6.1      2.498      6.918
REMARK  Name = 
REMARK  10 active torsions:
REMARK  status: ('A' for Active; 'I' for Inactive)
REMARK    1  A    between atoms: C_1  and  C_2
REMARK    2  A    between atoms: C_2  and  C_3
REMARK    3  A    between atoms: C_7  and  O_8
REMARK    4  A    between atoms: O_8  and  C_9
REMARK    5  A    between atoms: C_12  and  C_14
REMARK    6  A    between atoms: C_14  and  N_15
REMARK    7  A    between atoms: C_14  and  C_16
REMARK    8  A    between atoms: C_16  and  C_17
REMARK    9  A    between atoms: C_17  and  S_18
REMARK   10  A    between atoms: S_18  and  C_19
REMARK                            x       y       z     vdW  Elec       q    Type
REMARK                         _______ _______ _______ _____ _____    ______ ____
ROOT
ATOM      1  C   UNL     1       4.364   7.263  17.560  0.00  0.00    +0.000 C 
ATOM      2  C   UNL     1       5.172   6.024  17.996  0.00  0.00    +0.000 C 
ATOM      3  N   UNL     1       5.589   5.916  16.611  0.00  0.00    +0.000 N 
ATOM      4  C   UNL     1       6.529   5.106  16.052  0.00  0.00    +0.000 C 
ATOM      5  O   UNL     1       7.285   4.425  16.747  0.00  0.00    +0.000 OA
ATOM      6  C   UNL     1       4.526   6.753  16.105  0.00  0.00    +0.000 C 
ENDROOT
BRANCH   1   7
ATOM      7  O   UNL     1       3.019   7.349  18.089  0.00  0.00    +0.000 OA
BRANCH   7  12
ATOM      8  C   UNL     1       1.730   3.974  18.969  0.00  0.00    +0.000 A 
ATOM      9  C   UNL     1       1.438   4.198  20.319  0.00  0.00    +0.000 A 
ATOM     10  C   UNL     1       1.675   5.448  20.888  0.00  0.00    +0.000 A 
ATOM     11  C   UNL     1       2.204   6.482  20.111  0.00  0.00    +0.000 A 
ATOM     12  C   UNL     1       2.505   6.267  18.766  0.00  0.00    +0.000 A 
ATOM     13  C   UNL     1       2.268   5.017  18.198  0.00  0.00    +0.000 A 
BRANCH   8  15
ATOM     14  C   UNL     1       2.677   2.011  17.754  0.00  0.00    +0.000 C 
ATOM     15  C   UNL     1       1.416   2.651  18.317  0.00  0.00    +0.000 C 
ENDBRANCH   8  15
ENDBRANCH   7  12
ENDBRANCH   1   7
BRANCH   4  16
ATOM     16  C   UNL     1       6.658   5.162  14.514  0.00  0.00    +0.000 C 
BRANCH  16  17
ATOM     17  N   UNL     1       8.078   5.405  14.165  0.00  0.00    +0.000 NA
ATOM     18  H   UNL     1       8.487   4.523  13.848  0.00  0.00    +0.000 HD
ATOM     19  H   UNL     1       8.590   5.663  15.007  0.00  0.00    +0.000 HD
ENDBRANCH  16  17
BRANCH  16  20
ATOM     20  C   UNL     1       6.215   3.835  13.874  0.00  0.00    +0.000 C 
BRANCH  20  21
ATOM     21  C   UNL     1       6.604   3.684  12.399  0.00  0.00    +0.000 C 
BRANCH  21  22
ATOM     22  S   UNL     1       5.673   2.347  11.580  0.00  0.00    +0.000 S 
ATOM     23  C   UNL     1       4.110   3.217  11.317  0.00  0.00    +0.000 C 
ENDBRANCH  21  22
ENDBRANCH  20  21
ENDBRANCH  16  20
ENDBRANCH   4  16
TORSDOF 8
ENDMDL
MODEL 8
REMARK VINA RESULT:      -6.0      2.560      7.067
REMARK  Name = 
REMARK  10 active torsions:
REMARK  status: ('A' for Active; 'I' for Inactive)
REMARK    1  A    between atoms: C_1  and  C_2
REMARK    2  A    between atoms: C_2  and  C_3
REMARK    3  A    between atoms: C_7  and  O_8
REMARK    4  A    between atoms: O_8  and  C_9
REMARK    5  A    between atoms: C_12  and  C_14
REMARK    6  A    between atoms: C_14  and  N_15
REMARK    7  A    between atoms: C_14  and  C_16
REMARK    8  A    between atoms: C_16  and  C_17
REMARK    9  A    between atoms: C_17  and  S_18
REMARK   10  A    between atoms: S_18  and  C_19
REMARK                            x       y       z     vdW  Elec       q    Type
REMARK                         _______ _______ _______ _____ _____    ______ ____
ROOT
ATOM      1  C   UNL     1       4.649   6.913  17.854  0.00  0.00    +0.000 C 
ATOM      2  C   UNL     1       5.644   5.776  18.164  0.00  0.00    +0.000 C 
ATOM      3  N   UNL     1       5.912   5.740  16.739  0.00  0.00    +0.000 N 
ATOM      4  C   UNL     1       6.874   5.060  16.057  0.00  0.00    +0.000 C 
ATOM      5  O   UNL     1       7.780   4.467  16.645  0.00  0.00    +0.000 OA
ATOM      6  C   UNL     1       4.706   6.448  16.377  0.00  0.00    +0.000 C 
ENDROOT
BRANCH   1   7
ATOM      7  O   UNL     1       3.372   6.826  18.531  0.00  0.00    +0.000 OA
BRANCH   7  12
ATOM      8  C   UNL     1       2.391   3.585  20.068  0.00  0.00    +0.000 A 
ATOM      9  C   UNL     1       1.648   3.059  19.007  0.00  0.00    +0.000 A 
ATOM     10  C   UNL     1       1.497   3.786  17.828  0.00  0.00    +0.000 A 
ATOM     11  C   UNL     1       2.091   5.045  17.702  0.00  0.00    +0.000 A 
ATOM     12  C   UNL     1       2.828   5.583  18.757  0.00  0.00    +0.000 A 
ATOM     13  C   UNL     1       2.977   4.854  19.935  0.00  0.00    +0.000 A 
BRANCH   8  15
ATOM     14  C   UNL     1       1.318   2.550  22.068  0.00  0.00    +0.000 C 
ATOM     15  C   UNL     1       2.624   2.786  21.325  0.00  0.00    +0.000 C 
ENDBRANCH   8  15
ENDBRANCH   7  12
ENDBRANCH   1   7
BRANCH   4  16
ATOM     16  C   UNL     1       6.820   5.153  14.516  0.00  0.00    +0.000 C 
BRANCH  16  17
ATOM     17  N   UNL     1       8.153   5.571  14.019  0.00  0.00    +0.000 NA
ATOM     18  H   UNL     1       8.252   6.577  14.171  0.00  0.00    +0.000 HD
ATOM     19  H   UNL     1       8.192   5.436  13.011  0.00  0.00    +0.000 HD
ENDBRANCH  16  17
BRANCH  16  20
ATOM     20  C   UNL     1       6.467   3.792  13.892  0.00  0.00    +0.000 C 
BRANCH  20  21
ATOM     21  C   UNL     1       5.144   3.775  13.118  0.00  0.00    +0.000 C 
BRANCH  21  22
ATOM     22  S   UNL     1       5.242   2.740  11.620  0.00  0.00    +0.000 S 
ATOM     23  C   UNL     1       3.685   3.229  10.842  0.00  0.00    +0.000 C 
ENDBRANCH  21  22
ENDBRANCH  20  21
ENDBRANCH  16  20
ENDBRANCH   4  16
TORSDOF 8
ENDMDL
MODEL 9
REMARK VINA RESULT:      -6.0      3.295      7.788
REMARK  Name = 
REMARK  10 active torsions:
REMARK  status: ('A' for Active; 'I' for Inactive)
REMARK    1  A    between atoms: C_1  and  C_2
REMARK    2  A    between atoms: C_2  and  C_3
REMARK    3  A    between atoms: C_7  and  O_8
REMARK    4  A    between atoms: O_8  and  C_9
REMARK    5  A    between atoms: C_12  and  C_14
REMARK    6  A    between atoms: C_14  and  N_15
REMARK    7  A    between atoms: C_14  and  C_16
REMARK    8  A    between atoms: C_16  and  C_17
REMARK    9  A    between atoms: C_17  and  S_18
REMARK   10  A    between atoms: S_18  and  C_19
REMARK                            x       y       z     vdW  Elec       q    Type
REMARK                         _______ _______ _______ _____ _____    ______ ____
ROOT
ATOM      1  C   UNL     1       4.513   6.211  18.222  0.00  0.00    +0.000 C 
ATOM      2  C   UNL     1       5.629   5.152  18.337  0.00  0.00    +0.000 C 
ATOM      3  N   UNL     1       5.830   5.335  16.912  0.00  0.00    +0.000 N 
ATOM      4  C   UNL     1       6.818   4.855  16.109  0.00  0.00    +0.000 C 
ATOM      5  O   UNL     1       7.806   4.285  16.578  0.00  0.00    +0.000 OA
ATOM      6  C   UNL     1       4.543   5.956  16.694  0.00  0.00    +0.000 C 
ENDROOT
BRANCH   1   7
ATOM      7  O   UNL     1       3.286   5.903  18.924  0.00  0.00    +0.000 OA
BRANCH   7  12
ATOM      8  C   UNL     1       1.377   9.086  19.146  0.00  0.00    +0.000 A 
ATOM      9  C   UNL     1       0.879   8.950  20.447  0.00  0.00    +0.000 A 
ATOM     10  C   UNL     1       1.189   7.820  21.201  0.00  0.00    +0.000 A 
ATOM     11  C   UNL     1       2.001   6.819  20.660  0.00  0.00    +0.000 A 
ATOM     12  C   UNL     1       2.496   6.941  19.361  0.00  0.00    +0.000 A 
ATOM     13  C   UNL     1       2.184   8.071  18.609  0.00  0.00    +0.000 A 
BRANCH   8  15
ATOM     14  C   UNL     1      -0.283  10.873  18.621  0.00  0.00    +0.000 C 
ATOM     15  C   UNL     1       1.110  10.331  18.340  0.00  0.00    +0.000 C 
ENDBRANCH   8  15
ENDBRANCH   7  12
ENDBRANCH   1   7
BRANCH   4  16
ATOM     16  C   UNL     1       6.682   5.147  14.599  0.00  0.00    +0.000 C 
BRANCH  16  17
ATOM     17  N   UNL     1       8.028   5.424  14.045  0.00  0.00    +0.000 NA
ATOM     18  H   UNL     1       8.643   5.697  14.815  0.00  0.00    +0.000 HD
ATOM     19  H   UNL     1       7.977   6.233  13.428  0.00  0.00    +0.000 HD
ENDBRANCH  16  17
BRANCH  16  20
ATOM     20  C   UNL     1       6.082   3.941  13.855  0.00  0.00    +0.000 C 
BRANCH  20  21
ATOM     21  C   UNL     1       6.677   3.698  12.463  0.00  0.00    +0.000 C 
BRANCH  21  22
ATOM     22  S   UNL     1       5.809   2.365  11.572  0.00  0.00    +0.000 S 
ATOM     23  C   UNL     1       4.199   3.164  11.375  0.00  0.00    +0.000 C 
ENDBRANCH  21  22
ENDBRANCH  20  21
ENDBRANCH  16  20
ENDBRANCH   4  16
TORSDOF 8
ENDMDL
