MODEL 1
REMARK VINA RESULT:      -7.7      0.000      0.000
REMARK  Name = 
REMARK  12 active torsions:
REMARK  status: ('A' for Active; 'I' for Inactive)
REMARK    1  A    between atoms: C_1  and  C_2
REMARK    2  A    between atoms: C_2  and  C_3
REMARK    3  A    between atoms: C_4  and  C_5
REMARK    4  A    between atoms: C_5  and  C_6
REMARK    5  A    between atoms: C_5  and  C_7
REMARK    6  A    between atoms: C_9  and  C_10
REMARK    7  A    between atoms: C_10  and  C_11
REMARK    8  A    between atoms: C_12  and  C_13
REMARK    9  A    between atoms: C_14  and  C_15
REMARK   10  A    between atoms: C_15  and  C_16
REMARK   11  A    between atoms: C_17  and  C_18
REMARK   12  A    between atoms: C_18  and  O_20
REMARK                            x       y       z     vdW  Elec       q    Type
REMARK                         _______ _______ _______ _____ _____    ______ ____
ROOT
ATOM      1  C   UNL     1       2.322   4.820  19.018  0.00  0.00    +0.000 C 
ATOM      2  C   UNL     1       3.272   4.122  18.323  0.00  0.00    +0.000 C 
ATOM      3  C   UNL     1       4.425   4.867  17.682  0.00  0.00    +0.000 C 
ATOM      4  C   UNL     1       5.410   4.269  16.974  0.00  0.00    +0.000 C 
ATOM      5  C   UNL     1       4.475   6.360  17.980  0.00  0.00    +0.000 C 
ATOM      6  C   UNL     1       3.092   6.985  17.981  0.00  0.00    +0.000 C 
ATOM      7  C   UNL     1       2.258   6.333  19.062  0.00  0.00    +0.000 C 
ENDROOT
BRANCH   2   8
ATOM      8  C   UNL     1       3.156   2.577  18.234  0.00  0.00    +0.000 C 
ATOM      9  C   UNL     1       3.937   1.808  19.307  0.00  0.00    +0.000 C 
ATOM     10  C   UNL     1       1.739   2.020  18.053  0.00  0.00    +0.000 C 
ENDBRANCH   2   8
BRANCH   4  11
ATOM     11  C   UNL     1       6.683   4.782  16.449  0.00  0.00    +0.000 C 
ATOM     12  C   UNL     1       7.715   5.366  17.383  0.00  0.00    +0.000 C 
ATOM     13  C   UNL     1       6.912   4.870  15.115  0.00  0.00    +0.000 C 
BRANCH  13  14
ATOM     14  C   UNL     1       6.026   4.379  14.076  0.00  0.00    +0.000 C 
ATOM     15  C   UNL     1       6.388   3.577  13.061  0.00  0.00    +0.000 C 
BRANCH  15  16
ATOM     16  C   UNL     1       5.492   3.049  12.023  0.00  0.00    +0.000 C 
ATOM     17  C   UNL     1       5.829   1.759  11.312  0.00  0.00    +0.000 C 
ATOM     18  C   UNL     1       4.374   3.740  11.705  0.00  0.00    +0.000 C 
BRANCH  18  19
ATOM     19  C   UNL     1       3.389   3.305  10.682  0.00  0.00    +0.000 C 
ATOM     20  O   UNL     1       2.708   2.300  10.727  0.00  0.00    +0.000 OA
BRANCH  19  21
ATOM     21  O   UNL     1       3.327   4.178   9.649  0.00  0.00    +0.000 OA
ATOM     22  H   UNL     1       2.509   4.706   9.597  0.00  0.00    +0.000 HD
ENDBRANCH  19  21
ENDBRANCH  18  19
ENDBRANCH  15  16
ENDBRANCH  13  14
ENDBRANCH   4  11
BRANCH   1  24
ATOM     23  C   UNL     1       1.688   3.856  21.294  0.00  0.00    +0.000 C 
ATOM     24  C   UNL     1       1.226   4.204  19.885  0.00  0.00    +0.000 C 
ENDBRANCH   1  24
TORSDOF 7
ENDMDL
MODEL 2
REMARK VINA RESULT:      -7.5      1.249      1.920
REMARK  Name = 
REMARK  12 active torsions:
REMARK  status: ('A' for Active; 'I' for Inactive)
REMARK    1  A    between atoms: C_1  and  C_2
REMARK    2  A    between atoms: C_2  and  C_3
REMARK    3  A    between atoms: C_4  and  C_5
REMARK    4  A    between atoms: C_5  and  C_6
REMARK    5  A    between atoms: C_5  and  C_7
REMARK    6  A    between atoms: C_9  and  C_10
REMARK    7  A    between atoms: C_10  and  C_11
REMARK    8  A    between atoms: C_12  and  C_13
REMARK    9  A    between atoms: C_14  and  C_15
REMARK   10  A    between atoms: C_15  and  C_16
REMARK   11  A    between atoms: C_17  and  C_18
REMARK   12  A    between atoms: C_18  and  O_20
REMARK                            x       y       z     vdW  Elec       q    Type
REMARK                         _______ _______ _______ _____ _____    ______ ____
ROOT
ATOM      1  C   UNL     1       2.118   4.330  19.222  0.00  0.00    +0.000 C 
ATOM      2  C   UNL     1       3.378   3.848  18.990  0.00  0.00    +0.000 C 
ATOM      3  C   UNL     1       4.481   4.805  18.585  0.00  0.00    +0.000 C 
ATOM      4  C   UNL     1       5.754   4.426  18.332  0.00  0.00    +0.000 C 
ATOM      5  C   UNL     1       4.090   6.277  18.585  0.00  0.00    +0.000 C 
ATOM      6  C   UNL     1       2.684   6.491  18.055  0.00  0.00    +0.000 C 
ATOM      7  C   UNL     1       1.705   5.761  18.947  0.00  0.00    +0.000 C 
ENDROOT
BRANCH   2   8
ATOM      8  C   UNL     1       3.649   2.331  19.177  0.00  0.00    +0.000 C 
ATOM      9  C   UNL     1       3.892   1.554  17.876  0.00  0.00    +0.000 C 
ATOM     10  C   UNL     1       4.668   1.960  20.260  0.00  0.00    +0.000 C 
ENDBRANCH   2   8
BRANCH   4  11
ATOM     11  C   UNL     1       6.979   5.208  18.117  0.00  0.00    +0.000 C 
ATOM     12  C   UNL     1       7.721   5.806  19.289  0.00  0.00    +0.000 C 
ATOM     13  C   UNL     1       7.402   5.528  16.869  0.00  0.00    +0.000 C 
BRANCH  13  14
ATOM     14  C   UNL     1       6.803   5.060  15.633  0.00  0.00    +0.000 C 
ATOM     15  C   UNL     1       7.455   4.877  14.474  0.00  0.00    +0.000 C 
BRANCH  15  16
ATOM     16  C   UNL     1       6.864   4.373  13.226  0.00  0.00    +0.000 C 
ATOM     17  C   UNL     1       7.332   4.908  11.893  0.00  0.00    +0.000 C 
ATOM     18  C   UNL     1       5.888   3.438  13.291  0.00  0.00    +0.000 C 
BRANCH  18  19
ATOM     19  C   UNL     1       5.222   2.847  12.103  0.00  0.00    +0.000 C 
ATOM     20  O   UNL     1       5.574   1.847  11.508  0.00  0.00    +0.000 OA
BRANCH  19  21
ATOM     21  O   UNL     1       4.138   3.568  11.732  0.00  0.00    +0.000 OA
ATOM     22  H   UNL     1       3.510   3.106  11.146  0.00  0.00    +0.000 HD
ENDBRANCH  19  21
ENDBRANCH  18  19
ENDBRANCH  15  16
ENDBRANCH  13  14
ENDBRANCH   4  11
BRANCH   1  24
ATOM     23  C   UNL     1       1.231   3.064  21.252  0.00  0.00    +0.000 C 
ATOM     24  C   UNL     1       0.963   3.537  19.829  0.00  0.00    +0.000 C 
ENDBRANCH   1  24
TORSDOF 7
ENDMDL
MODEL 3
REMARK VINA RESULT:      -7.4      1.345      1.981
REMARK  Name = 
REMARK  12 active torsions:
REMARK  status: ('A' for Active; 'I' for Inactive)
REMARK    1  A    between atoms: C_1  and  C_2
REMARK    2  A    between atoms: C_2  and  C_3
REMARK    3  A    between atoms: C_4  and  C_5
REMARK    4  A    between atoms: C_5  and  C_6
REMARK    5  A    between atoms: C_5  and  C_7
REMARK    6  A    between atoms: C_9  and  C_10
REMARK    7  A    between atoms: C_10  and  C_11
REMARK    8  A    between atoms: C_12  and  C_13
REMARK    9  A    between atoms: C_14  and  C_15
REMARK   10  A    between atoms: C_15  and  C_16
REMARK   11  A    between atoms: C_17  and  C_18
REMARK   12  A    between atoms: C_18  and  O_20
REMARK                            x       y       z     vdW  Elec       q    Type
REMARK                         _______ _______ _______ _____ _____    ______ ____
ROOT
ATOM      1  C   UNL     1       2.540   4.095  19.340  0.00  0.00    +0.000 C 
ATOM      2  C   UNL     1       3.832   3.789  19.010  0.00  0.00    +0.000 C 
ATOM      3  C   UNL     1       4.760   4.886  18.528  0.00  0.00    +0.000 C 
ATOM      4  C   UNL     1       6.049   4.685  18.177  0.00  0.00    +0.000 C 
ATOM      5  C   UNL     1       4.171   6.291  18.566  0.00  0.00    +0.000 C 
ATOM      6  C   UNL     1       2.713   6.308  18.145  0.00  0.00    +0.000 C 
ATOM      7  C   UNL     1       1.914   5.454  19.105  0.00  0.00    +0.000 C 
ENDROOT
BRANCH   2   8
ATOM      8  C   UNL     1       4.323   2.325  19.166  0.00  0.00    +0.000 C 
ATOM      9  C   UNL     1       4.485   1.850  20.616  0.00  0.00    +0.000 C 
ATOM     10  C   UNL     1       3.605   1.282  18.302  0.00  0.00    +0.000 C 
ENDBRANCH   2   8
BRANCH   4  11
ATOM     11  C   UNL     1       7.135   5.627  17.874  0.00  0.00    +0.000 C 
ATOM     12  C   UNL     1       7.863   6.340  18.988  0.00  0.00    +0.000 C 
ATOM     13  C   UNL     1       7.425   5.983  16.597  0.00  0.00    +0.000 C 
BRANCH  13  14
ATOM     14  C   UNL     1       6.816   5.418  15.408  0.00  0.00    +0.000 C 
ATOM     15  C   UNL     1       7.475   5.049  14.298  0.00  0.00    +0.000 C 
BRANCH  15  16
ATOM     16  C   UNL     1       6.871   4.446  13.101  0.00  0.00    +0.000 C 
ATOM     17  C   UNL     1       7.347   4.848  11.725  0.00  0.00    +0.000 C 
ATOM     18  C   UNL     1       5.877   3.540  13.251  0.00  0.00    +0.000 C 
BRANCH  18  19
ATOM     19  C   UNL     1       5.197   2.857  12.122  0.00  0.00    +0.000 C 
ATOM     20  O   UNL     1       4.181   3.229  11.568  0.00  0.00    +0.000 OA
BRANCH  19  21
ATOM     21  O   UNL     1       5.849   1.728  11.759  0.00  0.00    +0.000 OA
ATOM     22  H   UNL     1       6.440   1.816  10.988  0.00  0.00    +0.000 HD
ENDBRANCH  19  21
ENDBRANCH  18  19
ENDBRANCH  15  16
ENDBRANCH  13  14
ENDBRANCH   4  11
BRANCH   1  24
ATOM     23  C   UNL     1       0.485   2.602  19.094  0.00  0.00    +0.000 C 
ATOM     24  C   UNL     1       1.554   3.153  20.028  0.00  0.00    +0.000 C 
ENDBRANCH   1  24
TORSDOF 7
ENDMDL
MODEL 4
REMARK VINA RESULT:      -7.3      3.764      7.090
REMARK  Name = 
REMARK  12 active torsions:
REMARK  status: ('A' for Active; 'I' for Inactive)
REMARK    1  A    between atoms: C_1  and  C_2
REMARK    2  A    between atoms: C_2  and  C_3
REMARK    3  A    between atoms: C_4  and  C_5
REMARK    4  A    between atoms: C_5  and  C_6
REMARK    5  A    between atoms: C_5  and  C_7
REMARK    6  A    between atoms: C_9  and  C_10
REMARK    7  A    between atoms: C_10  and  C_11
REMARK    8  A    between atoms: C_12  and  C_13
REMARK    9  A    between atoms: C_14  and  C_15
REMARK   10  A    between atoms: C_15  and  C_16
REMARK   11  A    between atoms: C_17  and  C_18
REMARK   12  A    between atoms: C_18  and  O_20
REMARK                            x       y       z     vdW  Elec       q    Type
REMARK                         _______ _______ _______ _____ _____    ______ ____
ROOT
ATOM      1  C   UNL     1       7.274   6.623  17.735  0.00  0.00    +0.000 C 
ATOM      2  C   UNL     1       6.292   5.902  17.112  0.00  0.00    +0.000 C 
ATOM      3  C   UNL     1       5.467   4.915  17.914  0.00  0.00    +0.000 C 
ATOM      4  C   UNL     1       4.478   4.157  17.391  0.00  0.00    +0.000 C 
ATOM      5  C   UNL     1       5.751   4.904  19.411  0.00  0.00    +0.000 C 
ATOM      6  C   UNL     1       7.230   5.057  19.709  0.00  0.00    +0.000 C 
ATOM      7  C   UNL     1       7.708   6.386  19.166  0.00  0.00    +0.000 C 
ENDROOT
BRANCH   2   8
ATOM      8  C   UNL     1       6.029   6.137  15.600  0.00  0.00    +0.000 C 
ATOM      9  C   UNL     1       6.239   4.906  14.709  0.00  0.00    +0.000 C 
ATOM     10  C   UNL     1       4.732   6.876  15.252  0.00  0.00    +0.000 C 
ENDBRANCH   2   8
BRANCH   4  11
ATOM     11  C   UNL     1       3.465   3.303  18.026  0.00  0.00    +0.000 C 
ATOM     12  C   UNL     1       3.662   1.809  18.103  0.00  0.00    +0.000 C 
ATOM     13  C   UNL     1       2.275   3.808  18.437  0.00  0.00    +0.000 C 
BRANCH  13  14
ATOM     14  C   UNL     1       1.906   5.212  18.421  0.00  0.00    +0.000 C 
ATOM     15  C   UNL     1       2.289   6.126  19.326  0.00  0.00    +0.000 C 
BRANCH  15  16
ATOM     16  C   UNL     1       1.947   7.555  19.300  0.00  0.00    +0.000 C 
ATOM     17  C   UNL     1       1.543   8.263  20.573  0.00  0.00    +0.000 C 
ATOM     18  C   UNL     1       1.985   8.220  18.123  0.00  0.00    +0.000 C 
BRANCH  18  19
ATOM     19  C   UNL     1       1.670   9.663  17.972  0.00  0.00    +0.000 C 
ATOM     20  O   UNL     1       2.452  10.584  18.102  0.00  0.00    +0.000 OA
BRANCH  19  21
ATOM     21  O   UNL     1       0.366   9.857  17.664  0.00  0.00    +0.000 OA
ATOM     22  H   UNL     1       0.052  10.777  17.735  0.00  0.00    +0.000 HD
ENDBRANCH  19  21
ENDBRANCH  18  19
ENDBRANCH  15  16
ENDBRANCH  13  14
ENDBRANCH   4  11
BRANCH   1  24
ATOM     23  C   UNL     1       8.101   9.020  18.014  0.00  0.00    +0.000 C 
ATOM     24  C   UNL     1       8.043   7.790  17.119  0.00  0.00    +0.000 C 
ENDBRANCH   1  24
TORSDOF 7
ENDMDL
MODEL 5
REMARK VINA RESULT:      -7.2      4.312      7.675
REMARK  Name = 
REMARK  12 active torsions:
REMARK  status: ('A' for Active; 'I' for Inactive)
REMARK    1  A    between atoms: C_1  and  C_2
REMARK    2  A    between atoms: C_2  and  C_3
REMARK    3  A    between atoms: C_4  and  C_5
REMARK    4  A    between atoms: C_5  and  C_6
REMARK    5  A    between atoms: C_5  and  C_7
REMARK    6  A    between atoms: C_9  and  C_10
REMARK    7  A    between atoms: C_10  and  C_11
REMARK    8  A    between atoms: C_12  and  C_13
REMARK    9  A    between atoms: C_14  and  C_15
REMARK   10  A    between atoms: C_15  and  C_16
REMARK   11  A    between atoms: C_17  and  C_18
REMARK   12  A    between atoms: C_18  and  O_20
REMARK                            x       y       z     vdW  Elec       q    Type
REMARK                         _______ _______ _______ _____ _____    ______ ____
ROOT
ATOM      1  C   UNL     1       7.170   6.567  17.682  0.00  0.00    +0.000 C 
ATOM      2  C   UNL     1       6.171   5.827  17.107  0.00  0.00    +0.000 C 
ATOM      3  C   UNL     1       5.425   4.805  17.940  0.00  0.00    +0.000 C 
ATOM      4  C   UNL     1       4.428   4.026  17.464  0.00  0.00    +0.000 C 
ATOM      5  C   UNL     1       5.799   4.779  19.416  0.00  0.00    +0.000 C 
ATOM      6  C   UNL     1       7.289   4.970  19.628  0.00  0.00    +0.000 C 
ATOM      7  C   UNL     1       7.696   6.320  19.080  0.00  0.00    +0.000 C 
ENDROOT
BRANCH   2   8
ATOM      8  C   UNL     1       5.811   6.079  15.618  0.00  0.00    +0.000 C 
ATOM      9  C   UNL     1       5.787   4.822  14.739  0.00  0.00    +0.000 C 
ATOM     10  C   UNL     1       4.593   6.973  15.365  0.00  0.00    +0.000 C 
ENDBRANCH   2   8
BRANCH   4  11
ATOM     11  C   UNL     1       3.479   3.134  18.144  0.00  0.00    +0.000 C 
ATOM     12  C   UNL     1       3.682   1.638  18.118  0.00  0.00    +0.000 C 
ATOM     13  C   UNL     1       2.334   3.610  18.695  0.00  0.00    +0.000 C 
BRANCH  13  14
ATOM     14  C   UNL     1       1.967   5.010  18.794  0.00  0.00    +0.000 C 
ATOM     15  C   UNL     1       2.241   5.814  19.833  0.00  0.00    +0.000 C 
BRANCH  15  16
ATOM     16  C   UNL     1       1.901   7.242  19.927  0.00  0.00    +0.000 C 
ATOM     17  C   UNL     1       2.237   8.179  18.791  0.00  0.00    +0.000 C 
ATOM     18  C   UNL     1       1.299   7.702  21.048  0.00  0.00    +0.000 C 
BRANCH  18  19
ATOM     19  C   UNL     1       0.900   9.117  21.256  0.00  0.00    +0.000 C 
ATOM     20  O   UNL     1       0.037   9.715  20.644  0.00  0.00    +0.000 OA
BRANCH  19  21
ATOM     21  O   UNL     1       1.629   9.699  22.238  0.00  0.00    +0.000 OA
ATOM     22  H   UNL     1       2.557   9.893  22.010  0.00  0.00    +0.000 HD
ENDBRANCH  19  21
ENDBRANCH  18  19
ENDBRANCH  15  16
ENDBRANCH  13  14
ENDBRANCH   4  11
BRANCH   1  24
ATOM     23  C   UNL     1       8.211   8.869  18.032  0.00  0.00    +0.000 C 
ATOM     24  C   UNL     1       7.867   7.765  17.041  0.00  0.00    +0.000 C 
ENDBRANCH   1  24
TORSDOF 7
ENDMDL
MODEL 6
REMARK VINA RESULT:      -7.1      1.167      1.637
REMARK  Name = 
REMARK  12 active torsions:
REMARK  status: ('A' for Active; 'I' for Inactive)
REMARK    1  A    between atoms: C_1  and  C_2
REMARK    2  A    between atoms: C_2  and  C_3
REMARK    3  A    between atoms: C_4  and  C_5
REMARK    4  A    between atoms: C_5  and  C_6
REMARK    5  A    between atoms: C_5  and  C_7
REMARK    6  A    between atoms: C_9  and  C_10
REMARK    7  A    between atoms: C_10  and  C_11
REMARK    8  A    between atoms: C_12  and  C_13
REMARK    9  A    between atoms: C_14  and  C_15
REMARK   10  A    between atoms: C_15  and  C_16
REMARK   11  A    between atoms: C_17  and  C_18
REMARK   12  A    between atoms: C_18  and  O_20
REMARK                            x       y       z     vdW  Elec       q    Type
REMARK                         _______ _______ _______ _____ _____    ______ ____
ROOT
ATOM      1  C   UNL     1       2.020   4.163  19.803  0.00  0.00    +0.000 C 
ATOM      2  C   UNL     1       3.046   3.720  19.013  0.00  0.00    +0.000 C 
ATOM      3  C   UNL     1       4.204   4.646  18.704  0.00  0.00    +0.000 C 
ATOM      4  C   UNL     1       5.261   4.303  17.934  0.00  0.00    +0.000 C 
ATOM      5  C   UNL     1       4.163   5.991  19.419  0.00  0.00    +0.000 C 
ATOM      6  C   UNL     1       2.756   6.553  19.491  0.00  0.00    +0.000 C 
ATOM      7  C   UNL     1       1.882   5.597  20.272  0.00  0.00    +0.000 C 
ENDROOT
BRANCH   2   8
ATOM      8  C   UNL     1       3.008   2.263  18.478  0.00  0.00    +0.000 C 
ATOM      9  C   UNL     1       2.802   2.138  16.963  0.00  0.00    +0.000 C 
ATOM     10  C   UNL     1       4.119   1.335  18.980  0.00  0.00    +0.000 C 
ENDBRANCH   2   8
BRANCH   4  11
ATOM     11  C   UNL     1       6.541   4.977  17.679  0.00  0.00    +0.000 C 
ATOM     12  C   UNL     1       7.244   5.728  18.785  0.00  0.00    +0.000 C 
ATOM     13  C   UNL     1       7.058   5.060  16.428  0.00  0.00    +0.000 C 
BRANCH  13  14
ATOM     14  C   UNL     1       6.510   4.418  15.248  0.00  0.00    +0.000 C 
ATOM     15  C   UNL     1       6.943   4.603  13.991  0.00  0.00    +0.000 C 
BRANCH  15  16
ATOM     16  C   UNL     1       6.414   3.933  12.793  0.00  0.00    +0.000 C 
ATOM     17  C   UNL     1       7.353   3.488  11.695  0.00  0.00    +0.000 C 
ATOM     18  C   UNL     1       5.081   3.736  12.685  0.00  0.00    +0.000 C 
BRANCH  18  19
ATOM     19  C   UNL     1       4.431   3.065  11.530  0.00  0.00    +0.000 C 
ATOM     20  O   UNL     1       3.535   3.522  10.848  0.00  0.00    +0.000 OA
BRANCH  19  21
ATOM     21  O   UNL     1       4.958   1.838  11.308  0.00  0.00    +0.000 OA
ATOM     22  H   UNL     1       5.863   1.832  10.944  0.00  0.00    +0.000 HD
ENDBRANCH  19  21
ENDBRANCH  18  19
ENDBRANCH  15  16
ENDBRANCH  13  14
ENDBRANCH   4  11
BRANCH   1  24
ATOM     23  C   UNL     1       1.254   2.622  21.686  0.00  0.00    +0.000 C 
ATOM     24  C   UNL     1       0.897   3.296  20.368  0.00  0.00    +0.000 C 
ENDBRANCH   1  24
TORSDOF 7
ENDMDL
MODEL 7
REMARK VINA RESULT:      -7.1      0.695      1.193
REMARK  Name = 
REMARK  12 active torsions:
REMARK  status: ('A' for Active; 'I' for Inactive)
REMARK    1  A    between atoms: C_1  and  C_2
REMARK    2  A    between atoms: C_2  and  C_3
REMARK    3  A    between atoms: C_4  and  C_5
REMARK    4  A    between atoms: C_5  and  C_6
REMARK    5  A    between atoms: C_5  and  C_7
REMARK    6  A    between atoms: C_9  and  C_10
REMARK    7  A    between atoms: C_10  and  C_11
REMARK    8  A    between atoms: C_12  and  C_13
REMARK    9  A    between atoms: C_14  and  C_15
REMARK   10  A    between atoms: C_15  and  C_16
REMARK   11  A    between atoms: C_17  and  C_18
REMARK   12  A    between atoms: C_18  and  O_20
REMARK                            x       y       z     vdW  Elec       q    Type
REMARK                         _______ _______ _______ _____ _____    ______ ____
ROOT
ATOM      1  C   UNL     1       2.394   5.522  18.715  0.00  0.00    +0.000 C 
ATOM      2  C   UNL     1       3.294   4.588  18.277  0.00  0.00    +0.000 C 
ATOM      3  C   UNL     1       4.540   5.039  17.543  0.00  0.00    +0.000 C 
ATOM      4  C   UNL     1       5.484   4.196  17.070  0.00  0.00    +0.000 C 
ATOM      5  C   UNL     1       4.729   6.548  17.458  0.00  0.00    +0.000 C 
ATOM      6  C   UNL     1       3.417   7.272  17.217  0.00  0.00    +0.000 C 
ATOM      7  C   UNL     1       2.482   6.995  18.374  0.00  0.00    +0.000 C 
ENDROOT
BRANCH   2   8
ATOM      8  C   UNL     1       3.025   3.088  18.573  0.00  0.00    +0.000 C 
ATOM      9  C   UNL     1       2.701   2.236  17.339  0.00  0.00    +0.000 C 
ATOM     10  C   UNL     1       4.034   2.395  19.495  0.00  0.00    +0.000 C 
ENDBRANCH   2   8
BRANCH   4  11
ATOM     11  C   UNL     1       6.821   4.442  16.513  0.00  0.00    +0.000 C 
ATOM     12  C   UNL     1       7.944   4.921  17.402  0.00  0.00    +0.000 C 
ATOM     13  C   UNL     1       7.052   4.379  15.178  0.00  0.00    +0.000 C 
BRANCH  13  14
ATOM     14  C   UNL     1       6.090   3.957  14.177  0.00  0.00    +0.000 C 
ATOM     15  C   UNL     1       6.389   3.554  12.932  0.00  0.00    +0.000 C 
BRANCH  15  16
ATOM     16  C   UNL     1       5.423   3.095  11.923  0.00  0.00    +0.000 C 
ATOM     17  C   UNL     1       5.581   1.735  11.284  0.00  0.00    +0.000 C 
ATOM     18  C   UNL     1       4.406   3.912  11.567  0.00  0.00    +0.000 C 
BRANCH  18  19
ATOM     19  C   UNL     1       3.365   3.557  10.569  0.00  0.00    +0.000 C 
ATOM     20  O   UNL     1       3.087   4.190   9.569  0.00  0.00    +0.000 OA
BRANCH  19  21
ATOM     21  O   UNL     1       2.728   2.410  10.902  0.00  0.00    +0.000 OA
ATOM     22  H   UNL     1       2.844   1.671  10.276  0.00  0.00    +0.000 HD
ENDBRANCH  19  21
ENDBRANCH  18  19
ENDBRANCH  15  16
ENDBRANCH  13  14
ENDBRANCH   4  11
BRANCH   1  24
ATOM     23  C   UNL     1       1.394   5.802  21.046  0.00  0.00    +0.000 C 
ATOM     24  C   UNL     1       1.210   5.248  19.639  0.00  0.00    +0.000 C 
ENDBRANCH   1  24
TORSDOF 7
ENDMDL
MODEL 8
REMARK VINA RESULT:      -6.6      1.488      1.946
REMARK  Name = 
REMARK  12 active torsions:
REMARK  status: ('A' for Active; 'I' for Inactive)
REMARK    1  A    between atoms: C_1  and  C_2
REMARK    2  A    between atoms: C_2  and  C_3
REMARK    3  A    between atoms: C_4  and  C_5
REMARK    4  A    between atoms: C_5  and  C_6
REMARK    5  A    between atoms: C_5  and  C_7
REMARK    6  A    between atoms: C_9  and  C_10
REMARK    7  A    between atoms: C_10  and  C_11
REMARK    8  A    between atoms: C_12  and  C_13
REMARK    9  A    between atoms: C_14  and  C_15
REMARK   10  A    between atoms: C_15  and  C_16
REMARK   11  A    between atoms: C_17  and  C_18
REMARK   12  A    between atoms: C_18  and  O_20
REMARK                            x       y       z     vdW  Elec       q    Type
REMARK                         _______ _______ _______ _____ _____    ______ ____
ROOT
ATOM      1  C   UNL     1       2.088   4.362  19.444  0.00  0.00    +0.000 C 
ATOM      2  C   UNL     1       2.974   3.985  18.471  0.00  0.00    +0.000 C 
ATOM      3  C   UNL     1       4.064   4.945  18.042  0.00  0.00    +0.000 C 
ATOM      4  C   UNL     1       4.983   4.668  17.090  0.00  0.00    +0.000 C 
ATOM      5  C   UNL     1       4.136   6.240  18.842  0.00  0.00    +0.000 C 
ATOM      6  C   UNL     1       2.758   6.777  19.178  0.00  0.00    +0.000 C 
ATOM      7  C   UNL     1       2.024   5.760  20.024  0.00  0.00    +0.000 C 
ENDROOT
BRANCH   2   8
ATOM      8  C   UNL     1       2.853   2.567  17.853  0.00  0.00    +0.000 C 
ATOM      9  C   UNL     1       2.893   2.525  16.320  0.00  0.00    +0.000 C 
ATOM     10  C   UNL     1       3.746   1.486  18.474  0.00  0.00    +0.000 C 
ENDBRANCH   2   8
BRANCH   4  11
ATOM     11  C   UNL     1       6.203   5.375  16.678  0.00  0.00    +0.000 C 
ATOM     12  C   UNL     1       6.748   6.510  17.510  0.00  0.00    +0.000 C 
ATOM     13  C   UNL     1       6.795   5.123  15.484  0.00  0.00    +0.000 C 
BRANCH  13  14
ATOM     14  C   UNL     1       6.397   4.085  14.550  0.00  0.00    +0.000 C 
ATOM     15  C   UNL     1       6.142   4.269  13.245  0.00  0.00    +0.000 C 
BRANCH  15  16
ATOM     16  C   UNL     1       5.770   3.219  12.287  0.00  0.00    +0.000 C 
ATOM     17  C   UNL     1       4.411   3.240  11.626  0.00  0.00    +0.000 C 
ATOM     18  C   UNL     1       6.653   2.230  12.018  0.00  0.00    +0.000 C 
BRANCH  18  19
ATOM     19  C   UNL     1       6.396   1.122  11.064  0.00  0.00    +0.000 C 
ATOM     20  O   UNL     1       5.878   0.055  11.329  0.00  0.00    +0.000 OA
BRANCH  19  21
ATOM     21  O   UNL     1       6.819   1.433   9.816  0.00  0.00    +0.000 OA
ATOM     22  H   UNL     1       6.353   2.177   9.391  0.00  0.00    +0.000 HD
ENDBRANCH  19  21
ENDBRANCH  18  19
ENDBRANCH  15  16
ENDBRANCH  13  14
ENDBRANCH   4  11
BRANCH   1  24
ATOM     23  C   UNL     1       1.534   2.930  21.481  0.00  0.00    +0.000 C 
ATOM     24  C   UNL     1       1.074   3.444  20.124  0.00  0.00    +0.000 C 
ENDBRANCH   1  24
TORSDOF 7
ENDMDL
MODEL 9
REMARK VINA RESULT:      -6.5      1.518      3.224
REMARK  Name = 
REMARK  12 active torsions:
REMARK  status: ('A' for Active; 'I' for Inactive)
REMARK    1  A    between atoms: C_1  and  C_2
REMARK    2  A    between atoms: C_2  and  C_3
REMARK    3  A    between atoms: C_4  and  C_5
REMARK    4  A    between atoms: C_5  and  C_6
REMARK    5  A    between atoms: C_5  and  C_7
REMARK    6  A    between atoms: C_9  and  C_10
REMARK    7  A    between atoms: C_10  and  C_11
REMARK    8  A    between atoms: C_12  and  C_13
REMARK    9  A    between atoms: C_14  and  C_15
REMARK   10  A    between atoms: C_15  and  C_16
REMARK   11  A    between atoms: C_17  and  C_18
REMARK   12  A    between atoms: C_18  and  O_20
REMARK                            x       y       z     vdW  Elec       q    Type
REMARK                         _______ _______ _______ _____ _____    ______ ____
ROOT
ATOM      1  C   UNL     1       2.412   3.708  18.602  0.00  0.00    +0.000 C 
ATOM      2  C   UNL     1       3.283   4.761  18.531  0.00  0.00    +0.000 C 
ATOM      3  C   UNL     1       4.769   4.513  18.696  0.00  0.00    +0.000 C 
ATOM      4  C   UNL     1       5.707   5.485  18.645  0.00  0.00    +0.000 C 
ATOM      5  C   UNL     1       5.169   3.048  18.818  0.00  0.00    +0.000 C 
ATOM      6  C   UNL     1       4.183   2.259  19.658  0.00  0.00    +0.000 C 
ATOM      7  C   UNL     1       2.824   2.305  18.996  0.00  0.00    +0.000 C 
ENDROOT
BRANCH   2   8
ATOM      8  C   UNL     1       2.725   6.183  18.254  0.00  0.00    +0.000 C 
ATOM      9  C   UNL     1       2.322   6.973  19.506  0.00  0.00    +0.000 C 
ATOM     10  C   UNL     1       3.532   7.041  17.274  0.00  0.00    +0.000 C 
ENDBRANCH   2   8
BRANCH   4  11
ATOM     11  C   UNL     1       7.174   5.423  18.593  0.00  0.00    +0.000 C 
ATOM     12  C   UNL     1       7.999   5.816  19.795  0.00  0.00    +0.000 C 
ATOM     13  C   UNL     1       7.828   5.143  17.438  0.00  0.00    +0.000 C 
BRANCH  13  14
ATOM     14  C   UNL     1       7.199   4.763  16.187  0.00  0.00    +0.000 C 
ATOM     15  C   UNL     1       7.670   5.047  14.962  0.00  0.00    +0.000 C 
BRANCH  15  16
ATOM     16  C   UNL     1       7.057   4.639  13.690  0.00  0.00    +0.000 C 
ATOM     17  C   UNL     1       7.509   5.267  12.392  0.00  0.00    +0.000 C 
ATOM     18  C   UNL     1       6.076   3.707  13.702  0.00  0.00    +0.000 C 
BRANCH  18  19
ATOM     19  C   UNL     1       5.389   3.208  12.484  0.00  0.00    +0.000 C 
ATOM     20  O   UNL     1       4.355   3.643  12.016  0.00  0.00    +0.000 OA
BRANCH  19  21
ATOM     21  O   UNL     1       6.058   2.172  11.925  0.00  0.00    +0.000 OA
ATOM     22  H   UNL     1       6.705   2.415  11.237  0.00  0.00    +0.000 HD
ENDBRANCH  19  21
ENDBRANCH  18  19
ENDBRANCH  15  16
ENDBRANCH  13  14
ENDBRANCH   4  11
BRANCH   1  24
ATOM     23  C   UNL     1       0.119   2.618  18.855  0.00  0.00    +0.000 C 
ATOM     24  C   UNL     1       0.926   3.762  18.255  0.00  0.00    +0.000 C 
ENDBRANCH   1  24
TORSDOF 7
ENDMDL
