MODEL 1
REMARK VINA RESULT:      -6.1      0.000      0.000
REMARK  Name = 
REMARK  1 active torsions:
REMARK  status: ('A' for Active; 'I' for Inactive)
REMARK    1  A    between atoms: C_1  and  C_2
REMARK                            x       y       z     vdW  Elec       q    Type
REMARK                         _______ _______ _______ _____ _____    ______ ____
ROOT
ATOM      1  C   UNL     1       1.513   3.061  21.379  0.00  0.00    +0.000 C 
ATOM      2  C   UNL     1       2.083   4.267  20.678  0.00  0.00    +0.000 A 
ATOM      3  C   UNL     1       1.376   5.481  20.712  0.00  0.00    +0.000 A 
ATOM      4  C   UNL     1       1.881   6.614  20.076  0.00  0.00    +0.000 A 
ATOM      5  C   UNL     1       3.098   6.553  19.399  0.00  0.00    +0.000 A 
ATOM      6  C   UNL     1       3.818   5.355  19.351  0.00  0.00    +0.000 A 
ATOM      7  C   UNL     1       3.317   4.201  19.985  0.00  0.00    +0.000 A 
ATOM      8  C   UNL     1       4.101   2.909  19.907  0.00  0.00    +0.000 C 
ATOM      9  N   UNL     1       5.337   3.035  19.156  0.00  0.00    +0.000 N 
ATOM     10  C   UNL     1       5.767   4.257  18.562  0.00  0.00    +0.000 C 
ATOM     11  N   UNL     1       6.995   4.302  17.856  0.00  0.00    +0.000 N 
ATOM     12  N   UNL     1       5.053   5.323  18.657  0.00  0.00    +0.000 NA
ATOM     13  H   UNL     1       5.928   2.197  19.053  0.00  0.00    +0.000 HD
ATOM     14  H   UNL     1       7.579   3.458  17.770  0.00  0.00    +0.000 HD
ATOM     15  H   UNL     1       7.321   5.182  17.430  0.00  0.00    +0.000 HD
ENDROOT
TORSDOF 0
ENDMDL
MODEL 2
REMARK VINA RESULT:      -6.1      1.443      1.965
REMARK  Name = 
REMARK  1 active torsions:
REMARK  status: ('A' for Active; 'I' for Inactive)
REMARK    1  A    between atoms: C_1  and  C_2
REMARK                            x       y       z     vdW  Elec       q    Type
REMARK                         _______ _______ _______ _____ _____    ______ ____
ROOT
ATOM      1  C   UNL     1       2.192   5.075  20.485  0.00  0.00    +0.000 C 
ATOM      2  C   UNL     1       2.888   5.836  19.386  0.00  0.00    +0.000 A 
ATOM      3  C   UNL     1       2.299   7.009  18.883  0.00  0.00    +0.000 A 
ATOM      4  C   UNL     1       2.922   7.737  17.869  0.00  0.00    +0.000 A 
ATOM      5  C   UNL     1       4.139   7.306  17.345  0.00  0.00    +0.000 A 
ATOM      6  C   UNL     1       4.742   6.140  17.828  0.00  0.00    +0.000 A 
ATOM      7  C   UNL     1       4.122   5.393  18.850  0.00  0.00    +0.000 A 
ATOM      8  C   UNL     1       4.780   4.125  19.349  0.00  0.00    +0.000 C 
ATOM      9  N   UNL     1       6.036   3.832  18.682  0.00  0.00    +0.000 N 
ATOM     10  C   UNL     1       6.591   4.663  17.665  0.00  0.00    +0.000 C 
ATOM     11  N   UNL     1       7.830   4.316  17.072  0.00  0.00    +0.000 N 
ATOM     12  N   UNL     1       5.980   5.727  17.278  0.00  0.00    +0.000 NA
ATOM     13  H   UNL     1       6.546   2.982  18.963  0.00  0.00    +0.000 HD
ATOM     14  H   UNL     1       8.332   3.467  17.370  0.00  0.00    +0.000 HD
ATOM     15  H   UNL     1       8.246   4.914  16.343  0.00  0.00    +0.000 HD
ENDROOT
TORSDOF 0
ENDMDL
MODEL 3
REMARK VINA RESULT:      -6.1      2.481      3.663
REMARK  Name = 
REMARK  1 active torsions:
REMARK  status: ('A' for Active; 'I' for Inactive)
REMARK    1  A    between atoms: C_1  and  C_2
REMARK                            x       y       z     vdW  Elec       q    Type
REMARK                         _______ _______ _______ _____ _____    ______ ____
ROOT
ATOM      1  C   UNL     1       2.471   7.129  18.818  0.00  0.00    +0.000 C 
ATOM      2  C   UNL     1       2.872   5.834  18.160  0.00  0.00    +0.000 A 
ATOM      3  C   UNL     1       2.053   4.702  18.314  0.00  0.00    +0.000 A 
ATOM      4  C   UNL     1       2.397   3.491  17.714  0.00  0.00    +0.000 A 
ATOM      5  C   UNL     1       3.560   3.393  16.951  0.00  0.00    +0.000 A 
ATOM      6  C   UNL     1       4.391   4.506  16.786  0.00  0.00    +0.000 A 
ATOM      7  C   UNL     1       4.058   5.735  17.391  0.00  0.00    +0.000 A 
ATOM      8  C   UNL     1       4.978   6.924  17.216  0.00  0.00    +0.000 C 
ATOM      9  N   UNL     1       6.140   6.631  16.397  0.00  0.00    +0.000 N 
ATOM     10  C   UNL     1       6.382   5.354  15.814  0.00  0.00    +0.000 C 
ATOM     11  N   UNL     1       7.534   5.152  15.014  0.00  0.00    +0.000 N 
ATOM     12  N   UNL     1       5.565   4.378  16.004  0.00  0.00    +0.000 NA
ATOM     13  H   UNL     1       6.819   7.389  16.233  0.00  0.00    +0.000 HD
ATOM     14  H   UNL     1       8.198   5.921  14.852  0.00  0.00    +0.000 HD
ATOM     15  H   UNL     1       7.714   4.235  14.579  0.00  0.00    +0.000 HD
ENDROOT
TORSDOF 0
ENDMDL
MODEL 4
REMARK VINA RESULT:      -6.0      2.491      3.599
REMARK  Name = 
REMARK  1 active torsions:
REMARK  status: ('A' for Active; 'I' for Inactive)
REMARK    1  A    between atoms: C_1  and  C_2
REMARK                            x       y       z     vdW  Elec       q    Type
REMARK                         _______ _______ _______ _____ _____    ______ ____
ROOT
ATOM      1  C   UNL     1       1.442   2.770  21.602  0.00  0.00    +0.000 C 
ATOM      2  C   UNL     1       1.787   3.076  20.168  0.00  0.00    +0.000 A 
ATOM      3  C   UNL     1       1.885   2.021  19.244  0.00  0.00    +0.000 A 
ATOM      4  C   UNL     1       2.200   2.275  17.909  0.00  0.00    +0.000 A 
ATOM      5  C   UNL     1       2.419   3.582  17.477  0.00  0.00    +0.000 A 
ATOM      6  C   UNL     1       2.328   4.647  18.380  0.00  0.00    +0.000 A 
ATOM      7  C   UNL     1       2.016   4.405  19.733  0.00  0.00    +0.000 A 
ATOM      8  C   UNL     1       1.940   5.567  20.698  0.00  0.00    +0.000 C 
ATOM      9  N   UNL     1       2.204   6.849  20.071  0.00  0.00    +0.000 N 
ATOM     10  C   UNL     1       2.497   6.993  18.684  0.00  0.00    +0.000 C 
ATOM     11  N   UNL     1       2.729   8.282  18.144  0.00  0.00    +0.000 N 
ATOM     12  N   UNL     1       2.554   5.964  17.913  0.00  0.00    +0.000 NA
ATOM     13  H   UNL     1       2.174   7.692  20.663  0.00  0.00    +0.000 HD
ATOM     14  H   UNL     1       2.687   9.116  18.747  0.00  0.00    +0.000 HD
ATOM     15  H   UNL     1       2.932   8.400  17.140  0.00  0.00    +0.000 HD
ENDROOT
TORSDOF 0
ENDMDL
MODEL 5
REMARK VINA RESULT:      -6.0      1.690      2.661
REMARK  Name = 
REMARK  1 active torsions:
REMARK  status: ('A' for Active; 'I' for Inactive)
REMARK    1  A    between atoms: C_1  and  C_2
REMARK                            x       y       z     vdW  Elec       q    Type
REMARK                         _______ _______ _______ _____ _____    ______ ____
ROOT
ATOM      1  C   UNL     1       1.674   5.661  20.803  0.00  0.00    +0.000 C 
ATOM      2  C   UNL     1       1.850   4.521  19.834  0.00  0.00    +0.000 A 
ATOM      3  C   UNL     1       0.861   3.525  19.757  0.00  0.00    +0.000 A 
ATOM      4  C   UNL     1       0.995   2.460  18.866  0.00  0.00    +0.000 A 
ATOM      5  C   UNL     1       2.114   2.376  18.039  0.00  0.00    +0.000 A 
ATOM      6  C   UNL     1       3.111   3.355  18.100  0.00  0.00    +0.000 A 
ATOM      7  C   UNL     1       2.992   4.433  18.999  0.00  0.00    +0.000 A 
ATOM      8  C   UNL     1       4.088   5.473  19.064  0.00  0.00    +0.000 C 
ATOM      9  N   UNL     1       5.175   5.216  18.137  0.00  0.00    +0.000 N 
ATOM     10  C   UNL     1       5.197   4.100  17.251  0.00  0.00    +0.000 C 
ATOM     11  N   UNL     1       6.289   3.926  16.364  0.00  0.00    +0.000 N 
ATOM     12  N   UNL     1       4.236   3.244  17.247  0.00  0.00    +0.000 NA
ATOM     13  H   UNL     1       5.965   5.878  18.121  0.00  0.00    +0.000 HD
ATOM     14  H   UNL     1       7.066   4.601  16.355  0.00  0.00    +0.000 HD
ATOM     15  H   UNL     1       6.311   3.128  15.713  0.00  0.00    +0.000 HD
ENDROOT
TORSDOF 0
ENDMDL
MODEL 6
REMARK VINA RESULT:      -6.0      1.657      3.112
REMARK  Name = 
REMARK  1 active torsions:
REMARK  status: ('A' for Active; 'I' for Inactive)
REMARK    1  A    between atoms: C_1  and  C_2
REMARK                            x       y       z     vdW  Elec       q    Type
REMARK                         _______ _______ _______ _____ _____    ______ ____
ROOT
ATOM      1  C   UNL     1       3.521   7.365  17.671  0.00  0.00    +0.000 C 
ATOM      2  C   UNL     1       3.006   6.362  18.669  0.00  0.00    +0.000 A 
ATOM      3  C   UNL     1       2.226   6.805  19.751  0.00  0.00    +0.000 A 
ATOM      4  C   UNL     1       1.732   5.899  20.689  0.00  0.00    +0.000 A 
ATOM      5  C   UNL     1       2.008   4.538  20.560  0.00  0.00    +0.000 A 
ATOM      6  C   UNL     1       2.783   4.074  19.493  0.00  0.00    +0.000 A 
ATOM      7  C   UNL     1       3.293   4.980  18.540  0.00  0.00    +0.000 A 
ATOM      8  C   UNL     1       4.145   4.462  17.402  0.00  0.00    +0.000 C 
ATOM      9  N   UNL     1       4.330   3.023  17.436  0.00  0.00    +0.000 N 
ATOM     10  C   UNL     1       3.758   2.186  18.438  0.00  0.00    +0.000 C 
ATOM     11  N   UNL     1       3.973   0.786  18.393  0.00  0.00    +0.000 N 
ATOM     12  N   UNL     1       3.046   2.687  19.386  0.00  0.00    +0.000 NA
ATOM     13  H   UNL     1       4.902   2.591  16.695  0.00  0.00    +0.000 HD
ATOM     14  H   UNL     1       4.540   0.369  17.641  0.00  0.00    +0.000 HD
ATOM     15  H   UNL     1       3.557   0.170  19.106  0.00  0.00    +0.000 HD
ENDROOT
TORSDOF 0
ENDMDL
MODEL 7
REMARK VINA RESULT:      -6.0      1.479      1.547
REMARK  Name = 
REMARK  1 active torsions:
REMARK  status: ('A' for Active; 'I' for Inactive)
REMARK    1  A    between atoms: C_1  and  C_2
REMARK                            x       y       z     vdW  Elec       q    Type
REMARK                         _______ _______ _______ _____ _____    ______ ____
ROOT
ATOM      1  C   UNL     1       0.657   2.184  18.875  0.00  0.00    +0.000 C 
ATOM      2  C   UNL     1       1.502   3.355  19.304  0.00  0.00    +0.000 A 
ATOM      3  C   UNL     1       0.985   4.272  20.235  0.00  0.00    +0.000 A 
ATOM      4  C   UNL     1       1.746   5.364  20.653  0.00  0.00    +0.000 A 
ATOM      5  C   UNL     1       3.032   5.554  20.151  0.00  0.00    +0.000 A 
ATOM      6  C   UNL     1       3.566   4.655  19.223  0.00  0.00    +0.000 A 
ATOM      7  C   UNL     1       2.807   3.551  18.787  0.00  0.00    +0.000 A 
ATOM      8  C   UNL     1       3.394   2.599  17.769  0.00  0.00    +0.000 C 
ATOM      9  N   UNL     1       4.738   2.960  17.356  0.00  0.00    +0.000 N 
ATOM     10  C   UNL     1       5.432   4.095  17.869  0.00  0.00    +0.000 C 
ATOM     11  N   UNL     1       6.750   4.373  17.427  0.00  0.00    +0.000 N 
ATOM     12  N   UNL     1       4.876   4.873  18.730  0.00  0.00    +0.000 NA
ATOM     13  H   UNL     1       5.208   2.363  16.661  0.00  0.00    +0.000 HD
ATOM     14  H   UNL     1       7.209   3.761  16.738  0.00  0.00    +0.000 HD
ATOM     15  H   UNL     1       7.265   5.185  17.797  0.00  0.00    +0.000 HD
ENDROOT
TORSDOF 0
ENDMDL
MODEL 8
REMARK VINA RESULT:      -5.9      1.237      1.237
REMARK  Name = 
REMARK  1 active torsions:
REMARK  status: ('A' for Active; 'I' for Inactive)
REMARK    1  A    between atoms: C_1  and  C_2
REMARK                            x       y       z     vdW  Elec       q    Type
REMARK                         _______ _______ _______ _____ _____    ______ ____
ROOT
ATOM      1  C   UNL     1       1.384   2.909  21.156  0.00  0.00    +0.000 C 
ATOM      2  C   UNL     1       1.976   4.062  20.389  0.00  0.00    +0.000 A 
ATOM      3  C   UNL     1       1.615   5.376  20.735  0.00  0.00    +0.000 A 
ATOM      4  C   UNL     1       2.150   6.463  20.044  0.00  0.00    +0.000 A 
ATOM      5  C   UNL     1       3.052   6.256  19.002  0.00  0.00    +0.000 A 
ATOM      6  C   UNL     1       3.423   4.957  18.639  0.00  0.00    +0.000 A 
ATOM      7  C   UNL     1       2.887   3.849  19.324  0.00  0.00    +0.000 A 
ATOM      8  C   UNL     1       3.287   2.451  18.907  0.00  0.00    +0.000 C 
ATOM      9  N   UNL     1       4.226   2.431  17.801  0.00  0.00    +0.000 N 
ATOM     10  C   UNL     1       4.725   3.613  17.180  0.00  0.00    +0.000 C 
ATOM     11  N   UNL     1       5.653   3.511  16.114  0.00  0.00    +0.000 N 
ATOM     12  N   UNL     1       4.343   4.776  17.577  0.00  0.00    +0.000 NA
ATOM     13  H   UNL     1       4.546   1.515  17.454  0.00  0.00    +0.000 HD
ATOM     14  H   UNL     1       5.969   2.588  15.784  0.00  0.00    +0.000 HD
ATOM     15  H   UNL     1       6.028   4.359  15.664  0.00  0.00    +0.000 HD
ENDROOT
TORSDOF 0
ENDMDL
MODEL 9
REMARK VINA RESULT:      -5.9      3.328      4.437
REMARK  Name = 
REMARK  1 active torsions:
REMARK  status: ('A' for Active; 'I' for Inactive)
REMARK    1  A    between atoms: C_1  and  C_2
REMARK                            x       y       z     vdW  Elec       q    Type
REMARK                         _______ _______ _______ _____ _____    ______ ____
ROOT
ATOM      1  C   UNL     1       3.725   3.329  17.882  0.00  0.00    +0.000 C 
ATOM      2  C   UNL     1       4.965   4.184  17.906  0.00  0.00    +0.000 A 
ATOM      3  C   UNL     1       5.423   4.697  19.132  0.00  0.00    +0.000 A 
ATOM      4  C   UNL     1       6.570   5.488  19.185  0.00  0.00    +0.000 A 
ATOM      5  C   UNL     1       7.276   5.777  18.019  0.00  0.00    +0.000 A 
ATOM      6  C   UNL     1       6.838   5.279  16.788  0.00  0.00    +0.000 A 
ATOM      7  C   UNL     1       5.677   4.482  16.718  0.00  0.00    +0.000 A 
ATOM      8  C   UNL     1       5.208   3.967  15.375  0.00  0.00    +0.000 C 
ATOM      9  N   UNL     1       6.063   4.374  14.276  0.00  0.00    +0.000 N 
ATOM     10  C   UNL     1       7.230   5.173  14.450  0.00  0.00    +0.000 C 
ATOM     11  N   UNL     1       8.022   5.517  13.327  0.00  0.00    +0.000 N 
ATOM     12  N   UNL     1       7.575   5.587  15.619  0.00  0.00    +0.000 NA
ATOM     13  H   UNL     1       5.809   4.066  13.326  0.00  0.00    +0.000 HD
ATOM     14  H   UNL     1       7.760   5.194  12.385  0.00  0.00    +0.000 HD
ATOM     15  H   UNL     1       8.874   6.086  13.442  0.00  0.00    +0.000 HD
ENDROOT
TORSDOF 0
ENDMDL
