MODEL 1
REMARK VINA RESULT:      -7.9      0.000      0.000
REMARK  Name = 
REMARK  5 active torsions:
REMARK  status: ('A' for Active; 'I' for Inactive)
REMARK    1  A    between atoms: N_1  and  S_2
REMARK    2  A    between atoms: S_2  and  C_5
REMARK    3  A    between atoms: C_8  and  N_9
REMARK    4  A    between atoms: N_9  and  C_10
REMARK    5  A    between atoms: C_10  and  C_11
REMARK                            x       y       z     vdW  Elec       q    Type
REMARK                         _______ _______ _______ _____ _____    ______ ____
ROOT
ATOM      1  N   UNL     1       8.644   8.676  18.883  0.00  0.00    +0.000 N 
ATOM      2  H   UNL     1       8.170   8.379  19.734  0.00  0.00    +0.000 HD
ENDROOT
BRANCH   1   6
ATOM      3  C   UNL     1       9.584  12.778  19.059  0.00  0.00    +0.000 A 
ATOM      4  C   UNL     1       9.123  12.207  17.875  0.00  0.00    +0.000 A 
ATOM      5  C   UNL     1       8.847  10.835  17.833  0.00  0.00    +0.000 A 
ATOM      6  C   UNL     1       9.070  10.005  18.945  0.00  0.00    +0.000 A 
ATOM      7  C   UNL     1       9.559  10.606  20.113  0.00  0.00    +0.000 A 
ATOM      8  C   UNL     1       9.808  11.981  20.180  0.00  0.00    +0.000 A 
BRANCH   3   9
ATOM      9  S   UNL     1       9.840  14.524  19.160  0.00  0.00    +0.000 S 
ATOM     10  O   UNL     1      11.258  14.788  19.216  0.00  0.00    +0.000 OA
ATOM     11  O   UNL     1       8.904  15.096  20.100  0.00  0.00    +0.000 OA
BRANCH   9  12
ATOM     12  N   UNL     1       9.318  15.042  17.649  0.00  0.00    +0.000 NA
ATOM     13  H   UNL     1      10.123  15.308  17.080  0.00  0.00    +0.000 HD
ATOM     14  H   UNL     1       8.621  15.779  17.752  0.00  0.00    +0.000 HD
ENDBRANCH   9  12
ENDBRANCH   3   9
ENDBRANCH   1   6
BRANCH   1  15
ATOM     15  C   UNL     1       8.003   8.121  17.678  0.00  0.00    +0.000 C 
BRANCH  15  16
ATOM     16  C   UNL     1       7.316   6.832  17.964  0.00  0.00    +0.000 A 
ATOM     17  C   UNL     1       7.572   5.972  18.962  0.00  0.00    +0.000 A 
ATOM     18  O   UNL     1       6.951   4.766  19.182  0.00  0.00    +0.000 OA
ATOM     19  C   UNL     1       5.680   4.665  18.680  0.00  0.00    +0.000 A 
ATOM     20  C   UNL     1       4.836   3.734  19.276  0.00  0.00    +0.000 A 
ATOM     21  C   UNL     1       3.475   3.771  18.982  0.00  0.00    +0.000 A 
ATOM     22  C   UNL     1       2.979   4.703  18.064  0.00  0.00    +0.000 A 
ATOM     23  C   UNL     1       3.848   5.560  17.382  0.00  0.00    +0.000 A 
ATOM     24  C   UNL     1       5.205   5.530  17.695  0.00  0.00    +0.000 A 
ATOM     25  C   UNL     1       6.153   6.487  17.102  0.00  0.00    +0.000 A 
ATOM     26  O   UNL     1       5.967   7.012  16.010  0.00  0.00    +0.000 OA
ENDBRANCH  15  16
ENDBRANCH   1  15
TORSDOF 5
ENDMDL
MODEL 2
REMARK VINA RESULT:      -7.9      0.424      1.085
REMARK  Name = 
REMARK  5 active torsions:
REMARK  status: ('A' for Active; 'I' for Inactive)
REMARK    1  A    between atoms: N_1  and  S_2
REMARK    2  A    between atoms: S_2  and  C_5
REMARK    3  A    between atoms: C_8  and  N_9
REMARK    4  A    between atoms: N_9  and  C_10
REMARK    5  A    between atoms: C_10  and  C_11
REMARK                            x       y       z     vdW  Elec       q    Type
REMARK                         _______ _______ _______ _____ _____    ______ ____
ROOT
ATOM      1  N   UNL     1       8.636   8.642  18.796  0.00  0.00    +0.000 N 
ATOM      2  H   UNL     1       8.229   8.297  19.662  0.00  0.00    +0.000 HD
ENDROOT
BRANCH   1   6
ATOM      3  C   UNL     1       9.946  12.642  18.954  0.00  0.00    +0.000 A 
ATOM      4  C   UNL     1      10.165  11.782  20.028  0.00  0.00    +0.000 A 
ATOM      5  C   UNL     1       9.693  10.466  19.963  0.00  0.00    +0.000 A 
ATOM      6  C   UNL     1       8.958  10.001  18.861  0.00  0.00    +0.000 A 
ATOM      7  C   UNL     1       8.731  10.899  17.808  0.00  0.00    +0.000 A 
ATOM      8  C   UNL     1       9.225  12.208  17.844  0.00  0.00    +0.000 A 
BRANCH   3   9
ATOM      9  S   UNL     1      10.622  14.275  18.974  0.00  0.00    +0.000 S 
ATOM     10  O   UNL     1      12.055  14.192  18.822  0.00  0.00    +0.000 OA
ATOM     11  O   UNL     1       9.994  15.045  20.022  0.00  0.00    +0.000 OA
BRANCH   9  12
ATOM     12  N   UNL     1      10.027  14.918  17.540  0.00  0.00    +0.000 NA
ATOM     13  H   UNL     1       9.122  14.495  17.323  0.00  0.00    +0.000 HD
ATOM     14  H   UNL     1      10.718  14.819  16.797  0.00  0.00    +0.000 HD
ENDBRANCH   9  12
ENDBRANCH   3   9
ENDBRANCH   1   6
BRANCH   1  15
ATOM     15  C   UNL     1       7.985   8.055  17.613  0.00  0.00    +0.000 C 
BRANCH  15  16
ATOM     16  C   UNL     1       7.292   6.779  17.942  0.00  0.00    +0.000 A 
ATOM     17  C   UNL     1       7.549   5.949  18.965  0.00  0.00    +0.000 A 
ATOM     18  O   UNL     1       6.921   4.755  19.227  0.00  0.00    +0.000 OA
ATOM     19  C   UNL     1       5.646   4.646  18.736  0.00  0.00    +0.000 A 
ATOM     20  C   UNL     1       4.801   3.740  19.365  0.00  0.00    +0.000 A 
ATOM     21  C   UNL     1       3.438   3.776  19.079  0.00  0.00    +0.000 A 
ATOM     22  C   UNL     1       2.942   4.682  18.136  0.00  0.00    +0.000 A 
ATOM     23  C   UNL     1       3.811   5.512  17.422  0.00  0.00    +0.000 A 
ATOM     24  C   UNL     1       5.170   5.483  17.728  0.00  0.00    +0.000 A 
ATOM     25  C   UNL     1       6.121   6.415  17.099  0.00  0.00    +0.000 A 
ATOM     26  O   UNL     1       5.931   6.907  15.993  0.00  0.00    +0.000 OA
ENDBRANCH  15  16
ENDBRANCH   1  15
TORSDOF 5
ENDMDL
MODEL 3
REMARK VINA RESULT:      -7.7      0.755      1.053
REMARK  Name = 
REMARK  5 active torsions:
REMARK  status: ('A' for Active; 'I' for Inactive)
REMARK    1  A    between atoms: N_1  and  S_2
REMARK    2  A    between atoms: S_2  and  C_5
REMARK    3  A    between atoms: C_8  and  N_9
REMARK    4  A    between atoms: N_9  and  C_10
REMARK    5  A    between atoms: C_10  and  C_11
REMARK                            x       y       z     vdW  Elec       q    Type
REMARK                         _______ _______ _______ _____ _____    ______ ____
ROOT
ATOM      1  N   UNL     1       8.672   8.647  18.826  0.00  0.00    +0.000 N 
ATOM      2  H   UNL     1       8.282   8.294  19.697  0.00  0.00    +0.000 HD
ENDROOT
BRANCH   1   6
ATOM      3  C   UNL     1       9.501  12.767  19.107  0.00  0.00    +0.000 A 
ATOM      4  C   UNL     1       9.027  12.220  17.917  0.00  0.00    +0.000 A 
ATOM      5  C   UNL     1       8.788  10.842  17.840  0.00  0.00    +0.000 A 
ATOM      6  C   UNL     1       9.061   9.986  18.919  0.00  0.00    +0.000 A 
ATOM      7  C   UNL     1       9.563  10.564  20.093  0.00  0.00    +0.000 A 
ATOM      8  C   UNL     1       9.776  11.943  20.197  0.00  0.00    +0.000 A 
BRANCH   3   9
ATOM      9  S   UNL     1       9.711  14.515  19.257  0.00  0.00    +0.000 S 
ATOM     10  O   UNL     1       8.445  15.113  19.609  0.00  0.00    +0.000 OA
ATOM     11  O   UNL     1      10.523  14.999  18.164  0.00  0.00    +0.000 OA
BRANCH   9  12
ATOM     12  N   UNL     1      10.690  14.635  20.617  0.00  0.00    +0.000 NA
ATOM     13  H   UNL     1      10.304  15.330  21.259  0.00  0.00    +0.000 HD
ATOM     14  H   UNL     1      11.655  14.818  20.341  0.00  0.00    +0.000 HD
ENDBRANCH   9  12
ENDBRANCH   3   9
ENDBRANCH   1   6
BRANCH   1  15
ATOM     15  C   UNL     1       7.947   8.129  17.652  0.00  0.00    +0.000 C 
BRANCH  15  16
ATOM     16  C   UNL     1       7.289   6.826  17.942  0.00  0.00    +0.000 A 
ATOM     17  C   UNL     1       7.563   5.976  18.945  0.00  0.00    +0.000 A 
ATOM     18  O   UNL     1       6.970   4.758  19.170  0.00  0.00    +0.000 OA
ATOM     19  C   UNL     1       5.702   4.625  18.666  0.00  0.00    +0.000 A 
ATOM     20  C   UNL     1       4.879   3.678  19.264  0.00  0.00    +0.000 A 
ATOM     21  C   UNL     1       3.518   3.682  18.968  0.00  0.00    +0.000 A 
ATOM     22  C   UNL     1       3.002   4.598  18.046  0.00  0.00    +0.000 A 
ATOM     23  C   UNL     1       3.852   5.472  17.361  0.00  0.00    +0.000 A 
ATOM     24  C   UNL     1       5.209   5.475  17.677  0.00  0.00    +0.000 A 
ATOM     25  C   UNL     1       6.136   6.451  17.080  0.00  0.00    +0.000 A 
ATOM     26  O   UNL     1       5.940   6.966  15.987  0.00  0.00    +0.000 OA
ENDBRANCH  15  16
ENDBRANCH   1  15
TORSDOF 5
ENDMDL
MODEL 4
REMARK VINA RESULT:      -7.6      5.889      7.083
REMARK  Name = 
REMARK  5 active torsions:
REMARK  status: ('A' for Active; 'I' for Inactive)
REMARK    1  A    between atoms: N_1  and  S_2
REMARK    2  A    between atoms: S_2  and  C_5
REMARK    3  A    between atoms: C_8  and  N_9
REMARK    4  A    between atoms: N_9  and  C_10
REMARK    5  A    between atoms: C_10  and  C_11
REMARK                            x       y       z     vdW  Elec       q    Type
REMARK                         _______ _______ _______ _____ _____    ______ ____
ROOT
ATOM      1  N   UNL     1       3.003   5.860  20.355  0.00  0.00    +0.000 N 
ATOM      2  H   UNL     1       3.211   5.857  21.351  0.00  0.00    +0.000 HD
ENDROOT
BRANCH   1   6
ATOM      3  C   UNL     1       1.035   9.459  19.395  0.00  0.00    +0.000 A 
ATOM      4  C   UNL     1       0.843   8.856  20.636  0.00  0.00    +0.000 A 
ATOM      5  C   UNL     1       1.484   7.644  20.920  0.00  0.00    +0.000 A 
ATOM      6  C   UNL     1       2.281   6.991  19.964  0.00  0.00    +0.000 A 
ATOM      7  C   UNL     1       2.432   7.611  18.716  0.00  0.00    +0.000 A 
ATOM      8  C   UNL     1       1.824   8.838  18.429  0.00  0.00    +0.000 A 
BRANCH   3   9
ATOM      9  S   UNL     1       0.316  11.037  19.056  0.00  0.00    +0.000 S 
ATOM     10  O   UNL     1       1.331  11.909  18.515  0.00  0.00    +0.000 OA
ATOM     11  O   UNL     1      -0.538  11.425  20.154  0.00  0.00    +0.000 OA
BRANCH   9  12
ATOM     12  N   UNL     1      -0.730  10.681  17.790  0.00  0.00    +0.000 NA
ATOM     13  H   UNL     1      -0.799  11.485  17.164  0.00  0.00    +0.000 HD
ATOM     14  H   UNL     1      -1.628  10.362  18.155  0.00  0.00    +0.000 HD
ENDBRANCH   9  12
ENDBRANCH   3   9
ENDBRANCH   1   6
BRANCH   1  15
ATOM     15  C   UNL     1       2.663   4.515  19.862  0.00  0.00    +0.000 C 
BRANCH  15  16
ATOM     16  C   UNL     1       3.407   4.180  18.617  0.00  0.00    +0.000 A 
ATOM     17  C   UNL     1       2.898   3.945  17.397  0.00  0.00    +0.000 A 
ATOM     18  O   UNL     1       3.603   3.598  16.270  0.00  0.00    +0.000 OA
ATOM     19  C   UNL     1       4.912   4.005  16.252  0.00  0.00    +0.000 A 
ATOM     20  C   UNL     1       5.513   4.150  15.007  0.00  0.00    +0.000 A 
ATOM     21  C   UNL     1       6.740   4.801  14.920  0.00  0.00    +0.000 A 
ATOM     22  C   UNL     1       7.376   5.259  16.079  0.00  0.00    +0.000 A 
ATOM     23  C   UNL     1       6.823   5.009  17.338  0.00  0.00    +0.000 A 
ATOM     24  C   UNL     1       5.585   4.374  17.415  0.00  0.00    +0.000 A 
ATOM     25  C   UNL     1       4.893   4.190  18.702  0.00  0.00    +0.000 A 
ATOM     26  O   UNL     1       5.490   4.117  19.769  0.00  0.00    +0.000 OA
ENDBRANCH  15  16
ENDBRANCH   1  15
TORSDOF 5
ENDMDL
MODEL 5
REMARK VINA RESULT:      -7.6      7.547     10.488
REMARK  Name = 
REMARK  5 active torsions:
REMARK  status: ('A' for Active; 'I' for Inactive)
REMARK    1  A    between atoms: N_1  and  S_2
REMARK    2  A    between atoms: S_2  and  C_5
REMARK    3  A    between atoms: C_8  and  N_9
REMARK    4  A    between atoms: N_9  and  C_10
REMARK    5  A    between atoms: C_10  and  C_11
REMARK                            x       y       z     vdW  Elec       q    Type
REMARK                         _______ _______ _______ _____ _____    ______ ____
ROOT
ATOM      1  N   UNL     1       1.820   7.939  20.768  0.00  0.00    +0.000 N 
ATOM      2  H   UNL     1       2.100   8.767  20.246  0.00  0.00    +0.000 HD
ENDROOT
BRANCH   1   6
ATOM      3  C   UNL     1       3.113   4.442  18.808  0.00  0.00    +0.000 A 
ATOM      4  C   UNL     1       3.285   5.690  18.215  0.00  0.00    +0.000 A 
ATOM      5  C   UNL     1       2.819   6.835  18.873  0.00  0.00    +0.000 A 
ATOM      6  C   UNL     1       2.135   6.754  20.097  0.00  0.00    +0.000 A 
ATOM      7  C   UNL     1       1.955   5.480  20.654  0.00  0.00    +0.000 A 
ATOM      8  C   UNL     1       2.444   4.330  20.025  0.00  0.00    +0.000 A 
BRANCH   3   9
ATOM      9  S   UNL     1       3.784   2.997  18.042  0.00  0.00    +0.000 S 
ATOM     10  O   UNL     1       4.591   3.395  16.914  0.00  0.00    +0.000 OA
ATOM     11  O   UNL     1       2.761   1.981  17.948  0.00  0.00    +0.000 OA
BRANCH   9  12
ATOM     12  N   UNL     1       4.848   2.441  19.217  0.00  0.00    +0.000 NA
ATOM     13  H   UNL     1       4.827   3.067  20.024  0.00  0.00    +0.000 HD
ATOM     14  H   UNL     1       5.778   2.313  18.818  0.00  0.00    +0.000 HD
ENDBRANCH   9  12
ENDBRANCH   3   9
ENDBRANCH   1   6
BRANCH   1  15
ATOM     15  C   UNL     1       0.524   8.128  21.441  0.00  0.00    +0.000 C 
BRANCH  15  16
ATOM     16  C   UNL     1      -0.004   9.506  21.243  0.00  0.00    +0.000 A 
ATOM     17  C   UNL     1      -0.293  10.111  20.080  0.00  0.00    +0.000 A 
ATOM     18  O   UNL     1      -0.742  11.400  19.919  0.00  0.00    +0.000 OA
ATOM     19  C   UNL     1      -1.411  11.924  20.995  0.00  0.00    +0.000 A 
ATOM     20  C   UNL     1      -2.301  12.961  20.743  0.00  0.00    +0.000 A 
ATOM     21  C   UNL     1      -3.187  13.350  21.744  0.00  0.00    +0.000 A 
ATOM     22  C   UNL     1      -3.143  12.732  22.999  0.00  0.00    +0.000 A 
ATOM     23  C   UNL     1      -2.171  11.770  23.284  0.00  0.00    +0.000 A 
ATOM     24  C   UNL     1      -1.301  11.373  22.271  0.00  0.00    +0.000 A 
ATOM     25  C   UNL     1      -0.334  10.280  22.469  0.00  0.00    +0.000 A 
ATOM     26  O   UNL     1       0.114   9.986  23.571  0.00  0.00    +0.000 OA
ENDBRANCH  15  16
ENDBRANCH   1  15
TORSDOF 5
ENDMDL
MODEL 6
REMARK VINA RESULT:      -7.5      5.982      7.333
REMARK  Name = 
REMARK  5 active torsions:
REMARK  status: ('A' for Active; 'I' for Inactive)
REMARK    1  A    between atoms: N_1  and  S_2
REMARK    2  A    between atoms: S_2  and  C_5
REMARK    3  A    between atoms: C_8  and  N_9
REMARK    4  A    between atoms: N_9  and  C_10
REMARK    5  A    between atoms: C_10  and  C_11
REMARK                            x       y       z     vdW  Elec       q    Type
REMARK                         _______ _______ _______ _____ _____    ______ ____
ROOT
ATOM      1  N   UNL     1       2.703   6.711  20.219  0.00  0.00    +0.000 N 
ATOM      2  H   UNL     1       3.092   6.715  21.159  0.00  0.00    +0.000 HD
ENDROOT
BRANCH   1   6
ATOM      3  C   UNL     1       0.252   9.978  19.187  0.00  0.00    +0.000 A 
ATOM      4  C   UNL     1       1.132   9.431  18.256  0.00  0.00    +0.000 A 
ATOM      5  C   UNL     1       1.959   8.365  18.633  0.00  0.00    +0.000 A 
ATOM      6  C   UNL     1       1.959   7.863  19.944  0.00  0.00    +0.000 A 
ATOM      7  C   UNL     1       1.081   8.453  20.864  0.00  0.00    +0.000 A 
ATOM      8  C   UNL     1       0.226   9.496  20.494  0.00  0.00    +0.000 A 
BRANCH   3   9
ATOM      9  S   UNL     1      -0.870  11.255  18.701  0.00  0.00    +0.000 S 
ATOM     10  O   UNL     1      -1.545  11.758  19.874  0.00  0.00    +0.000 OA
ATOM     11  O   UNL     1      -1.578  10.849  17.510  0.00  0.00    +0.000 OA
BRANCH   9  12
ATOM     12  N   UNL     1       0.179  12.468  18.197  0.00  0.00    +0.000 NA
ATOM     13  H   UNL     1       1.137  12.116  18.198  0.00  0.00    +0.000 HD
ATOM     14  H   UNL     1       0.045  13.306  18.763  0.00  0.00    +0.000 HD
ENDBRANCH   9  12
ENDBRANCH   3   9
ENDBRANCH   1   6
BRANCH   1  15
ATOM     15  C   UNL     1       2.232   5.372  19.826  0.00  0.00    +0.000 C 
BRANCH  15  16
ATOM     16  C   UNL     1       3.070   4.790  18.742  0.00  0.00    +0.000 A 
ATOM     17  C   UNL     1       2.650   4.168  17.629  0.00  0.00    +0.000 A 
ATOM     18  O   UNL     1       3.444   3.603  16.660  0.00  0.00    +0.000 OA
ATOM     19  C   UNL     1       4.703   4.134  16.553  0.00  0.00    +0.000 A 
ATOM     20  C   UNL     1       5.348   3.993  15.330  0.00  0.00    +0.000 A 
ATOM     21  C   UNL     1       6.505   4.729  15.088  0.00  0.00    +0.000 A 
ATOM     22  C   UNL     1       7.030   5.561  16.082  0.00  0.00    +0.000 A 
ATOM     23  C   UNL     1       6.442   5.611  17.349  0.00  0.00    +0.000 A 
ATOM     24  C   UNL     1       5.274   4.887  17.578  0.00  0.00    +0.000 A 
ATOM     25  C   UNL     1       4.540   4.991  18.850  0.00  0.00    +0.000 A 
ATOM     26  O   UNL     1       5.086   5.287  19.906  0.00  0.00    +0.000 OA
ENDBRANCH  15  16
ENDBRANCH   1  15
TORSDOF 5
ENDMDL
MODEL 7
REMARK VINA RESULT:      -7.5      6.244      8.762
REMARK  Name = 
REMARK  5 active torsions:
REMARK  status: ('A' for Active; 'I' for Inactive)
REMARK    1  A    between atoms: N_1  and  S_2
REMARK    2  A    between atoms: S_2  and  C_5
REMARK    3  A    between atoms: C_8  and  N_9
REMARK    4  A    between atoms: N_9  and  C_10
REMARK    5  A    between atoms: C_10  and  C_11
REMARK                            x       y       z     vdW  Elec       q    Type
REMARK                         _______ _______ _______ _____ _____    ______ ____
ROOT
ATOM      1  N   UNL     1       2.178   7.201  18.492  0.00  0.00    +0.000 N 
ATOM      2  H   UNL     1       1.857   6.695  19.314  0.00  0.00    +0.000 HD
ENDROOT
BRANCH   1   6
ATOM      3  C   UNL     1       5.500   5.409  16.622  0.00  0.00    +0.000 A 
ATOM      4  C   UNL     1       4.606   4.642  17.365  0.00  0.00    +0.000 A 
ATOM      5  C   UNL     1       3.527   5.266  18.002  0.00  0.00    +0.000 A 
ATOM      6  C   UNL     1       3.348   6.658  17.954  0.00  0.00    +0.000 A 
ATOM      7  C   UNL     1       4.281   7.405  17.220  0.00  0.00    +0.000 A 
ATOM      8  C   UNL     1       5.346   6.792  16.551  0.00  0.00    +0.000 A 
BRANCH   3   9
ATOM      9  S   UNL     1       6.809   4.628  15.727  0.00  0.00    +0.000 S 
ATOM     10  O   UNL     1       7.512   5.625  14.956  0.00  0.00    +0.000 OA
ATOM     11  O   UNL     1       6.330   3.393  15.151  0.00  0.00    +0.000 OA
BRANCH   9  12
ATOM     12  N   UNL     1       7.848   4.161  16.964  0.00  0.00    +0.000 NA
ATOM     13  H   UNL     1       7.493   4.505  17.858  0.00  0.00    +0.000 HD
ATOM     14  H   UNL     1       8.800   4.460  16.754  0.00  0.00    +0.000 HD
ENDBRANCH   9  12
ENDBRANCH   3   9
ENDBRANCH   1   6
BRANCH   1  15
ATOM     15  C   UNL     1       1.994   8.655  18.637  0.00  0.00    +0.000 C 
BRANCH  15  16
ATOM     16  C   UNL     1       1.086   8.985  19.770  0.00  0.00    +0.000 A 
ATOM     17  C   UNL     1       1.180   8.566  21.042  0.00  0.00    +0.000 A 
ATOM     18  O   UNL     1       0.306   8.851  22.063  0.00  0.00    +0.000 OA
ATOM     19  C   UNL     1      -0.401  10.016  21.917  0.00  0.00    +0.000 A 
ATOM     20  C   UNL     1      -0.886  10.612  23.076  0.00  0.00    +0.000 A 
ATOM     21  C   UNL     1      -1.379  11.912  23.012  0.00  0.00    +0.000 A 
ATOM     22  C   UNL     1      -1.426  12.586  21.787  0.00  0.00    +0.000 A 
ATOM     23  C   UNL     1      -1.045  11.942  20.607  0.00  0.00    +0.000 A 
ATOM     24  C   UNL     1      -0.534  10.648  20.682  0.00  0.00    +0.000 A 
ATOM     25  C   UNL     1      -0.004   9.960  19.494  0.00  0.00    +0.000 A 
ATOM     26  O   UNL     1      -0.382  10.216  18.357  0.00  0.00    +0.000 OA
ENDBRANCH  15  16
ENDBRANCH   1  15
TORSDOF 5
ENDMDL
MODEL 8
REMARK VINA RESULT:      -7.5      6.335      8.894
REMARK  Name = 
REMARK  5 active torsions:
REMARK  status: ('A' for Active; 'I' for Inactive)
REMARK    1  A    between atoms: N_1  and  S_2
REMARK    2  A    between atoms: S_2  and  C_5
REMARK    3  A    between atoms: C_8  and  N_9
REMARK    4  A    between atoms: N_9  and  C_10
REMARK    5  A    between atoms: C_10  and  C_11
REMARK                            x       y       z     vdW  Elec       q    Type
REMARK                         _______ _______ _______ _____ _____    ______ ____
ROOT
ATOM      1  N   UNL     1       1.839   6.772  19.666  0.00  0.00    +0.000 N 
ATOM      2  H   UNL     1       1.220   5.964  19.666  0.00  0.00    +0.000 HD
ENDROOT
BRANCH   1   6
ATOM      3  C   UNL     1       5.372   5.674  17.651  0.00  0.00    +0.000 A 
ATOM      4  C   UNL     1       5.045   5.095  18.875  0.00  0.00    +0.000 A 
ATOM      5  C   UNL     1       3.881   5.499  19.540  0.00  0.00    +0.000 A 
ATOM      6  C   UNL     1       3.055   6.513  19.027  0.00  0.00    +0.000 A 
ATOM      7  C   UNL     1       3.426   7.094  17.807  0.00  0.00    +0.000 A 
ATOM      8  C   UNL     1       4.569   6.678  17.114  0.00  0.00    +0.000 A 
BRANCH   3   9
ATOM      9  S   UNL     1       6.781   5.105  16.749  0.00  0.00    +0.000 S 
ATOM     10  O   UNL     1       7.552   6.244  16.314  0.00  0.00    +0.000 OA
ATOM     11  O   UNL     1       6.384   4.044  15.852  0.00  0.00    +0.000 OA
BRANCH   9  12
ATOM     12  N   UNL     1       7.682   4.349  17.950  0.00  0.00    +0.000 NA
ATOM     13  H   UNL     1       7.108   3.648  18.420  0.00  0.00    +0.000 HD
ATOM     14  H   UNL     1       8.084   5.045  18.578  0.00  0.00    +0.000 HD
ENDBRANCH   9  12
ENDBRANCH   3   9
ENDBRANCH   1   6
BRANCH   1  15
ATOM     15  C   UNL     1       1.773   7.513  20.937  0.00  0.00    +0.000 C 
BRANCH  15  16
ATOM     16  C   UNL     1       1.138   8.848  20.763  0.00  0.00    +0.000 A 
ATOM     17  C   UNL     1       0.706   9.407  19.621  0.00  0.00    +0.000 A 
ATOM     18  O   UNL     1       0.159  10.659  19.479  0.00  0.00    +0.000 OA
ATOM     19  C   UNL     1      -0.446  11.162  20.602  0.00  0.00    +0.000 A 
ATOM     20  C   UNL     1      -1.422  12.133  20.413  0.00  0.00    +0.000 A 
ATOM     21  C   UNL     1      -2.240  12.486  21.484  0.00  0.00    +0.000 A 
ATOM     22  C   UNL     1      -2.045  11.901  22.740  0.00  0.00    +0.000 A 
ATOM     23  C   UNL     1      -0.988  11.011  22.952  0.00  0.00    +0.000 A 
ATOM     24  C   UNL     1      -0.186  10.649  21.872  0.00  0.00    +0.000 A 
ATOM     25  C   UNL     1       0.865   9.627  22.002  0.00  0.00    +0.000 A 
ATOM     26  O   UNL     1       1.428   9.388  23.063  0.00  0.00    +0.000 OA
ENDBRANCH  15  16
ENDBRANCH   1  15
TORSDOF 5
ENDMDL
MODEL 9
REMARK VINA RESULT:      -7.5      6.447      9.641
REMARK  Name = 
REMARK  5 active torsions:
REMARK  status: ('A' for Active; 'I' for Inactive)
REMARK    1  A    between atoms: N_1  and  S_2
REMARK    2  A    between atoms: S_2  and  C_5
REMARK    3  A    between atoms: C_8  and  N_9
REMARK    4  A    between atoms: N_9  and  C_10
REMARK    5  A    between atoms: C_10  and  C_11
REMARK                            x       y       z     vdW  Elec       q    Type
REMARK                         _______ _______ _______ _____ _____    ______ ____
ROOT
ATOM      1  N   UNL     1       2.883   8.073  17.928  0.00  0.00    +0.000 N 
ATOM      2  H   UNL     1       3.519   8.465  17.236  0.00  0.00    +0.000 HD
ENDROOT
BRANCH   1   6
ATOM      3  C   UNL     1       3.454   3.996  18.816  0.00  0.00    +0.000 A 
ATOM      4  C   UNL     1       4.504   4.902  18.944  0.00  0.00    +0.000 A 
ATOM      5  C   UNL     1       4.297   6.247  18.613  0.00  0.00    +0.000 A 
ATOM      6  C   UNL     1       3.068   6.700  18.107  0.00  0.00    +0.000 A 
ATOM      7  C   UNL     1       2.040   5.757  17.965  0.00  0.00    +0.000 A 
ATOM      8  C   UNL     1       2.221   4.417  18.323  0.00  0.00    +0.000 A 
BRANCH   3   9
ATOM      9  S   UNL     1       3.666   2.316  19.325  0.00  0.00    +0.000 S 
ATOM     10  O   UNL     1       2.380   1.766  19.679  0.00  0.00    +0.000 OA
ATOM     11  O   UNL     1       4.820   2.216  20.188  0.00  0.00    +0.000 OA
BRANCH   9  12
ATOM     12  N   UNL     1       4.125   1.572  17.890  0.00  0.00    +0.000 NA
ATOM     13  H   UNL     1       3.348   1.597  17.227  0.00  0.00    +0.000 HD
ATOM     14  H   UNL     1       4.479   0.634  18.078  0.00  0.00    +0.000 HD
ENDBRANCH   9  12
ENDBRANCH   3   9
ENDBRANCH   1   6
BRANCH   1  15
ATOM     15  C   UNL     1       1.540   8.670  17.836  0.00  0.00    +0.000 C 
BRANCH  15  16
ATOM     16  C   UNL     1       1.307   9.673  18.911  0.00  0.00    +0.000 A 
ATOM     17  C   UNL     1       1.119  10.994  18.771  0.00  0.00    +0.000 A 
ATOM     18  O   UNL     1       0.947  11.908  19.783  0.00  0.00    +0.000 OA
ATOM     19  C   UNL     1       0.433  11.399  20.947  0.00  0.00    +0.000 A 
ATOM     20  C   UNL     1      -0.226  12.287  21.790  0.00  0.00    +0.000 A 
ATOM     21  C   UNL     1      -0.982  11.782  22.844  0.00  0.00    +0.000 A 
ATOM     22  C   UNL     1      -1.035  10.403  23.075  0.00  0.00    +0.000 A 
ATOM     23  C   UNL     1      -0.279   9.523  22.295  0.00  0.00    +0.000 A 
ATOM     24  C   UNL     1       0.460  10.034  21.230  0.00  0.00    +0.000 A 
ATOM     25  C   UNL     1       1.181   9.150  20.299  0.00  0.00    +0.000 A 
ATOM     26  O   UNL     1       1.588   8.040  20.621  0.00  0.00    +0.000 OA
ENDBRANCH  15  16
ENDBRANCH   1  15
TORSDOF 5
ENDMDL
