MODEL 1
REMARK VINA RESULT:      -6.9      0.000      0.000
REMARK  Name = 
REMARK  11 active torsions:
REMARK  status: ('A' for Active; 'I' for Inactive)
REMARK    1  A    between atoms: C_1  and  C_2
REMARK    2  A    between atoms: C_2  and  C_3
REMARK    3  A    between atoms: C_3  and  C_4
REMARK    4  A    between atoms: C_4  and  C_5
REMARK    5  A    between atoms: N_9  and  C_10
REMARK    6  A    between atoms: C_10  and  C_11
REMARK    7  A    between atoms: C_11  and  O_12
REMARK    8  A    between atoms: C_11  and  P_13
REMARK    9  A    between atoms: C_11  and  P_17
REMARK   10  A    between atoms: P_13  and  O_16
REMARK   11  A    between atoms: P_17  and  O_20
REMARK                            x       y       z     vdW  Elec       q    Type
REMARK                         _______ _______ _______ _____ _____    ______ ____
ROOT
ATOM      1  C   UNL     1       3.524   4.347  19.651  0.00  0.00    +0.000 C 
ENDROOT
BRANCH   1   2
ATOM      2  P   UNL     1       2.178   4.212  18.418  0.00  0.00    +0.000 P 
ATOM      3  O   UNL     1       2.300   5.682  17.953  0.00  0.00    +0.000 OA
ATOM      4  O   UNL     1       1.058   3.986  19.446  0.00  0.00    +0.000 OA
BRANCH   2   5
ATOM      5  O   UNL     1       0.906   4.083  17.252  0.00  0.00    +0.000 OA
ATOM      6  H   UNL     1       1.173   4.839  16.689  0.00  0.00    +0.000 HD
ENDBRANCH   2   5
ENDBRANCH   1   2
BRANCH   1   7
ATOM      7  P   UNL     1       4.327   2.716  19.860  0.00  0.00    +0.000 P 
ATOM      8  O   UNL     1       3.634   2.397  21.219  0.00  0.00    +0.000 OA
ATOM      9  O   UNL     1       3.704   2.107  18.601  0.00  0.00    +0.000 OA
BRANCH   7  10
ATOM     10  O   UNL     1       5.087   1.174  20.056  0.00  0.00    +0.000 OA
ATOM     11  H   UNL     1       4.320   0.765  20.523  0.00  0.00    +0.000 HD
ENDBRANCH   7  10
ENDBRANCH   1   7
BRANCH   1  12
ATOM     12  O   UNL     1       2.818   4.574  20.915  0.00  0.00    +0.000 OA
ATOM     13  H   UNL     1       2.115   5.217  20.641  0.00  0.00    +0.000 HD
ENDBRANCH   1  12
BRANCH   1  14
ATOM     14  C   UNL     1       4.496   5.524  19.392  0.00  0.00    +0.000 C 
BRANCH  14  19
ATOM     15  C   UNL     1       6.280   4.985  17.609  0.00  0.00    +0.000 A 
ATOM     16  C   UNL     1       7.645   4.840  17.777  0.00  0.00    +0.000 A 
ATOM     17  N   UNL     1       7.992   5.101  19.061  0.00  0.00    +0.000 NA
ATOM     18  N   UNL     1       6.884   5.380  19.727  0.00  0.00    +0.000 NA
ATOM     19  N   UNL     1       5.827   5.204  18.899  0.00  0.00    +0.000 N 
BRANCH  15  20
ATOM     20  C   UNL     1       5.491   4.885  16.356  0.00  0.00    +0.000 C 
BRANCH  20  21
ATOM     21  C   UNL     1       5.951   3.820  15.341  0.00  0.00    +0.000 C 
BRANCH  21  23
ATOM     22  C   UNL     1       6.032   3.527  12.780  0.00  0.00    +0.000 C 
ATOM     23  C   UNL     1       6.490   4.321  13.994  0.00  0.00    +0.000 C 
ENDBRANCH  21  23
ENDBRANCH  20  21
ENDBRANCH  15  20
ENDBRANCH  14  19
ENDBRANCH   1  14
TORSDOF 10
ENDMDL
MODEL 2
REMARK VINA RESULT:      -6.8      3.662      4.805
REMARK  Name = 
REMARK  11 active torsions:
REMARK  status: ('A' for Active; 'I' for Inactive)
REMARK    1  A    between atoms: C_1  and  C_2
REMARK    2  A    between atoms: C_2  and  C_3
REMARK    3  A    between atoms: C_3  and  C_4
REMARK    4  A    between atoms: C_4  and  C_5
REMARK    5  A    between atoms: N_9  and  C_10
REMARK    6  A    between atoms: C_10  and  C_11
REMARK    7  A    between atoms: C_11  and  O_12
REMARK    8  A    between atoms: C_11  and  P_13
REMARK    9  A    between atoms: C_11  and  P_17
REMARK   10  A    between atoms: P_13  and  O_16
REMARK   11  A    between atoms: P_17  and  O_20
REMARK                            x       y       z     vdW  Elec       q    Type
REMARK                         _______ _______ _______ _____ _____    ______ ____
ROOT
ATOM      1  C   UNL     1       5.808   5.311  16.473  0.00  0.00    +0.000 C 
ENDROOT
BRANCH   1   2
ATOM      2  P   UNL     1       4.189   5.008  17.271  0.00  0.00    +0.000 P 
ATOM      3  O   UNL     1       3.881   6.509  17.479  0.00  0.00    +0.000 OA
ATOM      4  O   UNL     1       4.767   4.322  18.520  0.00  0.00    +0.000 OA
BRANCH   2   5
ATOM      5  O   UNL     1       2.659   4.721  18.026  0.00  0.00    +0.000 OA
ATOM      6  H   UNL     1       2.468   5.647  18.282  0.00  0.00    +0.000 HD
ENDBRANCH   2   5
ENDBRANCH   1   2
BRANCH   1   7
ATOM      7  P   UNL     1       6.994   5.938  17.717  0.00  0.00    +0.000 P 
ATOM      8  O   UNL     1       7.971   4.730  17.594  0.00  0.00    +0.000 OA
ATOM      9  O   UNL     1       7.347   7.203  16.929  0.00  0.00    +0.000 OA
BRANCH   7  10
ATOM     10  O   UNL     1       8.114   6.533  18.894  0.00  0.00    +0.000 OA
ATOM     11  H   UNL     1       7.428   6.698  19.582  0.00  0.00    +0.000 HD
ENDBRANCH   7  10
ENDBRANCH   1   7
BRANCH   1  12
ATOM     12  O   UNL     1       5.556   6.456  15.595  0.00  0.00    +0.000 OA
ATOM     13  H   UNL     1       4.589   6.353  15.402  0.00  0.00    +0.000 HD
ENDBRANCH   1  12
BRANCH   1  14
ATOM     14  C   UNL     1       6.322   4.121  15.624  0.00  0.00    +0.000 C 
BRANCH  14  19
ATOM     15  C   UNL     1       6.443   4.012  13.050  0.00  0.00    +0.000 A 
ATOM     16  C   UNL     1       7.284   4.706  12.201  0.00  0.00    +0.000 A 
ATOM     17  N   UNL     1       8.052   5.575  12.903  0.00  0.00    +0.000 NA
ATOM     18  N   UNL     1       7.747   5.434  14.183  0.00  0.00    +0.000 NA
ATOM     19  N   UNL     1       6.862   4.417  14.306  0.00  0.00    +0.000 N 
BRANCH  15  20
ATOM     20  C   UNL     1       5.381   3.036  12.700  0.00  0.00    +0.000 C 
BRANCH  20  21
ATOM     21  C   UNL     1       4.863   3.081  11.249  0.00  0.00    +0.000 C 
BRANCH  21  23
ATOM     22  C   UNL     1       3.087   3.860   9.548  0.00  0.00    +0.000 C 
ATOM     23  C   UNL     1       3.546   3.830  10.997  0.00  0.00    +0.000 C 
ENDBRANCH  21  23
ENDBRANCH  20  21
ENDBRANCH  15  20
ENDBRANCH  14  19
ENDBRANCH   1  14
TORSDOF 10
ENDMDL
MODEL 3
REMARK VINA RESULT:      -6.8      3.932      5.610
REMARK  Name = 
REMARK  11 active torsions:
REMARK  status: ('A' for Active; 'I' for Inactive)
REMARK    1  A    between atoms: C_1  and  C_2
REMARK    2  A    between atoms: C_2  and  C_3
REMARK    3  A    between atoms: C_3  and  C_4
REMARK    4  A    between atoms: C_4  and  C_5
REMARK    5  A    between atoms: N_9  and  C_10
REMARK    6  A    between atoms: C_10  and  C_11
REMARK    7  A    between atoms: C_11  and  O_12
REMARK    8  A    between atoms: C_11  and  P_13
REMARK    9  A    between atoms: C_11  and  P_17
REMARK   10  A    between atoms: P_13  and  O_16
REMARK   11  A    between atoms: P_17  and  O_20
REMARK                            x       y       z     vdW  Elec       q    Type
REMARK                         _______ _______ _______ _____ _____    ______ ____
ROOT
ATOM      1  C   UNL     1       5.580   4.641  16.963  0.00  0.00    +0.000 C 
ENDROOT
BRANCH   1   2
ATOM      2  P   UNL     1       6.655   5.026  15.533  0.00  0.00    +0.000 P 
ATOM      3  O   UNL     1       5.785   6.210  15.051  0.00  0.00    +0.000 OA
ATOM      4  O   UNL     1       6.375   3.714  14.781  0.00  0.00    +0.000 OA
BRANCH   2   5
ATOM      5  O   UNL     1       7.671   5.389  14.181  0.00  0.00    +0.000 OA
ATOM      6  H   UNL     1       7.117   6.097  13.791  0.00  0.00    +0.000 HD
ENDBRANCH   2   5
ENDBRANCH   1   2
BRANCH   1   7
ATOM      7  P   UNL     1       6.477   5.005  18.516  0.00  0.00    +0.000 P 
ATOM      8  O   UNL     1       7.805   4.322  18.069  0.00  0.00    +0.000 OA
ATOM      9  O   UNL     1       6.388   6.526  18.360  0.00  0.00    +0.000 OA
BRANCH   7  10
ATOM     10  O   UNL     1       7.324   5.350  19.985  0.00  0.00    +0.000 OA
ATOM     11  H   UNL     1       7.939   6.001  19.572  0.00  0.00    +0.000 HD
ENDBRANCH   7  10
ENDBRANCH   1   7
BRANCH   1  12
ATOM     12  O   UNL     1       5.471   3.180  16.936  0.00  0.00    +0.000 OA
ATOM     13  H   UNL     1       4.663   3.027  17.491  0.00  0.00    +0.000 HD
ENDBRANCH   1  12
BRANCH   1  14
ATOM     14  C   UNL     1       4.163   5.259  16.868  0.00  0.00    +0.000 C 
BRANCH  14  19
ATOM     15  C   UNL     1       2.492   5.022  18.818  0.00  0.00    +0.000 A 
ATOM     16  C   UNL     1       1.490   4.084  18.981  0.00  0.00    +0.000 A 
ATOM     17  N   UNL     1       1.418   3.278  17.893  0.00  0.00    +0.000 NA
ATOM     18  N   UNL     1       2.366   3.656  17.051  0.00  0.00    +0.000 NA
ATOM     19  N   UNL     1       3.100   4.631  17.638  0.00  0.00    +0.000 N 
BRANCH  15  20
ATOM     20  C   UNL     1       2.855   6.148  19.717  0.00  0.00    +0.000 C 
BRANCH  20  21
ATOM     21  C   UNL     1       2.135   7.486  19.460  0.00  0.00    +0.000 C 
BRANCH  21  23
ATOM     22  C   UNL     1       1.718   9.508  17.914  0.00  0.00    +0.000 C 
ATOM     23  C   UNL     1       2.275   8.101  18.060  0.00  0.00    +0.000 C 
ENDBRANCH  21  23
ENDBRANCH  20  21
ENDBRANCH  15  20
ENDBRANCH  14  19
ENDBRANCH   1  14
TORSDOF 10
ENDMDL
MODEL 4
REMARK VINA RESULT:      -6.8      3.228      4.271
REMARK  Name = 
REMARK  11 active torsions:
REMARK  status: ('A' for Active; 'I' for Inactive)
REMARK    1  A    between atoms: C_1  and  C_2
REMARK    2  A    between atoms: C_2  and  C_3
REMARK    3  A    between atoms: C_3  and  C_4
REMARK    4  A    between atoms: C_4  and  C_5
REMARK    5  A    between atoms: N_9  and  C_10
REMARK    6  A    between atoms: C_10  and  C_11
REMARK    7  A    between atoms: C_11  and  O_12
REMARK    8  A    between atoms: C_11  and  P_13
REMARK    9  A    between atoms: C_11  and  P_17
REMARK   10  A    between atoms: P_13  and  O_16
REMARK   11  A    between atoms: P_17  and  O_20
REMARK                            x       y       z     vdW  Elec       q    Type
REMARK                         _______ _______ _______ _____ _____    ______ ____
ROOT
ATOM      1  C   UNL     1       5.771   5.210  17.270  0.00  0.00    +0.000 C 
ENDROOT
BRANCH   1   2
ATOM      2  P   UNL     1       4.145   5.163  18.109  0.00  0.00    +0.000 P 
ATOM      3  O   UNL     1       3.546   4.119  17.137  0.00  0.00    +0.000 OA
ATOM      4  O   UNL     1       3.760   6.611  17.766  0.00  0.00    +0.000 OA
BRANCH   2   5
ATOM      5  O   UNL     1       2.608   5.118  18.901  0.00  0.00    +0.000 OA
ATOM      6  H   UNL     1       2.049   5.139  18.097  0.00  0.00    +0.000 HD
ENDBRANCH   2   5
ENDBRANCH   1   2
BRANCH   1   7
ATOM      7  P   UNL     1       7.100   5.326  18.523  0.00  0.00    +0.000 P 
ATOM      8  O   UNL     1       7.477   6.800  18.184  0.00  0.00    +0.000 OA
ATOM      9  O   UNL     1       6.168   5.102  19.717  0.00  0.00    +0.000 OA
BRANCH   7  10
ATOM     10  O   UNL     1       8.357   5.435  19.708  0.00  0.00    +0.000 OA
ATOM     11  H   UNL     1       8.625   6.350  19.457  0.00  0.00    +0.000 HD
ENDBRANCH   7  10
ENDBRANCH   1   7
BRANCH   1  12
ATOM     12  O   UNL     1       5.782   6.514  16.602  0.00  0.00    +0.000 OA
ATOM     13  H   UNL     1       6.550   6.417  15.982  0.00  0.00    +0.000 HD
ENDBRANCH   1  12
BRANCH   1  14
ATOM     14  C   UNL     1       5.966   4.094  16.214  0.00  0.00    +0.000 C 
BRANCH  14  19
ATOM     15  C   UNL     1       6.285   4.238  13.659  0.00  0.00    +0.000 A 
ATOM     16  C   UNL     1       7.279   4.892  12.954  0.00  0.00    +0.000 A 
ATOM     17  N   UNL     1       8.095   5.565  13.802  0.00  0.00    +0.000 NA
ATOM     18  N   UNL     1       7.669   5.335  15.034  0.00  0.00    +0.000 NA
ATOM     19  N   UNL     1       6.649   4.446  14.979  0.00  0.00    +0.000 N 
BRANCH  15  20
ATOM     20  C   UNL     1       5.135   3.465  13.128  0.00  0.00    +0.000 C 
BRANCH  20  21
ATOM     21  C   UNL     1       5.014   3.388  11.593  0.00  0.00    +0.000 C 
BRANCH  21  23
ATOM     22  C   UNL     1       3.160   4.004   9.909  0.00  0.00    +0.000 C 
ATOM     23  C   UNL     1       3.628   3.070  11.013  0.00  0.00    +0.000 C 
ENDBRANCH  21  23
ENDBRANCH  20  21
ENDBRANCH  15  20
ENDBRANCH  14  19
ENDBRANCH   1  14
TORSDOF 10
ENDMDL
MODEL 5
REMARK VINA RESULT:      -6.8      3.915      5.887
REMARK  Name = 
REMARK  11 active torsions:
REMARK  status: ('A' for Active; 'I' for Inactive)
REMARK    1  A    between atoms: C_1  and  C_2
REMARK    2  A    between atoms: C_2  and  C_3
REMARK    3  A    between atoms: C_3  and  C_4
REMARK    4  A    between atoms: C_4  and  C_5
REMARK    5  A    between atoms: N_9  and  C_10
REMARK    6  A    between atoms: C_10  and  C_11
REMARK    7  A    between atoms: C_11  and  O_12
REMARK    8  A    between atoms: C_11  and  P_13
REMARK    9  A    between atoms: C_11  and  P_17
REMARK   10  A    between atoms: P_13  and  O_16
REMARK   11  A    between atoms: P_17  and  O_20
REMARK                            x       y       z     vdW  Elec       q    Type
REMARK                         _______ _______ _______ _____ _____    ______ ____
ROOT
ATOM      1  C   UNL     1       5.922   5.053  17.228  0.00  0.00    +0.000 C 
ENDROOT
BRANCH   1   2
ATOM      2  P   UNL     1       6.610   5.188  15.537  0.00  0.00    +0.000 P 
ATOM      3  O   UNL     1       5.554   6.215  15.066  0.00  0.00    +0.000 OA
ATOM      4  O   UNL     1       6.282   3.742  15.129  0.00  0.00    +0.000 OA
BRANCH   2   5
ATOM      5  O   UNL     1       7.259   5.315  13.939  0.00  0.00    +0.000 OA
ATOM      6  H   UNL     1       8.052   5.843  14.165  0.00  0.00    +0.000 HD
ENDBRANCH   2   5
ENDBRANCH   1   2
BRANCH   1   7
ATOM      7  P   UNL     1       7.164   5.637  18.439  0.00  0.00    +0.000 P 
ATOM      8  O   UNL     1       8.115   4.415  18.258  0.00  0.00    +0.000 OA
ATOM      9  O   UNL     1       7.509   6.910  17.663  0.00  0.00    +0.000 OA
BRANCH   7  10
ATOM     10  O   UNL     1       8.337   6.189  19.585  0.00  0.00    +0.000 OA
ATOM     11  H   UNL     1       8.982   6.488  18.902  0.00  0.00    +0.000 HD
ENDBRANCH   7  10
ENDBRANCH   1   7
BRANCH   1  12
ATOM     12  O   UNL     1       5.837   3.608  17.457  0.00  0.00    +0.000 OA
ATOM     13  H   UNL     1       5.168   3.336  16.777  0.00  0.00    +0.000 HD
ENDBRANCH   1  12
BRANCH   1  14
ATOM     14  C   UNL     1       4.514   5.678  17.385  0.00  0.00    +0.000 C 
BRANCH  14  19
ATOM     15  C   UNL     1       2.358   4.816  18.507  0.00  0.00    +0.000 A 
ATOM     16  C   UNL     1       1.559   3.753  18.127  0.00  0.00    +0.000 A 
ATOM     17  N   UNL     1       2.016   3.209  16.972  0.00  0.00    +0.000 NA
ATOM     18  N   UNL     1       3.103   3.874  16.618  0.00  0.00    +0.000 NA
ATOM     19  N   UNL     1       3.393   4.773  17.589  0.00  0.00    +0.000 N 
BRANCH  15  20
ATOM     20  C   UNL     1       2.172   5.746  19.649  0.00  0.00    +0.000 C 
BRANCH  20  21
ATOM     21  C   UNL     1       1.542   5.147  20.922  0.00  0.00    +0.000 C 
BRANCH  21  23
ATOM     22  C   UNL     1       1.454   2.663  21.610  0.00  0.00    +0.000 C 
ATOM     23  C   UNL     1       2.260   3.951  21.564  0.00  0.00    +0.000 C 
ENDBRANCH  21  23
ENDBRANCH  20  21
ENDBRANCH  15  20
ENDBRANCH  14  19
ENDBRANCH   1  14
TORSDOF 10
ENDMDL
MODEL 6
REMARK VINA RESULT:      -6.8      1.286      2.648
REMARK  Name = 
REMARK  11 active torsions:
REMARK  status: ('A' for Active; 'I' for Inactive)
REMARK    1  A    between atoms: C_1  and  C_2
REMARK    2  A    between atoms: C_2  and  C_3
REMARK    3  A    between atoms: C_3  and  C_4
REMARK    4  A    between atoms: C_4  and  C_5
REMARK    5  A    between atoms: N_9  and  C_10
REMARK    6  A    between atoms: C_10  and  C_11
REMARK    7  A    between atoms: C_11  and  O_12
REMARK    8  A    between atoms: C_11  and  P_13
REMARK    9  A    between atoms: C_11  and  P_17
REMARK   10  A    between atoms: P_13  and  O_16
REMARK   11  A    between atoms: P_17  and  O_20
REMARK                            x       y       z     vdW  Elec       q    Type
REMARK                         _______ _______ _______ _____ _____    ______ ____
ROOT
ATOM      1  C   UNL     1       3.804   3.612  19.468  0.00  0.00    +0.000 C 
ENDROOT
BRANCH   1   2
ATOM      2  P   UNL     1       2.640   3.083  20.778  0.00  0.00    +0.000 P 
ATOM      3  O   UNL     1       2.459   4.508  21.352  0.00  0.00    +0.000 OA
ATOM      4  O   UNL     1       3.664   2.237  21.552  0.00  0.00    +0.000 OA
BRANCH   2   5
ATOM      5  O   UNL     1       1.540   2.584  22.016  0.00  0.00    +0.000 OA
ATOM      6  H   UNL     1       0.882   2.150  21.435  0.00  0.00    +0.000 HD
ENDBRANCH   2   5
ENDBRANCH   1   2
BRANCH   1   7
ATOM      7  P   UNL     1       3.043   3.333  17.827  0.00  0.00    +0.000 P 
ATOM      8  O   UNL     1       2.165   2.130  18.288  0.00  0.00    +0.000 OA
ATOM      9  O   UNL     1       2.368   4.706  17.766  0.00  0.00    +0.000 OA
BRANCH   7  10
ATOM     10  O   UNL     1       2.325   3.069  16.275  0.00  0.00    +0.000 OA
ATOM     11  H   UNL     1       1.532   3.626  16.458  0.00  0.00    +0.000 HD
ENDBRANCH   7  10
ENDBRANCH   1   7
BRANCH   1  12
ATOM     12  O   UNL     1       4.886   2.627  19.544  0.00  0.00    +0.000 OA
ATOM     13  H   UNL     1       4.801   2.166  18.670  0.00  0.00    +0.000 HD
ENDBRANCH   1  12
BRANCH   1  14
ATOM     14  C   UNL     1       4.389   5.030  19.683  0.00  0.00    +0.000 C 
BRANCH  14  19
ATOM     15  C   UNL     1       6.088   6.061  18.039  0.00  0.00    +0.000 A 
ATOM     16  C   UNL     1       7.469   6.032  18.103  0.00  0.00    +0.000 A 
ATOM     17  N   UNL     1       7.876   5.423  19.243  0.00  0.00    +0.000 NA
ATOM     18  N   UNL     1       6.795   5.033  19.897  0.00  0.00    +0.000 NA
ATOM     19  N   UNL     1       5.709   5.305  19.136  0.00  0.00    +0.000 N 
BRANCH  15  20
ATOM     20  C   UNL     1       5.226   6.707  17.018  0.00  0.00    +0.000 C 
BRANCH  20  21
ATOM     21  C   UNL     1       5.305   6.127  15.591  0.00  0.00    +0.000 C 
BRANCH  21  23
ATOM     22  C   UNL     1       5.564   4.056  14.077  0.00  0.00    +0.000 C 
ATOM     23  C   UNL     1       5.774   4.671  15.451  0.00  0.00    +0.000 C 
ENDBRANCH  21  23
ENDBRANCH  20  21
ENDBRANCH  15  20
ENDBRANCH  14  19
ENDBRANCH   1  14
TORSDOF 10
ENDMDL
MODEL 7
REMARK VINA RESULT:      -6.7      3.692      5.598
REMARK  Name = 
REMARK  11 active torsions:
REMARK  status: ('A' for Active; 'I' for Inactive)
REMARK    1  A    between atoms: C_1  and  C_2
REMARK    2  A    between atoms: C_2  and  C_3
REMARK    3  A    between atoms: C_3  and  C_4
REMARK    4  A    between atoms: C_4  and  C_5
REMARK    5  A    between atoms: N_9  and  C_10
REMARK    6  A    between atoms: C_10  and  C_11
REMARK    7  A    between atoms: C_11  and  O_12
REMARK    8  A    between atoms: C_11  and  P_13
REMARK    9  A    between atoms: C_11  and  P_17
REMARK   10  A    between atoms: P_13  and  O_16
REMARK   11  A    between atoms: P_17  and  O_20
REMARK                            x       y       z     vdW  Elec       q    Type
REMARK                         _______ _______ _______ _____ _____    ______ ____
ROOT
ATOM      1  C   UNL     1       5.609   4.976  17.665  0.00  0.00    +0.000 C 
ENDROOT
BRANCH   1   2
ATOM      2  P   UNL     1       5.350   6.068  16.219  0.00  0.00    +0.000 P 
ATOM      3  O   UNL     1       5.713   4.977  15.185  0.00  0.00    +0.000 OA
ATOM      4  O   UNL     1       6.514   7.018  16.542  0.00  0.00    +0.000 OA
BRANCH   2   5
ATOM      5  O   UNL     1       5.105   7.100  14.853  0.00  0.00    +0.000 OA
ATOM      6  H   UNL     1       4.983   7.938  15.346  0.00  0.00    +0.000 HD
ENDBRANCH   2   5
ENDBRANCH   1   2
BRANCH   1   7
ATOM      7  P   UNL     1       7.107   5.510  18.572  0.00  0.00    +0.000 P 
ATOM      8  O   UNL     1       6.487   5.306  19.987  0.00  0.00    +0.000 OA
ATOM      9  O   UNL     1       7.991   4.383  18.030  0.00  0.00    +0.000 OA
BRANCH   7  10
ATOM     10  O   UNL     1       8.523   6.015  19.428  0.00  0.00    +0.000 OA
ATOM     11  H   UNL     1       8.482   5.285  20.089  0.00  0.00    +0.000 HD
ENDBRANCH   7  10
ENDBRANCH   1   7
BRANCH   1  12
ATOM     12  O   UNL     1       5.979   3.689  17.069  0.00  0.00    +0.000 OA
ATOM     13  H   UNL     1       5.297   3.594  16.356  0.00  0.00    +0.000 HD
ENDBRANCH   1  12
BRANCH   1  14
ATOM     14  C   UNL     1       4.348   4.787  18.543  0.00  0.00    +0.000 C 
BRANCH  14  19
ATOM     15  C   UNL     1       3.007   2.720  19.303  0.00  0.00    +0.000 A 
ATOM     16  C   UNL     1       2.325   1.805  18.522  0.00  0.00    +0.000 A 
ATOM     17  N   UNL     1       2.372   2.170  17.218  0.00  0.00    +0.000 NA
ATOM     18  N   UNL     1       3.092   3.277  17.138  0.00  0.00    +0.000 NA
ATOM     19  N   UNL     1       3.580   3.564  18.368  0.00  0.00    +0.000 N 
BRANCH  15  20
ATOM     20  C   UNL     1       3.129   2.758  20.782  0.00  0.00    +0.000 C 
BRANCH  20  21
ATOM     21  C   UNL     1       2.049   3.559  21.537  0.00  0.00    +0.000 C 
BRANCH  21  23
ATOM     22  C   UNL     1       1.632   5.957  20.684  0.00  0.00    +0.000 C 
ATOM     23  C   UNL     1       1.172   4.508  20.707  0.00  0.00    +0.000 C 
ENDBRANCH  21  23
ENDBRANCH  20  21
ENDBRANCH  15  20
ENDBRANCH  14  19
ENDBRANCH   1  14
TORSDOF 10
ENDMDL
MODEL 8
REMARK VINA RESULT:      -6.7      4.021      6.007
REMARK  Name = 
REMARK  11 active torsions:
REMARK  status: ('A' for Active; 'I' for Inactive)
REMARK    1  A    between atoms: C_1  and  C_2
REMARK    2  A    between atoms: C_2  and  C_3
REMARK    3  A    between atoms: C_3  and  C_4
REMARK    4  A    between atoms: C_4  and  C_5
REMARK    5  A    between atoms: N_9  and  C_10
REMARK    6  A    between atoms: C_10  and  C_11
REMARK    7  A    between atoms: C_11  and  O_12
REMARK    8  A    between atoms: C_11  and  P_13
REMARK    9  A    between atoms: C_11  and  P_17
REMARK   10  A    between atoms: P_13  and  O_16
REMARK   11  A    between atoms: P_17  and  O_20
REMARK                            x       y       z     vdW  Elec       q    Type
REMARK                         _______ _______ _______ _____ _____    ______ ____
ROOT
ATOM      1  C   UNL     1       5.755   4.888  17.170  0.00  0.00    +0.000 C 
ENDROOT
BRANCH   1   2
ATOM      2  P   UNL     1       6.723   5.106  15.632  0.00  0.00    +0.000 P 
ATOM      3  O   UNL     1       5.750   6.147  15.031  0.00  0.00    +0.000 OA
ATOM      4  O   UNL     1       6.492   3.679  15.109  0.00  0.00    +0.000 OA
BRANCH   2   5
ATOM      5  O   UNL     1       7.637   5.311  14.178  0.00  0.00    +0.000 OA
ATOM      6  H   UNL     1       7.026   5.930  13.729  0.00  0.00    +0.000 HD
ENDBRANCH   2   5
ENDBRANCH   1   2
BRANCH   1   7
ATOM      7  P   UNL     1       6.811   5.269  18.615  0.00  0.00    +0.000 P 
ATOM      8  O   UNL     1       5.849   4.626  19.659  0.00  0.00    +0.000 OA
ATOM      9  O   UNL     1       7.991   4.418  18.137  0.00  0.00    +0.000 OA
BRANCH   7  10
ATOM     10  O   UNL     1       7.810   5.631  19.980  0.00  0.00    +0.000 OA
ATOM     11  H   UNL     1       8.095   6.512  19.641  0.00  0.00    +0.000 HD
ENDBRANCH   7  10
ENDBRANCH   1   7
BRANCH   1  12
ATOM     12  O   UNL     1       5.539   3.440  17.245  0.00  0.00    +0.000 OA
ATOM     13  H   UNL     1       4.552   3.388  17.331  0.00  0.00    +0.000 HD
ENDBRANCH   1  12
BRANCH   1  14
ATOM     14  C   UNL     1       4.384   5.607  17.156  0.00  0.00    +0.000 C 
BRANCH  14  19
ATOM     15  C   UNL     1       2.450   5.298  18.834  0.00  0.00    +0.000 A 
ATOM     16  C   UNL     1       1.497   4.297  18.871  0.00  0.00    +0.000 A 
ATOM     17  N   UNL     1       1.646   3.465  17.810  0.00  0.00    +0.000 NA
ATOM     18  N   UNL     1       2.687   3.889  17.112  0.00  0.00    +0.000 NA
ATOM     19  N   UNL     1       3.257   4.924  17.773  0.00  0.00    +0.000 N 
BRANCH  15  20
ATOM     20  C   UNL     1       2.596   6.464  19.742  0.00  0.00    +0.000 C 
BRANCH  20  21
ATOM     21  C   UNL     1       1.418   6.736  20.699  0.00  0.00    +0.000 C 
BRANCH  21  23
ATOM     22  C   UNL     1      -0.189   8.534  21.613  0.00  0.00    +0.000 C 
ATOM     23  C   UNL     1       1.225   8.182  21.179  0.00  0.00    +0.000 C 
ENDBRANCH  21  23
ENDBRANCH  20  21
ENDBRANCH  15  20
ENDBRANCH  14  19
ENDBRANCH   1  14
TORSDOF 10
ENDMDL
MODEL 9
REMARK VINA RESULT:      -6.7      1.369      2.624
REMARK  Name = 
REMARK  11 active torsions:
REMARK  status: ('A' for Active; 'I' for Inactive)
REMARK    1  A    between atoms: C_1  and  C_2
REMARK    2  A    between atoms: C_2  and  C_3
REMARK    3  A    between atoms: C_3  and  C_4
REMARK    4  A    between atoms: C_4  and  C_5
REMARK    5  A    between atoms: N_9  and  C_10
REMARK    6  A    between atoms: C_10  and  C_11
REMARK    7  A    between atoms: C_11  and  O_12
REMARK    8  A    between atoms: C_11  and  P_13
REMARK    9  A    between atoms: C_11  and  P_17
REMARK   10  A    between atoms: P_13  and  O_16
REMARK   11  A    between atoms: P_17  and  O_20
REMARK                            x       y       z     vdW  Elec       q    Type
REMARK                         _______ _______ _______ _____ _____    ______ ____
ROOT
ATOM      1  C   UNL     1       3.840   3.603  19.530  0.00  0.00    +0.000 C 
ENDROOT
BRANCH   1   2
ATOM      2  P   UNL     1       2.767   3.050  20.906  0.00  0.00    +0.000 P 
ATOM      3  O   UNL     1       1.852   2.192  20.002  0.00  0.00    +0.000 OA
ATOM      4  O   UNL     1       2.193   4.443  21.213  0.00  0.00    +0.000 OA
BRANCH   2   5
ATOM      5  O   UNL     1       1.754   2.529  22.208  0.00  0.00    +0.000 OA
ATOM      6  H   UNL     1       1.161   1.950  21.684  0.00  0.00    +0.000 HD
ENDBRANCH   2   5
ENDBRANCH   1   2
BRANCH   1   7
ATOM      7  P   UNL     1       3.001   3.279  17.936  0.00  0.00    +0.000 P 
ATOM      8  O   UNL     1       2.380   4.703  17.817  0.00  0.00    +0.000 OA
ATOM      9  O   UNL     1       4.296   3.017  17.162  0.00  0.00    +0.000 OA
BRANCH   7  10
ATOM     10  O   UNL     1       2.208   2.971  16.429  0.00  0.00    +0.000 OA
ATOM     11  H   UNL     1       3.032   2.700  15.958  0.00  0.00    +0.000 HD
ENDBRANCH   7  10
ENDBRANCH   1   7
BRANCH   1  12
ATOM     12  O   UNL     1       4.957   2.656  19.556  0.00  0.00    +0.000 OA
ATOM     13  H   UNL     1       4.484   1.786  19.602  0.00  0.00    +0.000 HD
ENDBRANCH   1  12
BRANCH   1  14
ATOM     14  C   UNL     1       4.386   5.042  19.698  0.00  0.00    +0.000 C 
BRANCH  14  19
ATOM     15  C   UNL     1       6.007   6.080  17.982  0.00  0.00    +0.000 A 
ATOM     16  C   UNL     1       7.389   6.100  18.010  0.00  0.00    +0.000 A 
ATOM     17  N   UNL     1       7.846   5.537  19.156  0.00  0.00    +0.000 NA
ATOM     18  N   UNL     1       6.795   5.131  19.849  0.00  0.00    +0.000 NA
ATOM     19  N   UNL     1       5.682   5.345  19.109  0.00  0.00    +0.000 N 
BRANCH  15  20
ATOM     20  C   UNL     1       5.098   6.668  16.966  0.00  0.00    +0.000 C 
BRANCH  20  21
ATOM     21  C   UNL     1       5.208   6.096  15.538  0.00  0.00    +0.000 C 
BRANCH  21  23
ATOM     22  C   UNL     1       6.000   4.006  14.252  0.00  0.00    +0.000 C 
ATOM     23  C   UNL     1       6.330   5.082  15.274  0.00  0.00    +0.000 C 
ENDBRANCH  21  23
ENDBRANCH  20  21
ENDBRANCH  15  20
ENDBRANCH  14  19
ENDBRANCH   1  14
TORSDOF 10
ENDMDL
