MODEL 1
REMARK VINA RESULT:      -6.9      0.000      0.000
REMARK  Name = 
REMARK  8 active torsions:
REMARK  status: ('A' for Active; 'I' for Inactive)
REMARK    1  A    between atoms: C_1  and  C_2
REMARK    2  A    between atoms: C_2  and  N_3
REMARK    3  A    between atoms: N_3  and  C_4
REMARK    4  A    between atoms: N_3  and  C_6
REMARK    5  A    between atoms: C_4  and  C_5
REMARK    6  A    between atoms: C_6  and  C_7
REMARK    7  A    between atoms: C_7  and  N_8
REMARK    8  A    between atoms: C_9  and  C_11
REMARK                            x       y       z     vdW  Elec       q    Type
REMARK                         _______ _______ _______ _____ _____    ______ ____
ROOT
ATOM      1  N   UNL     1       6.561   4.152  14.166  0.00  0.00    +0.000 N 
ATOM      2  C   UNL     1       6.827   4.929  15.277  0.00  0.00    +0.000 C 
ATOM      3  O   UNL     1       7.672   5.821  15.286  0.00  0.00    +0.000 OA
ATOM      4  H   UNL     1       5.769   3.518  14.188  0.00  0.00    +0.000 HD
ENDROOT
BRANCH   2   5
ATOM      5  C   UNL     1       6.035   4.633  16.502  0.00  0.00    +0.000 A 
ATOM      6  C   UNL     1       6.677   4.599  17.727  0.00  0.00    +0.000 A 
ATOM      7  N   UNL     1       6.027   4.296  18.877  0.00  0.00    +0.000 NA
ATOM      8  C   UNL     1       4.716   4.015  18.766  0.00  0.00    +0.000 A 
ATOM      9  C   UNL     1       4.001   3.677  19.907  0.00  0.00    +0.000 A 
ATOM     10  C   UNL     1       2.646   3.368  19.835  0.00  0.00    +0.000 A 
ATOM     11  I   UNL     1       1.607   2.847  21.556  0.00  0.00    +0.000 I 
ATOM     12  C   UNL     1       1.988   3.402  18.610  0.00  0.00    +0.000 A 
ATOM     13  C   UNL     1       2.701   3.749  17.458  0.00  0.00    +0.000 A 
ATOM     14  C   UNL     1       4.054   4.056  17.507  0.00  0.00    +0.000 A 
ATOM     15  N   UNL     1       4.706   4.372  16.368  0.00  0.00    +0.000 NA
ENDBRANCH   2   5
BRANCH   1  16
ATOM     16  C   UNL     1       7.279   4.378  12.929  0.00  0.00    +0.000 C 
BRANCH  16  17
ATOM     17  C   UNL     1       6.624   3.743  11.687  0.00  0.00    +0.000 C 
BRANCH  17  18
ATOM     18  N   UNL     1       5.434   2.897  11.943  0.00  0.00    +0.000 NA
BRANCH  18  20
ATOM     19  C   UNL     1       3.489   3.202  10.361  0.00  0.00    +0.000 C 
ATOM     20  C   UNL     1       4.183   3.620  11.653  0.00  0.00    +0.000 C 
ENDBRANCH  18  20
BRANCH  18  21
ATOM     21  C   UNL     1       5.546   1.602  11.244  0.00  0.00    +0.000 C 
ATOM     22  C   UNL     1       6.958   1.121  10.906  0.00  0.00    +0.000 C 
ENDBRANCH  18  21
ENDBRANCH  17  18
ENDBRANCH  16  17
ENDBRANCH   1  16
TORSDOF 6
ENDMDL
MODEL 2
REMARK VINA RESULT:      -6.4      5.591      7.460
REMARK  Name = 
REMARK  8 active torsions:
REMARK  status: ('A' for Active; 'I' for Inactive)
REMARK    1  A    between atoms: C_1  and  C_2
REMARK    2  A    between atoms: C_2  and  N_3
REMARK    3  A    between atoms: N_3  and  C_4
REMARK    4  A    between atoms: N_3  and  C_6
REMARK    5  A    between atoms: C_4  and  C_5
REMARK    6  A    between atoms: C_6  and  C_7
REMARK    7  A    between atoms: C_7  and  N_8
REMARK    8  A    between atoms: C_9  and  C_11
REMARK                            x       y       z     vdW  Elec       q    Type
REMARK                         _______ _______ _______ _____ _____    ______ ____
ROOT
ATOM      1  N   UNL     1       3.642   6.043  19.840  0.00  0.00    +0.000 N 
ATOM      2  C   UNL     1       2.754   6.617  18.950  0.00  0.00    +0.000 C 
ATOM      3  O   UNL     1       2.608   6.219  17.797  0.00  0.00    +0.000 OA
ATOM      4  H   UNL     1       3.626   6.339  20.811  0.00  0.00    +0.000 HD
ENDROOT
BRANCH   2   5
ATOM      5  C   UNL     1       1.963   7.773  19.452  0.00  0.00    +0.000 A 
ATOM      6  C   UNL     1       1.751   8.856  18.618  0.00  0.00    +0.000 A 
ATOM      7  N   UNL     1       1.075   9.960  19.022  0.00  0.00    +0.000 NA
ATOM      8  C   UNL     1       0.627   9.955  20.290  0.00  0.00    +0.000 A 
ATOM      9  C   UNL     1      -0.055  11.066  20.767  0.00  0.00    +0.000 A 
ATOM     10  C   UNL     1      -0.526  11.107  22.077  0.00  0.00    +0.000 A 
ATOM     11  I   UNL     1      -1.524  12.792  22.768  0.00  0.00    +0.000 I 
ATOM     12  C   UNL     1      -0.321  10.024  22.924  0.00  0.00    +0.000 A 
ATOM     13  C   UNL     1       0.358   8.898  22.447  0.00  0.00    +0.000 A 
ATOM     14  C   UNL     1       0.840   8.839  21.146  0.00  0.00    +0.000 A 
ATOM     15  N   UNL     1       1.502   7.737  20.732  0.00  0.00    +0.000 NA
ENDBRANCH   2   5
BRANCH   1  16
ATOM     16  C   UNL     1       4.446   4.907  19.438  0.00  0.00    +0.000 C 
BRANCH  16  17
ATOM     17  C   UNL     1       5.934   5.231  19.205  0.00  0.00    +0.000 C 
BRANCH  17  18
ATOM     18  N   UNL     1       6.232   6.125  18.061  0.00  0.00    +0.000 NA
BRANCH  18  20
ATOM     19  C   UNL     1       7.766   8.081  17.615  0.00  0.00    +0.000 C 
ATOM     20  C   UNL     1       7.606   6.655  18.133  0.00  0.00    +0.000 C 
ENDBRANCH  18  20
BRANCH  18  21
ATOM     21  C   UNL     1       5.916   5.467  16.779  0.00  0.00    +0.000 C 
ATOM     22  C   UNL     1       6.882   4.380  16.305  0.00  0.00    +0.000 C 
ENDBRANCH  18  21
ENDBRANCH  17  18
ENDBRANCH  16  17
ENDBRANCH   1  16
TORSDOF 6
ENDMDL
MODEL 3
REMARK VINA RESULT:      -6.3      6.242      8.406
REMARK  Name = 
REMARK  8 active torsions:
REMARK  status: ('A' for Active; 'I' for Inactive)
REMARK    1  A    between atoms: C_1  and  C_2
REMARK    2  A    between atoms: C_2  and  N_3
REMARK    3  A    between atoms: N_3  and  C_4
REMARK    4  A    between atoms: N_3  and  C_6
REMARK    5  A    between atoms: C_4  and  C_5
REMARK    6  A    between atoms: C_6  and  C_7
REMARK    7  A    between atoms: C_7  and  N_8
REMARK    8  A    between atoms: C_9  and  C_11
REMARK                            x       y       z     vdW  Elec       q    Type
REMARK                         _______ _______ _______ _____ _____    ______ ____
ROOT
ATOM      1  N   UNL     1       2.519   6.600  19.411  0.00  0.00    +0.000 N 
ATOM      2  C   UNL     1       2.372   7.812  18.765  0.00  0.00    +0.000 C 
ATOM      3  O   UNL     1       2.977   8.102  17.736  0.00  0.00    +0.000 OA
ATOM      4  H   UNL     1       1.900   6.377  20.184  0.00  0.00    +0.000 HD
ENDROOT
BRANCH   2   5
ATOM      5  C   UNL     1       1.431   8.787  19.382  0.00  0.00    +0.000 A 
ATOM      6  C   UNL     1       0.960   9.842  18.621  0.00  0.00    +0.000 A 
ATOM      7  N   UNL     1       0.134  10.789  19.129  0.00  0.00    +0.000 NA
ATOM      8  C   UNL     1      -0.199  10.658  20.426  0.00  0.00    +0.000 A 
ATOM      9  C   UNL     1      -1.026  11.609  21.008  0.00  0.00    +0.000 A 
ATOM     10  C   UNL     1      -1.385  11.518  22.349  0.00  0.00    +0.000 A 
ATOM     11  I   UNL     1      -2.607  12.967  23.197  0.00  0.00    +0.000 I 
ATOM     12  C   UNL     1      -0.921  10.461  23.124  0.00  0.00    +0.000 A 
ATOM     13  C   UNL     1      -0.093   9.495  22.542  0.00  0.00    +0.000 A 
ATOM     14  C   UNL     1       0.281   9.570  21.207  0.00  0.00    +0.000 A 
ATOM     15  N   UNL     1       1.092   8.623  20.690  0.00  0.00    +0.000 NA
ENDBRANCH   2   5
BRANCH   1  16
ATOM     16  C   UNL     1       3.406   5.589  18.875  0.00  0.00    +0.000 C 
BRANCH  16  17
ATOM     17  C   UNL     1       3.137   4.164  19.395  0.00  0.00    +0.000 C 
BRANCH  17  18
ATOM     18  N   UNL     1       1.811   3.592  19.064  0.00  0.00    +0.000 NA
BRANCH  18  20
ATOM     19  C   UNL     1       3.365   1.830  18.136  0.00  0.00    +0.000 C 
ATOM     20  C   UNL     1       1.938   2.349  18.282  0.00  0.00    +0.000 C 
ENDBRANCH  18  20
BRANCH  18  21
ATOM     21  C   UNL     1       0.979   3.449  20.275  0.00  0.00    +0.000 C 
ATOM     22  C   UNL     1       1.650   2.830  21.503  0.00  0.00    +0.000 C 
ENDBRANCH  18  21
ENDBRANCH  17  18
ENDBRANCH  16  17
ENDBRANCH   1  16
TORSDOF 6
ENDMDL
MODEL 4
REMARK VINA RESULT:      -6.3      5.513      6.975
REMARK  Name = 
REMARK  8 active torsions:
REMARK  status: ('A' for Active; 'I' for Inactive)
REMARK    1  A    between atoms: C_1  and  C_2
REMARK    2  A    between atoms: C_2  and  N_3
REMARK    3  A    between atoms: N_3  and  C_4
REMARK    4  A    between atoms: N_3  and  C_6
REMARK    5  A    between atoms: C_4  and  C_5
REMARK    6  A    between atoms: C_6  and  C_7
REMARK    7  A    between atoms: C_7  and  N_8
REMARK    8  A    between atoms: C_9  and  C_11
REMARK                            x       y       z     vdW  Elec       q    Type
REMARK                         _______ _______ _______ _____ _____    ______ ____
ROOT
ATOM      1  N   UNL     1       3.250   6.422  17.820  0.00  0.00    +0.000 N 
ATOM      2  C   UNL     1       2.859   6.461  19.144  0.00  0.00    +0.000 C 
ATOM      3  O   UNL     1       3.141   5.581  19.954  0.00  0.00    +0.000 OA
ATOM      4  H   UNL     1       3.090   7.237  17.236  0.00  0.00    +0.000 HD
ENDROOT
BRANCH   2   5
ATOM      5  C   UNL     1       2.052   7.638  19.566  0.00  0.00    +0.000 A 
ATOM      6  C   UNL     1       1.853   8.673  18.670  0.00  0.00    +0.000 A 
ATOM      7  N   UNL     1       1.164   9.793  18.999  0.00  0.00    +0.000 NA
ATOM      8  C   UNL     1       0.690   9.856  20.256  0.00  0.00    +0.000 A 
ATOM      9  C   UNL     1      -0.005  10.988  20.658  0.00  0.00    +0.000 A 
ATOM     10  C   UNL     1      -0.502  11.098  21.954  0.00  0.00    +0.000 A 
ATOM     11  I   UNL     1      -1.522  12.813  22.532  0.00  0.00    +0.000 I 
ATOM     12  C   UNL     1      -0.310  10.064  22.863  0.00  0.00    +0.000 A 
ATOM     13  C   UNL     1       0.383   8.917  22.463  0.00  0.00    +0.000 A 
ATOM     14  C   UNL     1       0.891   8.789  21.177  0.00  0.00    +0.000 A 
ATOM     15  N   UNL     1       1.566   7.670  20.837  0.00  0.00    +0.000 NA
ENDBRANCH   2   5
BRANCH   1  16
ATOM     16  C   UNL     1       4.046   5.317  17.326  0.00  0.00    +0.000 C 
BRANCH  16  17
ATOM     17  C   UNL     1       5.448   5.716  16.825  0.00  0.00    +0.000 C 
BRANCH  17  18
ATOM     18  N   UNL     1       6.427   4.613  16.689  0.00  0.00    +0.000 NA
BRANCH  18  20
ATOM     19  C   UNL     1       5.928   4.173  14.253  0.00  0.00    +0.000 C 
ATOM     20  C   UNL     1       6.961   4.529  15.318  0.00  0.00    +0.000 C 
ENDBRANCH  18  20
BRANCH  18  21
ATOM     21  C   UNL     1       7.472   4.702  17.728  0.00  0.00    +0.000 C 
ATOM     22  C   UNL     1       7.637   6.052  18.426  0.00  0.00    +0.000 C 
ENDBRANCH  18  21
ENDBRANCH  17  18
ENDBRANCH  16  17
ENDBRANCH   1  16
TORSDOF 6
ENDMDL
MODEL 5
REMARK VINA RESULT:      -6.3      5.279      7.376
REMARK  Name = 
REMARK  8 active torsions:
REMARK  status: ('A' for Active; 'I' for Inactive)
REMARK    1  A    between atoms: C_1  and  C_2
REMARK    2  A    between atoms: C_2  and  N_3
REMARK    3  A    between atoms: N_3  and  C_4
REMARK    4  A    between atoms: N_3  and  C_6
REMARK    5  A    between atoms: C_4  and  C_5
REMARK    6  A    between atoms: C_6  and  C_7
REMARK    7  A    between atoms: C_7  and  N_8
REMARK    8  A    between atoms: C_9  and  C_11
REMARK                            x       y       z     vdW  Elec       q    Type
REMARK                         _______ _______ _______ _____ _____    ______ ____
ROOT
ATOM      1  N   UNL     1       2.754   5.658  18.131  0.00  0.00    +0.000 N 
ATOM      2  C   UNL     1       3.125   6.983  18.011  0.00  0.00    +0.000 C 
ATOM      3  O   UNL     1       4.127   7.347  17.400  0.00  0.00    +0.000 OA
ATOM      4  H   UNL     1       1.853   5.435  18.542  0.00  0.00    +0.000 HD
ENDROOT
BRANCH   2   5
ATOM      5  C   UNL     1       2.244   7.984  18.674  0.00  0.00    +0.000 A 
ATOM      6  C   UNL     1       1.788   9.067  17.943  0.00  0.00    +0.000 A 
ATOM      7  N   UNL     1       1.017  10.037  18.493  0.00  0.00    +0.000 NA
ATOM      8  C   UNL     1       0.726   9.901  19.799  0.00  0.00    +0.000 A 
ATOM      9  C   UNL     1      -0.043  10.874  20.422  0.00  0.00    +0.000 A 
ATOM     10  C   UNL     1      -0.357  10.778  21.775  0.00  0.00    +0.000 A 
ATOM     11  I   UNL     1      -1.492  12.261  22.684  0.00  0.00    +0.000 I 
ATOM     12  C   UNL     1       0.094   9.694  22.519  0.00  0.00    +0.000 A 
ATOM     13  C   UNL     1       0.863   8.706  21.896  0.00  0.00    +0.000 A 
ATOM     14  C   UNL     1       1.192   8.785  20.549  0.00  0.00    +0.000 A 
ATOM     15  N   UNL     1       1.947   7.815  19.991  0.00  0.00    +0.000 NA
ENDBRANCH   2   5
BRANCH   1  16
ATOM     16  C   UNL     1       3.548   4.618  17.509  0.00  0.00    +0.000 C 
BRANCH  16  17
ATOM     17  C   UNL     1       2.798   3.290  17.290  0.00  0.00    +0.000 C 
BRANCH  17  18
ATOM     18  N   UNL     1       3.102   2.206  18.253  0.00  0.00    +0.000 NA
BRANCH  18  20
ATOM     19  C   UNL     1       4.041   2.418  20.589  0.00  0.00    +0.000 C 
ATOM     20  C   UNL     1       4.273   2.535  19.085  0.00  0.00    +0.000 C 
ENDBRANCH  18  20
BRANCH  18  21
ATOM     21  C   UNL     1       1.903   1.841  19.034  0.00  0.00    +0.000 C 
ATOM     22  C   UNL     1       0.640   2.666  18.783  0.00  0.00    +0.000 C 
ENDBRANCH  18  21
ENDBRANCH  17  18
ENDBRANCH  16  17
ENDBRANCH   1  16
TORSDOF 6
ENDMDL
MODEL 6
REMARK VINA RESULT:      -6.3      5.448      7.599
REMARK  Name = 
REMARK  8 active torsions:
REMARK  status: ('A' for Active; 'I' for Inactive)
REMARK    1  A    between atoms: C_1  and  C_2
REMARK    2  A    between atoms: C_2  and  N_3
REMARK    3  A    between atoms: N_3  and  C_4
REMARK    4  A    between atoms: N_3  and  C_6
REMARK    5  A    between atoms: C_4  and  C_5
REMARK    6  A    between atoms: C_6  and  C_7
REMARK    7  A    between atoms: C_7  and  N_8
REMARK    8  A    between atoms: C_9  and  C_11
REMARK                            x       y       z     vdW  Elec       q    Type
REMARK                         _______ _______ _______ _____ _____    ______ ____
ROOT
ATOM      1  N   UNL     1       3.680   5.714  19.050  0.00  0.00    +0.000 N 
ATOM      2  C   UNL     1       3.316   6.762  18.227  0.00  0.00    +0.000 C 
ATOM      3  O   UNL     1       3.717   6.878  17.072  0.00  0.00    +0.000 OA
ATOM      4  H   UNL     1       3.218   5.611  19.948  0.00  0.00    +0.000 HD
ENDROOT
BRANCH   2   5
ATOM      5  C   UNL     1       2.397   7.778  18.809  0.00  0.00    +0.000 A 
ATOM      6  C   UNL     1       1.967   8.828  18.017  0.00  0.00    +0.000 A 
ATOM      7  N   UNL     1       1.163   9.811  18.492  0.00  0.00    +0.000 NA
ATOM      8  C   UNL     1       0.811   9.721  19.787  0.00  0.00    +0.000 A 
ATOM      9  C   UNL     1       0.006  10.710  20.337  0.00  0.00    +0.000 A 
ATOM     10  C   UNL     1      -0.371  10.662  21.675  0.00  0.00    +0.000 A 
ATOM     11  I   UNL     1      -1.560  12.167  22.473  0.00  0.00    +0.000 I 
ATOM     12  C   UNL     1       0.052   9.610  22.480  0.00  0.00    +0.000 A 
ATOM     13  C   UNL     1       0.857   8.607  21.932  0.00  0.00    +0.000 A 
ATOM     14  C   UNL     1       1.249   8.639  20.600  0.00  0.00    +0.000 A 
ATOM     15  N   UNL     1       2.038   7.655  20.116  0.00  0.00    +0.000 NA
ENDBRANCH   2   5
BRANCH   1  16
ATOM     16  C   UNL     1       4.563   4.675  18.562  0.00  0.00    +0.000 C 
BRANCH  16  17
ATOM     17  C   UNL     1       4.365   3.303  19.235  0.00  0.00    +0.000 C 
BRANCH  17  18
ATOM     18  N   UNL     1       2.999   3.016  19.734  0.00  0.00    +0.000 NA
BRANCH  18  20
ATOM     19  C   UNL     1       0.814   2.452  18.600  0.00  0.00    +0.000 C 
ATOM     20  C   UNL     1       2.278   2.095  18.838  0.00  0.00    +0.000 C 
ENDBRANCH  18  20
BRANCH  18  21
ATOM     21  C   UNL     1       3.033   2.570  21.141  0.00  0.00    +0.000 C 
ATOM     22  C   UNL     1       1.759   2.781  21.961  0.00  0.00    +0.000 C 
ENDBRANCH  18  21
ENDBRANCH  17  18
ENDBRANCH  16  17
ENDBRANCH   1  16
TORSDOF 6
ENDMDL
MODEL 7
REMARK VINA RESULT:      -6.2      5.465      7.541
REMARK  Name = 
REMARK  8 active torsions:
REMARK  status: ('A' for Active; 'I' for Inactive)
REMARK    1  A    between atoms: C_1  and  C_2
REMARK    2  A    between atoms: C_2  and  N_3
REMARK    3  A    between atoms: N_3  and  C_4
REMARK    4  A    between atoms: N_3  and  C_6
REMARK    5  A    between atoms: C_4  and  C_5
REMARK    6  A    between atoms: C_6  and  C_7
REMARK    7  A    between atoms: C_7  and  N_8
REMARK    8  A    between atoms: C_9  and  C_11
REMARK                            x       y       z     vdW  Elec       q    Type
REMARK                         _______ _______ _______ _____ _____    ______ ____
ROOT
ATOM      1  N   UNL     1       3.623   5.436  19.446  0.00  0.00    +0.000 N 
ATOM      2  C   UNL     1       3.382   6.404  18.490  0.00  0.00    +0.000 C 
ATOM      3  O   UNL     1       3.893   6.386  17.373  0.00  0.00    +0.000 OA
ATOM      4  H   UNL     1       3.077   5.443  20.301  0.00  0.00    +0.000 HD
ENDROOT
BRANCH   2   5
ATOM      5  C   UNL     1       2.460   7.507  18.877  0.00  0.00    +0.000 A 
ATOM      6  C   UNL     1       2.104   8.450  17.928  0.00  0.00    +0.000 A 
ATOM      7  N   UNL     1       1.301   9.502  18.220  0.00  0.00    +0.000 NA
ATOM      8  C   UNL     1       0.874   9.594  19.492  0.00  0.00    +0.000 A 
ATOM      9  C   UNL     1       0.067  10.662  19.857  0.00  0.00    +0.000 A 
ATOM     10  C   UNL     1      -0.388  10.801  21.165  0.00  0.00    +0.000 A 
ATOM     11  I   UNL     1      -1.579  12.421  21.684  0.00  0.00    +0.000 I 
ATOM     12  C   UNL     1      -0.039   9.859  22.126  0.00  0.00    +0.000 A 
ATOM     13  C   UNL     1       0.769   8.775  21.765  0.00  0.00    +0.000 A 
ATOM     14  C   UNL     1       1.236   8.621  20.466  0.00  0.00    +0.000 A 
ATOM     15  N   UNL     1       2.025   7.567  20.164  0.00  0.00    +0.000 NA
ENDBRANCH   2   5
BRANCH   1  16
ATOM     16  C   UNL     1       4.501   4.322  19.152  0.00  0.00    +0.000 C 
BRANCH  16  17
ATOM     17  C   UNL     1       3.801   3.117  18.495  0.00  0.00    +0.000 C 
BRANCH  17  18
ATOM     18  N   UNL     1       2.960   2.288  19.389  0.00  0.00    +0.000 NA
BRANCH  18  20
ATOM     19  C   UNL     1       1.966   2.814  21.651  0.00  0.00    +0.000 C 
ATOM     20  C   UNL     1       3.218   2.590  20.808  0.00  0.00    +0.000 C 
ENDBRANCH  18  20
BRANCH  18  21
ATOM     21  C   UNL     1       1.535   2.381  19.012  0.00  0.00    +0.000 C 
ATOM     22  C   UNL     1       1.146   3.513  18.061  0.00  0.00    +0.000 C 
ENDBRANCH  18  21
ENDBRANCH  17  18
ENDBRANCH  16  17
ENDBRANCH   1  16
TORSDOF 6
ENDMDL
MODEL 8
REMARK VINA RESULT:      -6.2      6.977      9.017
REMARK  Name = 
REMARK  8 active torsions:
REMARK  status: ('A' for Active; 'I' for Inactive)
REMARK    1  A    between atoms: C_1  and  C_2
REMARK    2  A    between atoms: C_2  and  N_3
REMARK    3  A    between atoms: N_3  and  C_4
REMARK    4  A    between atoms: N_3  and  C_6
REMARK    5  A    between atoms: C_4  and  C_5
REMARK    6  A    between atoms: C_6  and  C_7
REMARK    7  A    between atoms: C_7  and  N_8
REMARK    8  A    between atoms: C_9  and  C_11
REMARK                            x       y       z     vdW  Elec       q    Type
REMARK                         _______ _______ _______ _____ _____    ______ ____
ROOT
ATOM      1  N   UNL     1       2.256   7.045  20.332  0.00  0.00    +0.000 N 
ATOM      2  C   UNL     1       1.857   8.238  19.762  0.00  0.00    +0.000 C 
ATOM      3  O   UNL     1       2.155   8.568  18.617  0.00  0.00    +0.000 OA
ATOM      4  H   UNL     1       1.874   6.779  21.234  0.00  0.00    +0.000 HD
ENDROOT
BRANCH   2   5
ATOM      5  C   UNL     1       1.035   9.141  20.613  0.00  0.00    +0.000 A 
ATOM      6  C   UNL     1       1.114   9.024  21.990  0.00  0.00    +0.000 A 
ATOM      7  N   UNL     1       0.364   9.784  22.825  0.00  0.00    +0.000 NA
ATOM      8  C   UNL     1      -0.478  10.657  22.244  0.00  0.00    +0.000 A 
ATOM      9  C   UNL     1      -1.287  11.448  23.048  0.00  0.00    +0.000 A 
ATOM     10  C   UNL     1      -2.181  12.356  22.488  0.00  0.00    +0.000 A 
ATOM     11  I   UNL     1      -3.393  13.512  23.716  0.00  0.00    +0.000 I 
ATOM     12  C   UNL     1      -2.268  12.485  21.106  0.00  0.00    +0.000 A 
ATOM     13  C   UNL     1      -1.450  11.696  20.290  0.00  0.00    +0.000 A 
ATOM     14  C   UNL     1      -0.556  10.781  20.829  0.00  0.00    +0.000 A 
ATOM     15  N   UNL     1       0.205  10.030  20.004  0.00  0.00    +0.000 NA
ENDBRANCH   2   5
BRANCH   1  16
ATOM     16  C   UNL     1       3.050   6.102  19.571  0.00  0.00    +0.000 C 
BRANCH  16  17
ATOM     17  C   UNL     1       2.746   4.622  19.875  0.00  0.00    +0.000 C 
BRANCH  17  18
ATOM     18  N   UNL     1       1.647   4.011  19.091  0.00  0.00    +0.000 NA
BRANCH  18  20
ATOM     19  C   UNL     1       2.656   2.052  17.857  0.00  0.00    +0.000 C 
ATOM     20  C   UNL     1       2.129   3.483  17.803  0.00  0.00    +0.000 C 
ENDBRANCH  18  20
BRANCH  18  21
ATOM     21  C   UNL     1       0.908   3.022  19.899  0.00  0.00    +0.000 C 
ATOM     22  C   UNL     1       1.421   2.768  21.317  0.00  0.00    +0.000 C 
ENDBRANCH  18  21
ENDBRANCH  17  18
ENDBRANCH  16  17
ENDBRANCH   1  16
TORSDOF 6
ENDMDL
MODEL 9
REMARK VINA RESULT:      -6.2      5.824      7.396
REMARK  Name = 
REMARK  8 active torsions:
REMARK  status: ('A' for Active; 'I' for Inactive)
REMARK    1  A    between atoms: C_1  and  C_2
REMARK    2  A    between atoms: C_2  and  N_3
REMARK    3  A    between atoms: N_3  and  C_4
REMARK    4  A    between atoms: N_3  and  C_6
REMARK    5  A    between atoms: C_4  and  C_5
REMARK    6  A    between atoms: C_6  and  C_7
REMARK    7  A    between atoms: C_7  and  N_8
REMARK    8  A    between atoms: C_9  and  C_11
REMARK                            x       y       z     vdW  Elec       q    Type
REMARK                         _______ _______ _______ _____ _____    ______ ____
ROOT
ATOM      1  N   UNL     1       3.194   6.976  18.009  0.00  0.00    +0.000 N 
ATOM      2  C   UNL     1       2.655   6.865  19.276  0.00  0.00    +0.000 C 
ATOM      3  O   UNL     1       2.856   5.899  20.008  0.00  0.00    +0.000 OA
ATOM      4  H   UNL     1       3.090   7.852  17.506  0.00  0.00    +0.000 HD
ENDROOT
BRANCH   2   5
ATOM      5  C   UNL     1       1.792   7.987  19.734  0.00  0.00    +0.000 A 
ATOM      6  C   UNL     1       1.537   9.036  18.868  0.00  0.00    +0.000 A 
ATOM      7  N   UNL     1       0.794  10.110  19.231  0.00  0.00    +0.000 NA
ATOM      8  C   UNL     1       0.322  10.112  20.491  0.00  0.00    +0.000 A 
ATOM      9  C   UNL     1      -0.429  11.195  20.927  0.00  0.00    +0.000 A 
ATOM     10  C   UNL     1      -0.926  11.243  22.226  0.00  0.00    +0.000 A 
ATOM     11  I   UNL     1      -2.029  12.886  22.856  0.00  0.00    +0.000 I 
ATOM     12  C   UNL     1      -0.679  10.194  23.104  0.00  0.00    +0.000 A 
ATOM     13  C   UNL     1       0.070   9.096  22.669  0.00  0.00    +0.000 A 
ATOM     14  C   UNL     1       0.579   9.031  21.379  0.00  0.00    +0.000 A 
ATOM     15  N   UNL     1       1.309   7.958  21.006  0.00  0.00    +0.000 NA
ENDBRANCH   2   5
BRANCH   1  16
ATOM     16  C   UNL     1       4.054   5.934  17.487  0.00  0.00    +0.000 C 
BRANCH  16  17
ATOM     17  C   UNL     1       5.559   6.189  17.693  0.00  0.00    +0.000 C 
BRANCH  17  18
ATOM     18  N   UNL     1       6.477   5.274  16.974  0.00  0.00    +0.000 NA
BRANCH  18  20
ATOM     19  C   UNL     1       7.867   5.676  19.044  0.00  0.00    +0.000 C 
ATOM     20  C   UNL     1       7.544   4.772  17.859  0.00  0.00    +0.000 C 
ENDBRANCH  18  20
BRANCH  18  21
ATOM     21  C   UNL     1       5.727   4.207  16.284  0.00  0.00    +0.000 C 
ATOM     22  C   UNL     1       6.086   3.948  14.820  0.00  0.00    +0.000 C 
ENDBRANCH  18  21
ENDBRANCH  17  18
ENDBRANCH  16  17
ENDBRANCH   1  16
TORSDOF 6
ENDMDL
