MODEL 1
REMARK VINA RESULT:      -7.7      0.000      0.000
REMARK  Name = 
REMARK  8 active torsions:
REMARK  status: ('A' for Active; 'I' for Inactive)
REMARK    1  A    between atoms: C_1  and  O_2
REMARK    2  A    between atoms: O_2  and  C_3
REMARK    3  A    between atoms: C_6  and  C_7
REMARK    4  A    between atoms: C_7  and  N_8
REMARK    5  A    between atoms: C_11  and  N_12
REMARK    6  A    between atoms: N_12  and  C_13
REMARK    7  A    between atoms: C_25  and  O_26
REMARK    8  A    between atoms: O_26  and  C_27
REMARK                            x       y       z     vdW  Elec       q    Type
REMARK                         _______ _______ _______ _____ _____    ______ ____
ROOT
ATOM      1  N   UNL     1      -0.739  11.040  19.419  0.00  0.00    +0.000 N 
ATOM      2  H   UNL     1      -0.926  10.053  19.537  0.00  0.00    +0.000 HD
ENDROOT
BRANCH   1   3
ATOM      3  C   UNL     1      -1.909  11.812  19.484  0.00  0.00    +0.000 A 
ATOM      4  C   UNL     1      -2.431  12.151  20.794  0.00  0.00    +0.000 A 
ATOM      5  C   UNL     1      -1.899  11.780  22.060  0.00  0.00    +0.000 A 
ATOM      6  C   UNL     1      -2.451  12.264  23.251  0.00  0.00    +0.000 A 
ATOM      7  C   UNL     1      -3.489  13.184  23.192  0.00  0.00    +0.000 A 
ATOM      8 CL   UNL     1      -4.092  13.894  24.640  0.00  0.00    +0.000 Cl
ATOM      9  C   UNL     1      -4.091  13.470  21.982  0.00  0.00    +0.000 A 
ATOM     10  C   UNL     1      -3.651  12.846  20.826  0.00  0.00    +0.000 A 
ATOM     11  N   UNL     1      -4.487  12.769  19.805  0.00  0.00    +0.000 NA
ATOM     12  C   UNL     1      -4.087  12.015  18.779  0.00  0.00    +0.000 A 
ATOM     13  C   UNL     1      -4.836  10.922  18.375  0.00  0.00    +0.000 A 
ATOM     14  C   UNL     1      -4.332  10.024  17.424  0.00  0.00    +0.000 A 
ATOM     15  C   UNL     1      -3.226  10.398  16.673  0.00  0.00    +0.000 A 
ATOM     16  C   UNL     1      -2.554  11.531  17.073  0.00  0.00    +0.000 A 
ATOM     17  C   UNL     1      -2.781  11.970  18.377  0.00  0.00    +0.000 A 
BRANCH  15  18
ATOM     18  O   UNL     1      -2.858   9.552  15.675  0.00  0.00    +0.000 OA
ATOM     19  C   UNL     1      -3.020   9.969  14.325  0.00  0.00    +0.000 C 
ENDBRANCH  15  18
ENDBRANCH   1   3
BRANCH   1  23
ATOM     20  N   UNL     1       2.112   9.115  18.885  0.00  0.00    +0.000 NA
ATOM     21  C   UNL     1       1.780  10.265  18.022  0.00  0.00    +0.000 C 
ATOM     22  C   UNL     1       1.583  11.569  18.782  0.00  0.00    +0.000 C 
ATOM     23  C   UNL     1       0.595  11.394  19.929  0.00  0.00    +0.000 C 
ATOM     24  C   UNL     1       1.100  10.309  20.862  0.00  0.00    +0.000 C 
ATOM     25  C   UNL     1       1.306   9.002  20.110  0.00  0.00    +0.000 C 
BRANCH  20  26
ATOM     26  C   UNL     1       1.973   7.857  18.120  0.00  0.00    +0.000 C 
BRANCH  26  30
ATOM     27  C   UNL     1       5.363   5.189  18.281  0.00  0.00    +0.000 A 
ATOM     28  C   UNL     1       4.352   5.108  19.237  0.00  0.00    +0.000 A 
ATOM     29  C   UNL     1       3.256   5.967  19.187  0.00  0.00    +0.000 A 
ATOM     30  C   UNL     1       3.171   6.948  18.193  0.00  0.00    +0.000 A 
ATOM     31  C   UNL     1       4.205   7.053  17.255  0.00  0.00    +0.000 A 
ATOM     32  C   UNL     1       5.302   6.184  17.299  0.00  0.00    +0.000 A 
BRANCH  27  34
ATOM     33  C   UNL     1       7.605   4.617  17.776  0.00  0.00    +0.000 C 
ATOM     34  O   UNL     1       6.381   4.289  18.425  0.00  0.00    +0.000 OA
ENDBRANCH  27  34
ENDBRANCH  26  30
ENDBRANCH  20  26
ENDBRANCH   1  23
TORSDOF 6
ENDMDL
MODEL 2
REMARK VINA RESULT:      -7.7      0.724      1.002
REMARK  Name = 
REMARK  8 active torsions:
REMARK  status: ('A' for Active; 'I' for Inactive)
REMARK    1  A    between atoms: C_1  and  O_2
REMARK    2  A    between atoms: O_2  and  C_3
REMARK    3  A    between atoms: C_6  and  C_7
REMARK    4  A    between atoms: C_7  and  N_8
REMARK    5  A    between atoms: C_11  and  N_12
REMARK    6  A    between atoms: N_12  and  C_13
REMARK    7  A    between atoms: C_25  and  O_26
REMARK    8  A    between atoms: O_26  and  C_27
REMARK                            x       y       z     vdW  Elec       q    Type
REMARK                         _______ _______ _______ _____ _____    ______ ____
ROOT
ATOM      1  N   UNL     1      -0.561  10.741  19.619  0.00  0.00    +0.000 N 
ATOM      2  H   UNL     1      -0.815   9.825  19.965  0.00  0.00    +0.000 HD
ENDROOT
BRANCH   1   3
ATOM      3  C   UNL     1      -1.633  11.645  19.677  0.00  0.00    +0.000 A 
ATOM      4  C   UNL     1      -2.154  12.003  20.982  0.00  0.00    +0.000 A 
ATOM      5  C   UNL     1      -1.711  11.533  22.249  0.00  0.00    +0.000 A 
ATOM      6  C   UNL     1      -2.241  12.043  23.439  0.00  0.00    +0.000 A 
ATOM      7  C   UNL     1      -3.159  13.082  23.382  0.00  0.00    +0.000 A 
ATOM      8 CL   UNL     1      -3.721  13.814  24.835  0.00  0.00    +0.000 Cl
ATOM      9  C   UNL     1      -3.684  13.474  22.165  0.00  0.00    +0.000 A 
ATOM     10  C   UNL     1      -3.283  12.838  21.003  0.00  0.00    +0.000 A 
ATOM     11  N   UNL     1      -4.088  12.893  19.955  0.00  0.00    +0.000 NA
ATOM     12  C   UNL     1      -3.747  12.129  18.916  0.00  0.00    +0.000 A 
ATOM     13  C   UNL     1      -4.606  11.146  18.453  0.00  0.00    +0.000 A 
ATOM     14  C   UNL     1      -4.181  10.224  17.487  0.00  0.00    +0.000 A 
ATOM     15  C   UNL     1      -3.015  10.486  16.781  0.00  0.00    +0.000 A 
ATOM     16  C   UNL     1      -2.227  11.518  17.240  0.00  0.00    +0.000 A 
ATOM     17  C   UNL     1      -2.443  11.940  18.551  0.00  0.00    +0.000 A 
BRANCH  15  18
ATOM     18  O   UNL     1      -2.718   9.633  15.766  0.00  0.00    +0.000 OA
ATOM     19  C   UNL     1      -3.039  10.012  14.433  0.00  0.00    +0.000 C 
ENDBRANCH  15  18
ENDBRANCH   1   3
BRANCH   1  23
ATOM     20  N   UNL     1       2.011   8.512  18.886  0.00  0.00    +0.000 NA
ATOM     21  C   UNL     1       1.622   9.583  17.948  0.00  0.00    +0.000 C 
ATOM     22  C   UNL     1       1.652  10.977  18.557  0.00  0.00    +0.000 C 
ATOM     23  C   UNL     1       0.863  11.026  19.860  0.00  0.00    +0.000 C 
ATOM     24  C   UNL     1       1.439  10.011  20.831  0.00  0.00    +0.000 C 
ATOM     25  C   UNL     1       1.419   8.614  20.228  0.00  0.00    +0.000 C 
BRANCH  20  26
ATOM     26  C   UNL     1       1.654   7.194  18.319  0.00  0.00    +0.000 C 
BRANCH  26  30
ATOM     27  C   UNL     1       5.059   4.820  17.137  0.00  0.00    +0.000 A 
ATOM     28  C   UNL     1       5.146   6.210  17.179  0.00  0.00    +0.000 A 
ATOM     29  C   UNL     1       4.049   6.979  17.562  0.00  0.00    +0.000 A 
ATOM     30  C   UNL     1       2.831   6.366  17.877  0.00  0.00    +0.000 A 
ATOM     31  C   UNL     1       2.735   4.972  17.799  0.00  0.00    +0.000 A 
ATOM     32  C   UNL     1       3.840   4.198  17.424  0.00  0.00    +0.000 A 
BRANCH  27  34
ATOM     33  C   UNL     1       7.411   4.633  17.352  0.00  0.00    +0.000 C 
ATOM     34  O   UNL     1       6.202   4.172  16.758  0.00  0.00    +0.000 OA
ENDBRANCH  27  34
ENDBRANCH  26  30
ENDBRANCH  20  26
ENDBRANCH   1  23
TORSDOF 6
ENDMDL
MODEL 3
REMARK VINA RESULT:      -7.6      4.088      8.543
REMARK  Name = 
REMARK  8 active torsions:
REMARK  status: ('A' for Active; 'I' for Inactive)
REMARK    1  A    between atoms: C_1  and  O_2
REMARK    2  A    between atoms: O_2  and  C_3
REMARK    3  A    between atoms: C_6  and  C_7
REMARK    4  A    between atoms: C_7  and  N_8
REMARK    5  A    between atoms: C_11  and  N_12
REMARK    6  A    between atoms: N_12  and  C_13
REMARK    7  A    between atoms: C_25  and  O_26
REMARK    8  A    between atoms: O_26  and  C_27
REMARK                            x       y       z     vdW  Elec       q    Type
REMARK                         _______ _______ _______ _____ _____    ______ ____
ROOT
ATOM      1  N   UNL     1      -0.992  11.521  20.856  0.00  0.00    +0.000 N 
ATOM      2  H   UNL     1      -1.819  12.017  20.548  0.00  0.00    +0.000 HD
ENDROOT
BRANCH   1   3
ATOM      3  C   UNL     1      -0.167  11.154  19.783  0.00  0.00    +0.000 A 
ATOM      4  C   UNL     1       0.619   9.942  19.910  0.00  0.00    +0.000 A 
ATOM      5  C   UNL     1       0.671   9.057  21.022  0.00  0.00    +0.000 A 
ATOM      6  C   UNL     1       1.400   7.864  20.968  0.00  0.00    +0.000 A 
ATOM      7  C   UNL     1       2.020   7.501  19.781  0.00  0.00    +0.000 A 
ATOM      8 CL   UNL     1       2.807   5.975  19.653  0.00  0.00    +0.000 Cl
ATOM      9  C   UNL     1       2.076   8.396  18.729  0.00  0.00    +0.000 A 
ATOM     10  C   UNL     1       1.502   9.649  18.858  0.00  0.00    +0.000 A 
ATOM     11  N   UNL     1       1.941  10.617  18.070  0.00  0.00    +0.000 NA
ATOM     12  C   UNL     1       1.485  11.841  18.341  0.00  0.00    +0.000 A 
ATOM     13  C   UNL     1       2.363  12.864  18.660  0.00  0.00    +0.000 A 
ATOM     14  C   UNL     1       1.885  14.097  19.122  0.00  0.00    +0.000 A 
ATOM     15  C   UNL     1       0.536  14.390  18.967  0.00  0.00    +0.000 A 
ATOM     16  C   UNL     1      -0.287  13.356  18.582  0.00  0.00    +0.000 A 
ATOM     17  C   UNL     1       0.203  12.063  18.759  0.00  0.00    +0.000 A 
BRANCH  15  18
ATOM     18  O   UNL     1       0.148  15.648  19.308  0.00  0.00    +0.000 OA
ATOM     19  C   UNL     1       0.409  16.716  18.406  0.00  0.00    +0.000 C 
ENDBRANCH  15  18
ENDBRANCH   1   3
BRANCH   1  23
ATOM     20  N   UNL     1      -2.855  13.681  22.853  0.00  0.00    +0.000 NA
ATOM     21  C   UNL     1      -2.940  12.215  23.006  0.00  0.00    +0.000 C 
ATOM     22  C   UNL     1      -1.597  11.542  23.246  0.00  0.00    +0.000 C 
ATOM     23  C   UNL     1      -0.574  11.962  22.196  0.00  0.00    +0.000 C 
ATOM     24  C   UNL     1      -0.423  13.472  22.224  0.00  0.00    +0.000 C 
ATOM     25  C   UNL     1      -1.763  14.155  21.991  0.00  0.00    +0.000 C 
BRANCH  20  26
ATOM     26  C   UNL     1      -4.130  14.204  22.317  0.00  0.00    +0.000 C 
BRANCH  26  30
ATOM     27  C   UNL     1      -6.275  11.549  19.675  0.00  0.00    +0.000 A 
ATOM     28  C   UNL     1      -6.766  11.829  20.948  0.00  0.00    +0.000 A 
ATOM     29  C   UNL     1      -6.077  12.687  21.803  0.00  0.00    +0.000 A 
ATOM     30  C   UNL     1      -4.861  13.254  21.406  0.00  0.00    +0.000 A 
ATOM     31  C   UNL     1      -4.350  12.941  20.141  0.00  0.00    +0.000 A 
ATOM     32  C   UNL     1      -5.046  12.087  19.278  0.00  0.00    +0.000 A 
BRANCH  27  34
ATOM     33  C   UNL     1      -7.105   9.352  19.367  0.00  0.00    +0.000 C 
ATOM     34  O   UNL     1      -7.041  10.703  18.923  0.00  0.00    +0.000 OA
ENDBRANCH  27  34
ENDBRANCH  26  30
ENDBRANCH  20  26
ENDBRANCH   1  23
TORSDOF 6
ENDMDL
MODEL 4
REMARK VINA RESULT:      -7.5      0.768      1.013
REMARK  Name = 
REMARK  8 active torsions:
REMARK  status: ('A' for Active; 'I' for Inactive)
REMARK    1  A    between atoms: C_1  and  O_2
REMARK    2  A    between atoms: O_2  and  C_3
REMARK    3  A    between atoms: C_6  and  C_7
REMARK    4  A    between atoms: C_7  and  N_8
REMARK    5  A    between atoms: C_11  and  N_12
REMARK    6  A    between atoms: N_12  and  C_13
REMARK    7  A    between atoms: C_25  and  O_26
REMARK    8  A    between atoms: O_26  and  C_27
REMARK                            x       y       z     vdW  Elec       q    Type
REMARK                         _______ _______ _______ _____ _____    ______ ____
ROOT
ATOM      1  N   UNL     1      -0.608  10.964  19.411  0.00  0.00    +0.000 N 
ATOM      2  H   UNL     1      -0.825   9.982  19.526  0.00  0.00    +0.000 HD
ENDROOT
BRANCH   1   3
ATOM      3  C   UNL     1      -1.749  11.772  19.523  0.00  0.00    +0.000 A 
ATOM      4  C   UNL     1      -2.232  12.091  20.853  0.00  0.00    +0.000 A 
ATOM      5  C   UNL     1      -1.688  11.665  22.096  0.00  0.00    +0.000 A 
ATOM      6  C   UNL     1      -2.198  12.132  23.312  0.00  0.00    +0.000 A 
ATOM      7  C   UNL     1      -3.203  13.089  23.302  0.00  0.00    +0.000 A 
ATOM      8 CL   UNL     1      -3.751  13.777  24.782  0.00  0.00    +0.000 Cl
ATOM      9  C   UNL     1      -3.820  13.431  22.113  0.00  0.00    +0.000 A 
ATOM     10  C   UNL     1      -3.426  12.826  20.932  0.00  0.00    +0.000 A 
ATOM     11  N   UNL     1      -4.285  12.808  19.927  0.00  0.00    +0.000 NA
ATOM     12  C   UNL     1      -3.933  12.071  18.872  0.00  0.00    +0.000 A 
ATOM     13  C   UNL     1      -4.727  11.017  18.453  0.00  0.00    +0.000 A 
ATOM     14  C   UNL     1      -4.275  10.130  17.466  0.00  0.00    +0.000 A 
ATOM     15  C   UNL     1      -3.172  10.488  16.702  0.00  0.00    +0.000 A 
ATOM     16  C   UNL     1      -2.453  11.585  17.120  0.00  0.00    +0.000 A 
ATOM     17  C   UNL     1      -2.638  11.993  18.440  0.00  0.00    +0.000 A 
BRANCH  15  18
ATOM     18  O   UNL     1      -2.855   9.659  15.673  0.00  0.00    +0.000 OA
ATOM     19  C   UNL     1      -3.159  10.065  14.344  0.00  0.00    +0.000 C 
ENDBRANCH  15  18
ENDBRANCH   1   3
BRANCH   1  23
ATOM     20  N   UNL     1       2.150   8.931  18.795  0.00  0.00    +0.000 NA
ATOM     21  C   UNL     1       1.835  10.091  17.940  0.00  0.00    +0.000 C 
ATOM     22  C   UNL     1       1.712  11.403  18.701  0.00  0.00    +0.000 C 
ATOM     23  C   UNL     1       0.753  11.268  19.879  0.00  0.00    +0.000 C 
ATOM     24  C   UNL     1       1.246  10.165  20.799  0.00  0.00    +0.000 C 
ATOM     25  C   UNL     1       1.379   8.850  20.044  0.00  0.00    +0.000 C 
BRANCH  20  26
ATOM     26  C   UNL     1       1.940   7.677  18.039  0.00  0.00    +0.000 C 
BRANCH  26  30
ATOM     27  C   UNL     1       4.449   4.359  19.189  0.00  0.00    +0.000 A 
ATOM     28  C   UNL     1       3.252   4.606  19.859  0.00  0.00    +0.000 A 
ATOM     29  C   UNL     1       2.439   5.676  19.488  0.00  0.00    +0.000 A 
ATOM     30  C   UNL     1       2.832   6.539  18.459  0.00  0.00    +0.000 A 
ATOM     31  C   UNL     1       4.052   6.311  17.813  0.00  0.00    +0.000 A 
ATOM     32  C   UNL     1       4.865   5.231  18.178  0.00  0.00    +0.000 A 
BRANCH  27  34
ATOM     33  C   UNL     1       4.428   2.059  19.757  0.00  0.00    +0.000 C 
ATOM     34  O   UNL     1       5.156   3.276  19.633  0.00  0.00    +0.000 OA
ENDBRANCH  27  34
ENDBRANCH  26  30
ENDBRANCH  20  26
ENDBRANCH   1  23
TORSDOF 6
ENDMDL
MODEL 5
REMARK VINA RESULT:      -7.3      2.806      4.645
REMARK  Name = 
REMARK  8 active torsions:
REMARK  status: ('A' for Active; 'I' for Inactive)
REMARK    1  A    between atoms: C_1  and  O_2
REMARK    2  A    between atoms: O_2  and  C_3
REMARK    3  A    between atoms: C_6  and  C_7
REMARK    4  A    between atoms: C_7  and  N_8
REMARK    5  A    between atoms: C_11  and  N_12
REMARK    6  A    between atoms: N_12  and  C_13
REMARK    7  A    between atoms: C_25  and  O_26
REMARK    8  A    between atoms: O_26  and  C_27
REMARK                            x       y       z     vdW  Elec       q    Type
REMARK                         _______ _______ _______ _____ _____    ______ ____
ROOT
ATOM      1  N   UNL     1      -1.267  12.666  20.451  0.00  0.00    +0.000 N 
ATOM      2  H   UNL     1      -0.721  12.886  19.628  0.00  0.00    +0.000 HD
ENDROOT
BRANCH   1   3
ATOM      3  C   UNL     1      -2.572  12.264  20.127  0.00  0.00    +0.000 A 
ATOM      4  C   UNL     1      -2.838  11.842  18.765  0.00  0.00    +0.000 A 
ATOM      5  C   UNL     1      -1.921  11.793  17.680  0.00  0.00    +0.000 A 
ATOM      6  C   UNL     1      -2.292  11.267  16.438  0.00  0.00    +0.000 A 
ATOM      7  C   UNL     1      -3.555  10.711  16.287  0.00  0.00    +0.000 A 
ATOM      8 CL   UNL     1      -3.983   9.937  14.810  0.00  0.00    +0.000 Cl
ATOM      9  C   UNL     1      -4.495  10.849  17.290  0.00  0.00    +0.000 A 
ATOM     10  C   UNL     1      -4.171  11.532  18.451  0.00  0.00    +0.000 A 
ATOM     11  N   UNL     1      -5.159  12.041  19.168  0.00  0.00    +0.000 NA
ATOM     12  C   UNL     1      -4.798  12.832  20.179  0.00  0.00    +0.000 A 
ATOM     13  C   UNL     1      -5.221  14.150  20.228  0.00  0.00    +0.000 A 
ATOM     14  C   UNL     1      -4.700  15.032  21.184  0.00  0.00    +0.000 A 
ATOM     15  C   UNL     1      -3.998  14.510  22.262  0.00  0.00    +0.000 A 
ATOM     16  C   UNL     1      -3.659  13.177  22.199  0.00  0.00    +0.000 A 
ATOM     17  C   UNL     1      -3.690  12.578  20.940  0.00  0.00    +0.000 A 
BRANCH  15  18
ATOM     18  O   UNL     1      -3.629  15.392  23.227  0.00  0.00    +0.000 OA
ATOM     19  C   UNL     1      -3.231  14.894  24.499  0.00  0.00    +0.000 C 
ENDBRANCH  15  18
ENDBRANCH   1   3
BRANCH   1  23
ATOM     20  N   UNL     1       1.005  10.059  20.050  0.00  0.00    +0.000 NA
ATOM     21  C   UNL     1       1.421  11.471  19.957  0.00  0.00    +0.000 C 
ATOM     22  C   UNL     1       1.060  12.302  21.180  0.00  0.00    +0.000 C 
ATOM     23  C   UNL     1      -0.415  12.149  21.533  0.00  0.00    +0.000 C 
ATOM     24  C   UNL     1      -0.719  10.683  21.781  0.00  0.00    +0.000 C 
ATOM     25  C   UNL     1      -0.355   9.842  20.565  0.00  0.00    +0.000 C 
BRANCH  20  26
ATOM     26  C   UNL     1       1.106   9.417  18.722  0.00  0.00    +0.000 C 
BRANCH  26  30
ATOM     27  C   UNL     1       3.796   6.048  18.507  0.00  0.00    +0.000 A 
ATOM     28  C   UNL     1       2.940   6.202  19.596  0.00  0.00    +0.000 A 
ATOM     29  C   UNL     1       2.069   7.287  19.667  0.00  0.00    +0.000 A 
ATOM     30  C   UNL     1       2.067   8.259  18.660  0.00  0.00    +0.000 A 
ATOM     31  C   UNL     1       2.954   8.123  17.587  0.00  0.00    +0.000 A 
ATOM     32  C   UNL     1       3.822   7.027  17.509  0.00  0.00    +0.000 A 
BRANCH  27  34
ATOM     33  C   UNL     1       3.989   3.743  19.017  0.00  0.00    +0.000 C 
ATOM     34  O   UNL     1       4.596   4.940  18.542  0.00  0.00    +0.000 OA
ENDBRANCH  27  34
ENDBRANCH  26  30
ENDBRANCH  20  26
ENDBRANCH   1  23
TORSDOF 6
ENDMDL
MODEL 6
REMARK VINA RESULT:      -7.3      1.422      1.849
REMARK  Name = 
REMARK  8 active torsions:
REMARK  status: ('A' for Active; 'I' for Inactive)
REMARK    1  A    between atoms: C_1  and  O_2
REMARK    2  A    between atoms: O_2  and  C_3
REMARK    3  A    between atoms: C_6  and  C_7
REMARK    4  A    between atoms: C_7  and  N_8
REMARK    5  A    between atoms: C_11  and  N_12
REMARK    6  A    between atoms: N_12  and  C_13
REMARK    7  A    between atoms: C_25  and  O_26
REMARK    8  A    between atoms: O_26  and  C_27
REMARK                            x       y       z     vdW  Elec       q    Type
REMARK                         _______ _______ _______ _____ _____    ______ ____
ROOT
ATOM      1  N   UNL     1      -0.630  10.745  19.972  0.00  0.00    +0.000 N 
ATOM      2  H   UNL     1      -0.896   9.962  20.555  0.00  0.00    +0.000 HD
ENDROOT
BRANCH   1   3
ATOM      3  C   UNL     1      -1.604  11.755  19.968  0.00  0.00    +0.000 A 
ATOM      4  C   UNL     1      -2.131  12.201  21.243  0.00  0.00    +0.000 A 
ATOM      5  C   UNL     1      -1.785  11.722  22.537  0.00  0.00    +0.000 A 
ATOM      6  C   UNL     1      -2.301  12.316  23.694  0.00  0.00    +0.000 A 
ATOM      7  C   UNL     1      -3.104  13.442  23.578  0.00  0.00    +0.000 A 
ATOM      8 CL   UNL     1      -3.637  14.267  24.991  0.00  0.00    +0.000 Cl
ATOM      9  C   UNL     1      -3.541  13.853  22.333  0.00  0.00    +0.000 A 
ATOM     10  C   UNL     1      -3.167  13.148  21.202  0.00  0.00    +0.000 A 
ATOM     11  N   UNL     1      -3.925  13.257  20.123  0.00  0.00    +0.000 NA
ATOM     12  C   UNL     1      -3.628  12.434  19.116  0.00  0.00    +0.000 A 
ATOM     13  C   UNL     1      -4.568  11.532  18.644  0.00  0.00    +0.000 A 
ATOM     14  C   UNL     1      -4.207  10.546  17.716  0.00  0.00    +0.000 A 
ATOM     15  C   UNL     1      -2.995  10.667  17.050  0.00  0.00    +0.000 A 
ATOM     16  C   UNL     1      -2.121  11.624  17.514  0.00  0.00    +0.000 A 
ATOM     17  C   UNL     1      -2.339  12.102  18.805  0.00  0.00    +0.000 A 
BRANCH  15  18
ATOM     18  O   UNL     1      -2.753   9.760  16.067  0.00  0.00    +0.000 OA
ATOM     19  C   UNL     1      -3.167  10.059  14.739  0.00  0.00    +0.000 C 
ENDBRANCH  15  18
ENDBRANCH   1   3
BRANCH   1  23
ATOM     20  N   UNL     1       1.627   8.157  20.541  0.00  0.00    +0.000 NA
ATOM     21  C   UNL     1       1.225   8.550  19.176  0.00  0.00    +0.000 C 
ATOM     22  C   UNL     1       1.452  10.022  18.867  0.00  0.00    +0.000 C 
ATOM     23  C   UNL     1       0.831  10.912  19.938  0.00  0.00    +0.000 C 
ATOM     24  C   UNL     1       1.427  10.557  21.288  0.00  0.00    +0.000 C 
ATOM     25  C   UNL     1       1.211   9.084  21.604  0.00  0.00    +0.000 C 
BRANCH  20  26
ATOM     26  C   UNL     1       1.090   6.816  20.857  0.00  0.00    +0.000 C 
BRANCH  26  30
ATOM     27  C   UNL     1       3.601   3.531  19.618  0.00  0.00    +0.000 A 
ATOM     28  C   UNL     1       2.450   3.298  20.370  0.00  0.00    +0.000 A 
ATOM     29  C   UNL     1       1.636   4.357  20.769  0.00  0.00    +0.000 A 
ATOM     30  C   UNL     1       1.983   5.675  20.450  0.00  0.00    +0.000 A 
ATOM     31  C   UNL     1       3.159   5.910  19.729  0.00  0.00    +0.000 A 
ATOM     32  C   UNL     1       3.972   4.846  19.318  0.00  0.00    +0.000 A 
BRANCH  27  34
ATOM     33  C   UNL     1       3.618   1.441  18.505  0.00  0.00    +0.000 C 
ATOM     34  O   UNL     1       4.313   2.416  19.275  0.00  0.00    +0.000 OA
ENDBRANCH  27  34
ENDBRANCH  26  30
ENDBRANCH  20  26
ENDBRANCH   1  23
TORSDOF 6
ENDMDL
MODEL 7
REMARK VINA RESULT:      -7.3      3.821      8.352
REMARK  Name = 
REMARK  8 active torsions:
REMARK  status: ('A' for Active; 'I' for Inactive)
REMARK    1  A    between atoms: C_1  and  O_2
REMARK    2  A    between atoms: O_2  and  C_3
REMARK    3  A    between atoms: C_6  and  C_7
REMARK    4  A    between atoms: C_7  and  N_8
REMARK    5  A    between atoms: C_11  and  N_12
REMARK    6  A    between atoms: N_12  and  C_13
REMARK    7  A    between atoms: C_25  and  O_26
REMARK    8  A    between atoms: O_26  and  C_27
REMARK                            x       y       z     vdW  Elec       q    Type
REMARK                         _______ _______ _______ _____ _____    ______ ____
ROOT
ATOM      1  N   UNL     1      -0.907  11.295  20.903  0.00  0.00    +0.000 N 
ATOM      2  H   UNL     1      -1.747  11.785  20.625  0.00  0.00    +0.000 HD
ENDROOT
BRANCH   1   3
ATOM      3  C   UNL     1      -0.136  10.900  19.799  0.00  0.00    +0.000 A 
ATOM      4  C   UNL     1       0.680   9.708  19.927  0.00  0.00    +0.000 A 
ATOM      5  C   UNL     1       0.813   8.869  21.067  0.00  0.00    +0.000 A 
ATOM      6  C   UNL     1       1.561   7.688  21.018  0.00  0.00    +0.000 A 
ATOM      7  C   UNL     1       2.120   7.289  19.812  0.00  0.00    +0.000 A 
ATOM      8 CL   UNL     1       2.929   5.774  19.697  0.00  0.00    +0.000 Cl
ATOM      9  C   UNL     1       2.098   8.143  18.725  0.00  0.00    +0.000 A 
ATOM     10  C   UNL     1       1.508   9.390  18.838  0.00  0.00    +0.000 A 
ATOM     11  N   UNL     1       1.882  10.334  17.990  0.00  0.00    +0.000 NA
ATOM     12  C   UNL     1       1.418  11.559  18.240  0.00  0.00    +0.000 A 
ATOM     13  C   UNL     1       2.292  12.609  18.469  0.00  0.00    +0.000 A 
ATOM     14  C   UNL     1       1.815  13.851  18.910  0.00  0.00    +0.000 A 
ATOM     15  C   UNL     1       0.455  14.114  18.821  0.00  0.00    +0.000 A 
ATOM     16  C   UNL     1      -0.368  13.051  18.524  0.00  0.00    +0.000 A 
ATOM     17  C   UNL     1       0.157  11.774  18.722  0.00  0.00    +0.000 A 
BRANCH  15  18
ATOM     18  O   UNL     1       0.062  15.376  19.135  0.00  0.00    +0.000 OA
ATOM     19  C   UNL     1       1.027  16.292  19.637  0.00  0.00    +0.000 C 
ENDBRANCH  15  18
ENDBRANCH   1   3
BRANCH   1  23
ATOM     20  N   UNL     1      -2.752  13.343  23.029  0.00  0.00    +0.000 NA
ATOM     21  C   UNL     1      -2.735  11.876  23.187  0.00  0.00    +0.000 C 
ATOM     22  C   UNL     1      -1.338  11.288  23.330  0.00  0.00    +0.000 C 
ATOM     23  C   UNL     1      -0.422  11.766  22.210  0.00  0.00    +0.000 C 
ATOM     24  C   UNL     1      -0.363  13.283  22.227  0.00  0.00    +0.000 C 
ATOM     25  C   UNL     1      -1.756  13.880  22.091  0.00  0.00    +0.000 C 
BRANCH  20  26
ATOM     26  C   UNL     1      -4.093  13.784  22.586  0.00  0.00    +0.000 C 
BRANCH  26  30
ATOM     27  C   UNL     1      -5.508  11.717  19.071  0.00  0.00    +0.000 A 
ATOM     28  C   UNL     1      -4.265  12.347  19.069  0.00  0.00    +0.000 A 
ATOM     29  C   UNL     1      -3.805  13.013  20.203  0.00  0.00    +0.000 A 
ATOM     30  C   UNL     1      -4.601  13.089  21.351  0.00  0.00    +0.000 A 
ATOM     31  C   UNL     1      -5.865  12.488  21.338  0.00  0.00    +0.000 A 
ATOM     32  C   UNL     1      -6.324  11.810  20.203  0.00  0.00    +0.000 A 
BRANCH  27  34
ATOM     33  C   UNL     1      -4.973  11.292  16.803  0.00  0.00    +0.000 C 
ATOM     34  O   UNL     1      -5.848  11.086  17.907  0.00  0.00    +0.000 OA
ENDBRANCH  27  34
ENDBRANCH  26  30
ENDBRANCH  20  26
ENDBRANCH   1  23
TORSDOF 6
ENDMDL
MODEL 8
REMARK VINA RESULT:      -7.3      3.288      5.163
REMARK  Name = 
REMARK  8 active torsions:
REMARK  status: ('A' for Active; 'I' for Inactive)
REMARK    1  A    between atoms: C_1  and  O_2
REMARK    2  A    between atoms: O_2  and  C_3
REMARK    3  A    between atoms: C_6  and  C_7
REMARK    4  A    between atoms: C_7  and  N_8
REMARK    5  A    between atoms: C_11  and  N_12
REMARK    6  A    between atoms: N_12  and  C_13
REMARK    7  A    between atoms: C_25  and  O_26
REMARK    8  A    between atoms: O_26  and  C_27
REMARK                            x       y       z     vdW  Elec       q    Type
REMARK                         _______ _______ _______ _____ _____    ______ ____
ROOT
ATOM      1  N   UNL     1      -0.955  12.625  18.695  0.00  0.00    +0.000 N 
ATOM      2  H   UNL     1      -1.478  12.818  17.850  0.00  0.00    +0.000 HD
ENDROOT
BRANCH   1   3
ATOM      3  C   UNL     1      -0.424  13.792  19.265  0.00  0.00    +0.000 A 
ATOM      4  C   UNL     1       0.984  14.074  19.056  0.00  0.00    +0.000 A 
ATOM      5  C   UNL     1       1.926  13.289  18.336  0.00  0.00    +0.000 A 
ATOM      6  C   UNL     1       3.235  13.734  18.128  0.00  0.00    +0.000 A 
ATOM      7  C   UNL     1       3.599  15.000  18.566  0.00  0.00    +0.000 A 
ATOM      8 CL   UNL     1       5.163  15.621  18.202  0.00  0.00    +0.000 Cl
ATOM      9  C   UNL     1       2.736  15.729  19.363  0.00  0.00    +0.000 A 
ATOM     10  C   UNL     1       1.505  15.200  19.713  0.00  0.00    +0.000 A 
ATOM     11  N   UNL     1       0.912  15.671  20.797  0.00  0.00    +0.000 NA
ATOM     12  C   UNL     1      -0.183  15.020  21.192  0.00  0.00    +0.000 A 
ATOM     13  C   UNL     1      -0.243  14.440  22.448  0.00  0.00    +0.000 A 
ATOM     14  C   UNL     1      -1.311  13.604  22.798  0.00  0.00    +0.000 A 
ATOM     15  C   UNL     1      -2.449  13.606  22.003  0.00  0.00    +0.000 A 
ATOM     16  C   UNL     1      -2.363  14.255  20.792  0.00  0.00    +0.000 A 
ATOM     17  C   UNL     1      -1.081  14.503  20.300  0.00  0.00    +0.000 A 
BRANCH  15  18
ATOM     18  O   UNL     1      -3.506  12.882  22.457  0.00  0.00    +0.000 OA
ATOM     19  C   UNL     1      -4.667  12.774  21.643  0.00  0.00    +0.000 C 
ENDBRANCH  15  18
ENDBRANCH   1   3
BRANCH   1  23
ATOM     20  N   UNL     1       0.612   9.517  18.759  0.00  0.00    +0.000 NA
ATOM     21  C   UNL     1       0.786  10.496  19.850  0.00  0.00    +0.000 C 
ATOM     22  C   UNL     1      -0.522  10.968  20.468  0.00  0.00    +0.000 C 
ATOM     23  C   UNL     1      -1.495  11.451  19.399  0.00  0.00    +0.000 C 
ATOM     24  C   UNL     1      -1.751  10.325  18.413  0.00  0.00    +0.000 C 
ATOM     25  C   UNL     1      -0.448   9.842  17.794  0.00  0.00    +0.000 C 
BRANCH  20  26
ATOM     26  C   UNL     1       1.882   9.358  18.020  0.00  0.00    +0.000 C 
BRANCH  26  30
ATOM     27  C   UNL     1       3.925   5.616  18.693  0.00  0.00    +0.000 A 
ATOM     28  C   UNL     1       4.212   6.386  17.567  0.00  0.00    +0.000 A 
ATOM     29  C   UNL     1       3.555   7.596  17.348  0.00  0.00    +0.000 A 
ATOM     30  C   UNL     1       2.571   8.038  18.240  0.00  0.00    +0.000 A 
ATOM     31  C   UNL     1       2.258   7.245  19.350  0.00  0.00    +0.000 A 
ATOM     32  C   UNL     1       2.925   6.034  19.576  0.00  0.00    +0.000 A 
BRANCH  27  34
ATOM     33  C   UNL     1       4.023   3.411  19.550  0.00  0.00    +0.000 C 
ATOM     34  O   UNL     1       4.640   4.456  18.807  0.00  0.00    +0.000 OA
ENDBRANCH  27  34
ENDBRANCH  26  30
ENDBRANCH  20  26
ENDBRANCH   1  23
TORSDOF 6
ENDMDL
MODEL 9
REMARK VINA RESULT:      -7.2      3.312      5.789
REMARK  Name = 
REMARK  8 active torsions:
REMARK  status: ('A' for Active; 'I' for Inactive)
REMARK    1  A    between atoms: C_1  and  O_2
REMARK    2  A    between atoms: O_2  and  C_3
REMARK    3  A    between atoms: C_6  and  C_7
REMARK    4  A    between atoms: C_7  and  N_8
REMARK    5  A    between atoms: C_11  and  N_12
REMARK    6  A    between atoms: N_12  and  C_13
REMARK    7  A    between atoms: C_25  and  O_26
REMARK    8  A    between atoms: O_26  and  C_27
REMARK                            x       y       z     vdW  Elec       q    Type
REMARK                         _______ _______ _______ _____ _____    ______ ____
ROOT
ATOM      1  N   UNL     1      -2.311  14.001  22.168  0.00  0.00    +0.000 N 
ATOM      2  H   UNL     1      -2.135  14.089  21.175  0.00  0.00    +0.000 HD
ENDROOT
BRANCH   1   3
ATOM      3  C   UNL     1      -3.628  13.598  22.438  0.00  0.00    +0.000 A 
ATOM      4  C   UNL     1      -4.396  13.010  21.358  0.00  0.00    +0.000 A 
ATOM      5  C   UNL     1      -3.978  12.794  20.016  0.00  0.00    +0.000 A 
ATOM      6  C   UNL     1      -4.793  12.122  19.099  0.00  0.00    +0.000 A 
ATOM      7  C   UNL     1      -6.000  11.587  19.530  0.00  0.00    +0.000 A 
ATOM      8 CL   UNL     1      -6.954  10.641  18.454  0.00  0.00    +0.000 Cl
ATOM      9  C   UNL     1      -6.474  11.882  20.794  0.00  0.00    +0.000 A 
ATOM     10  C   UNL     1      -5.738  12.701  21.634  0.00  0.00    +0.000 A 
ATOM     11  N   UNL     1      -6.377  13.327  22.608  0.00  0.00    +0.000 NA
ATOM     12  C   UNL     1      -5.668  14.232  23.284  0.00  0.00    +0.000 A 
ATOM     13  C   UNL     1      -6.070  15.557  23.321  0.00  0.00    +0.000 A 
ATOM     14  C   UNL     1      -5.238  16.541  23.871  0.00  0.00    +0.000 A 
ATOM     15  C   UNL     1      -4.156  16.143  24.646  0.00  0.00    +0.000 A 
ATOM     16  C   UNL     1      -3.837  14.804  24.630  0.00  0.00    +0.000 A 
ATOM     17  C   UNL     1      -4.345  14.048  23.575  0.00  0.00    +0.000 A 
BRANCH  15  18
ATOM     18  O   UNL     1      -3.461  17.133  25.265  0.00  0.00    +0.000 OA
ATOM     19  C   UNL     1      -2.086  16.923  25.565  0.00  0.00    +0.000 C 
ENDBRANCH  15  18
ENDBRANCH   1   3
BRANCH   1  23
ATOM     20  N   UNL     1      -0.025  11.653  20.993  0.00  0.00    +0.000 NA
ATOM     21  C   UNL     1       0.172  13.100  20.781  0.00  0.00    +0.000 C 
ATOM     22  C   UNL     1       0.151  13.918  22.064  0.00  0.00    +0.000 C 
ATOM     23  C   UNL     1      -1.091  13.612  22.893  0.00  0.00    +0.000 C 
ATOM     24  C   UNL     1      -1.125  12.128  23.211  0.00  0.00    +0.000 C 
ATOM     25  C   UNL     1      -1.098  11.301  21.934  0.00  0.00    +0.000 C 
BRANCH  20  26
ATOM     26  C   UNL     1      -0.304  10.990  19.701  0.00  0.00    +0.000 C 
BRANCH  26  30
ATOM     27  C   UNL     1       2.308   7.696  18.725  0.00  0.00    +0.000 A 
ATOM     28  C   UNL     1       1.869   7.887  20.034  0.00  0.00    +0.000 A 
ATOM     29  C   UNL     1       1.024   8.949  20.352  0.00  0.00    +0.000 A 
ATOM     30  C   UNL     1       0.632   9.860  19.364  0.00  0.00    +0.000 A 
ATOM     31  C   UNL     1       1.104   9.688  18.058  0.00  0.00    +0.000 A 
ATOM     32  C   UNL     1       1.945   8.615  17.736  0.00  0.00    +0.000 A 
BRANCH  27  34
ATOM     33  C   UNL     1       4.179   6.787  17.593  0.00  0.00    +0.000 C 
ATOM     34  O   UNL     1       3.123   6.616  18.532  0.00  0.00    +0.000 OA
ENDBRANCH  27  34
ENDBRANCH  26  30
ENDBRANCH  20  26
ENDBRANCH   1  23
TORSDOF 6
ENDMDL
