MODEL 1
REMARK VINA RESULT:      -8.0      0.000      0.000
REMARK  Name = 
REMARK  6 active torsions:
REMARK  status: ('A' for Active; 'I' for Inactive)
REMARK    1  A    between atoms: C_1  and  C_2
REMARK    2  A    between atoms: C_2  and  C_3
REMARK    3  A    between atoms: C_3  and  C_4
REMARK    4  A    between atoms: N_12  and  C_13
REMARK    5  A    between atoms: C_13  and  C_14
REMARK    6  A    between atoms: C_14  and  C_15
REMARK                            x       y       z     vdW  Elec       q    Type
REMARK                         _______ _______ _______ _____ _____    ______ ____
ROOT
ATOM      1  C   UNL     1       6.689   5.437  16.538  0.00  0.00    +0.000 A 
ATOM      2  N   UNL     1       7.499   5.828  15.576  0.00  0.00    +0.000 NA
ATOM      3  C   UNL     1       7.145   5.114  14.465  0.00  0.00    +0.000 A 
ATOM      4  C   UNL     1       7.698   5.155  13.179  0.00  0.00    +0.000 A 
ATOM      5  C   UNL     1       7.184   4.329  12.178  0.00  0.00    +0.000 A 
ATOM      6  C   UNL     1       6.121   3.477  12.453  0.00  0.00    +0.000 A 
ATOM      7  C   UNL     1       5.547   3.433  13.728  0.00  0.00    +0.000 A 
ATOM      8  C   UNL     1       6.079   4.253  14.739  0.00  0.00    +0.000 A 
ATOM      9  N   UNL     1       5.809   4.464  16.081  0.00  0.00    +0.000 N 
ENDROOT
BRANCH   1  10
ATOM     10  C   UNL     1       6.725   5.978  17.933  0.00  0.00    +0.000 C 
BRANCH  10  12
ATOM     11  C   UNL     1       7.691   8.299  17.707  0.00  0.00    +0.000 C 
ATOM     12  C   UNL     1       7.950   6.868  18.149  0.00  0.00    +0.000 C 
ENDBRANCH  10  12
ENDBRANCH   1  10
BRANCH   9  13
ATOM     13  C   UNL     1       4.764   3.859  16.901  0.00  0.00    +0.000 C 
BRANCH  13  14
ATOM     14  C   UNL     1       3.551   4.739  17.198  0.00  0.00    +0.000 C 
BRANCH  14  15
ATOM     15  C   UNL     1       2.733   4.326  18.395  0.00  0.00    +0.000 A 
ATOM     16  C   UNL     1       2.891   4.995  19.618  0.00  0.00    +0.000 A 
ATOM     17  C   UNL     1       2.076   4.683  20.705  0.00  0.00    +0.000 A 
ATOM     18  C   UNL     1       1.088   3.710  20.575  0.00  0.00    +0.000 A 
ATOM     19  C   UNL     1       0.905   3.059  19.358  0.00  0.00    +0.000 A 
ATOM     20  C   UNL     1       1.722   3.366  18.269  0.00  0.00    +0.000 A 
ENDBRANCH  14  15
ENDBRANCH  13  14
ENDBRANCH   9  13
TORSDOF 5
ENDMDL
MODEL 2
REMARK VINA RESULT:      -7.9      0.946      1.161
REMARK  Name = 
REMARK  6 active torsions:
REMARK  status: ('A' for Active; 'I' for Inactive)
REMARK    1  A    between atoms: C_1  and  C_2
REMARK    2  A    between atoms: C_2  and  C_3
REMARK    3  A    between atoms: C_3  and  C_4
REMARK    4  A    between atoms: N_12  and  C_13
REMARK    5  A    between atoms: C_13  and  C_14
REMARK    6  A    between atoms: C_14  and  C_15
REMARK                            x       y       z     vdW  Elec       q    Type
REMARK                         _______ _______ _______ _____ _____    ______ ____
ROOT
ATOM      1  C   UNL     1       6.273   5.623  16.363  0.00  0.00    +0.000 A 
ATOM      2  N   UNL     1       7.238   5.816  15.488  0.00  0.00    +0.000 NA
ATOM      3  C   UNL     1       6.918   5.060  14.395  0.00  0.00    +0.000 A 
ATOM      4  C   UNL     1       7.619   4.913  13.190  0.00  0.00    +0.000 A 
ATOM      5  C   UNL     1       7.112   4.077  12.193  0.00  0.00    +0.000 A 
ATOM      6  C   UNL     1       5.914   3.401  12.389  0.00  0.00    +0.000 A 
ATOM      7  C   UNL     1       5.194   3.548  13.580  0.00  0.00    +0.000 A 
ATOM      8  C   UNL     1       5.715   4.376  14.589  0.00  0.00    +0.000 A 
ATOM      9  N   UNL     1       5.323   4.740  15.867  0.00  0.00    +0.000 N 
ENDROOT
BRANCH   1  10
ATOM     10  C   UNL     1       6.223   6.277  17.709  0.00  0.00    +0.000 C 
BRANCH  10  12
ATOM     11  C   UNL     1       7.956   5.669  19.441  0.00  0.00    +0.000 C 
ATOM     12  C   UNL     1       7.630   6.548  18.244  0.00  0.00    +0.000 C 
ENDBRANCH  10  12
ENDBRANCH   1  10
BRANCH   9  13
ATOM     13  C   UNL     1       4.114   4.354  16.588  0.00  0.00    +0.000 C 
BRANCH  13  14
ATOM     14  C   UNL     1       4.206   3.070  17.412  0.00  0.00    +0.000 C 
BRANCH  14  15
ATOM     15  C   UNL     1       3.182   2.935  18.510  0.00  0.00    +0.000 A 
ATOM     16  C   UNL     1       3.582   2.982  19.854  0.00  0.00    +0.000 A 
ATOM     17  C   UNL     1       2.635   2.950  20.875  0.00  0.00    +0.000 A 
ATOM     18  C   UNL     1       1.279   2.884  20.563  0.00  0.00    +0.000 A 
ATOM     19  C   UNL     1       0.869   2.864  19.232  0.00  0.00    +0.000 A 
ATOM     20  C   UNL     1       1.816   2.892  18.207  0.00  0.00    +0.000 A 
ENDBRANCH  14  15
ENDBRANCH  13  14
ENDBRANCH   9  13
TORSDOF 5
ENDMDL
MODEL 3
REMARK VINA RESULT:      -7.8      0.456      1.155
REMARK  Name = 
REMARK  6 active torsions:
REMARK  status: ('A' for Active; 'I' for Inactive)
REMARK    1  A    between atoms: C_1  and  C_2
REMARK    2  A    between atoms: C_2  and  C_3
REMARK    3  A    between atoms: C_3  and  C_4
REMARK    4  A    between atoms: N_12  and  C_13
REMARK    5  A    between atoms: C_13  and  C_14
REMARK    6  A    between atoms: C_14  and  C_15
REMARK                            x       y       z     vdW  Elec       q    Type
REMARK                         _______ _______ _______ _____ _____    ______ ____
ROOT
ATOM      1  C   UNL     1       6.802   4.917  16.465  0.00  0.00    +0.000 A 
ATOM      2  N   UNL     1       7.647   5.248  15.512  0.00  0.00    +0.000 NA
ATOM      3  C   UNL     1       7.125   4.754  14.349  0.00  0.00    +0.000 A 
ATOM      4  C   UNL     1       7.639   4.834  13.048  0.00  0.00    +0.000 A 
ATOM      5  C   UNL     1       6.939   4.250  11.991  0.00  0.00    +0.000 A 
ATOM      6  C   UNL     1       5.733   3.599  12.225  0.00  0.00    +0.000 A 
ATOM      7  C   UNL     1       5.198   3.523  13.516  0.00  0.00    +0.000 A 
ATOM      8  C   UNL     1       5.914   4.096  14.581  0.00  0.00    +0.000 A 
ATOM      9  N   UNL     1       5.730   4.199  15.950  0.00  0.00    +0.000 N 
ENDROOT
BRANCH   1  10
ATOM     10  C   UNL     1       6.986   5.274  17.907  0.00  0.00    +0.000 C 
BRANCH  10  12
ATOM     11  C   UNL     1       6.983   7.760  17.477  0.00  0.00    +0.000 C 
ATOM     12  C   UNL     1       7.755   6.586  18.058  0.00  0.00    +0.000 C 
ENDBRANCH  10  12
ENDBRANCH   1  10
BRANCH   9  13
ATOM     13  C   UNL     1       4.607   3.722  16.751  0.00  0.00    +0.000 C 
BRANCH  13  14
ATOM     14  C   UNL     1       3.566   4.772  17.139  0.00  0.00    +0.000 C 
BRANCH  14  15
ATOM     15  C   UNL     1       2.599   4.353  18.216  0.00  0.00    +0.000 A 
ATOM     16  C   UNL     1       1.884   3.152  18.090  0.00  0.00    +0.000 A 
ATOM     17  C   UNL     1       1.057   2.710  19.121  0.00  0.00    +0.000 A 
ATOM     18  C   UNL     1       0.947   3.457  20.291  0.00  0.00    +0.000 A 
ATOM     19  C   UNL     1       1.672   4.637  20.437  0.00  0.00    +0.000 A 
ATOM     20  C   UNL     1       2.497   5.084  19.405  0.00  0.00    +0.000 A 
ENDBRANCH  14  15
ENDBRANCH  13  14
ENDBRANCH   9  13
TORSDOF 5
ENDMDL
MODEL 4
REMARK VINA RESULT:      -7.8      1.094      4.031
REMARK  Name = 
REMARK  6 active torsions:
REMARK  status: ('A' for Active; 'I' for Inactive)
REMARK    1  A    between atoms: C_1  and  C_2
REMARK    2  A    between atoms: C_2  and  C_3
REMARK    3  A    between atoms: C_3  and  C_4
REMARK    4  A    between atoms: N_12  and  C_13
REMARK    5  A    between atoms: C_13  and  C_14
REMARK    6  A    between atoms: C_14  and  C_15
REMARK                            x       y       z     vdW  Elec       q    Type
REMARK                         _______ _______ _______ _____ _____    ______ ____
ROOT
ATOM      1  C   UNL     1       5.654   4.738  15.341  0.00  0.00    +0.000 A 
ATOM      2  N   UNL     1       6.596   5.652  15.439  0.00  0.00    +0.000 NA
ATOM      3  C   UNL     1       6.861   5.788  16.773  0.00  0.00    +0.000 A 
ATOM      4  C   UNL     1       7.781   6.633  17.407  0.00  0.00    +0.000 A 
ATOM      5  C   UNL     1       7.890   6.617  18.799  0.00  0.00    +0.000 A 
ATOM      6  C   UNL     1       7.097   5.759  19.552  0.00  0.00    +0.000 A 
ATOM      7  C   UNL     1       6.183   4.897  18.934  0.00  0.00    +0.000 A 
ATOM      8  C   UNL     1       6.063   4.929  17.534  0.00  0.00    +0.000 A 
ATOM      9  N   UNL     1       5.283   4.272  16.597  0.00  0.00    +0.000 N 
ENDROOT
BRANCH   1  10
ATOM     10  C   UNL     1       5.071   4.273  14.043  0.00  0.00    +0.000 C 
BRANCH  10  12
ATOM     11  C   UNL     1       5.545   3.031  11.898  0.00  0.00    +0.000 C 
ATOM     12  C   UNL     1       6.147   3.668  13.140  0.00  0.00    +0.000 C 
ENDBRANCH  10  12
ENDBRANCH   1  10
BRANCH   9  13
ATOM     13  C   UNL     1       4.288   3.228  16.818  0.00  0.00    +0.000 C 
BRANCH  13  14
ATOM     14  C   UNL     1       2.829   3.683  16.824  0.00  0.00    +0.000 C 
BRANCH  14  15
ATOM     15  C   UNL     1       2.208   3.837  18.188  0.00  0.00    +0.000 A 
ATOM     16  C   UNL     1       1.523   2.762  18.774  0.00  0.00    +0.000 A 
ATOM     17  C   UNL     1       1.024   2.863  20.071  0.00  0.00    +0.000 A 
ATOM     18  C   UNL     1       1.218   4.034  20.800  0.00  0.00    +0.000 A 
ATOM     19  C   UNL     1       1.920   5.098  20.238  0.00  0.00    +0.000 A 
ATOM     20  C   UNL     1       2.416   5.001  18.938  0.00  0.00    +0.000 A 
ENDBRANCH  14  15
ENDBRANCH  13  14
ENDBRANCH   9  13
TORSDOF 5
ENDMDL
MODEL 5
REMARK VINA RESULT:      -7.8      1.095      3.911
REMARK  Name = 
REMARK  6 active torsions:
REMARK  status: ('A' for Active; 'I' for Inactive)
REMARK    1  A    between atoms: C_1  and  C_2
REMARK    2  A    between atoms: C_2  and  C_3
REMARK    3  A    between atoms: C_3  and  C_4
REMARK    4  A    between atoms: N_12  and  C_13
REMARK    5  A    between atoms: C_13  and  C_14
REMARK    6  A    between atoms: C_14  and  C_15
REMARK                            x       y       z     vdW  Elec       q    Type
REMARK                         _______ _______ _______ _____ _____    ______ ____
ROOT
ATOM      1  C   UNL     1       5.663   4.668  15.297  0.00  0.00    +0.000 A 
ATOM      2  N   UNL     1       6.590   5.599  15.393  0.00  0.00    +0.000 NA
ATOM      3  C   UNL     1       6.842   5.750  16.728  0.00  0.00    +0.000 A 
ATOM      4  C   UNL     1       7.743   6.617  17.362  0.00  0.00    +0.000 A 
ATOM      5  C   UNL     1       7.842   6.614  18.755  0.00  0.00    +0.000 A 
ATOM      6  C   UNL     1       7.057   5.750  19.509  0.00  0.00    +0.000 A 
ATOM      7  C   UNL     1       6.163   4.868  18.892  0.00  0.00    +0.000 A 
ATOM      8  C   UNL     1       6.052   4.885  17.491  0.00  0.00    +0.000 A 
ATOM      9  N   UNL     1       5.290   4.208  16.553  0.00  0.00    +0.000 N 
ENDROOT
BRANCH   1  10
ATOM     10  C   UNL     1       5.098   4.183  13.998  0.00  0.00    +0.000 C 
BRANCH  10  12
ATOM     11  C   UNL     1       5.660   2.884  11.909  0.00  0.00    +0.000 C 
ATOM     12  C   UNL     1       6.207   3.729  13.048  0.00  0.00    +0.000 C 
ENDBRANCH  10  12
ENDBRANCH   1  10
BRANCH   9  13
ATOM     13  C   UNL     1       4.311   3.149  16.776  0.00  0.00    +0.000 C 
BRANCH  13  14
ATOM     14  C   UNL     1       2.866   3.604  16.980  0.00  0.00    +0.000 C 
BRANCH  14  15
ATOM     15  C   UNL     1       2.410   3.677  18.414  0.00  0.00    +0.000 A 
ATOM     16  C   UNL     1       2.375   4.912  19.079  0.00  0.00    +0.000 A 
ATOM     17  C   UNL     1       1.870   5.004  20.374  0.00  0.00    +0.000 A 
ATOM     18  C   UNL     1       1.381   3.866  21.011  0.00  0.00    +0.000 A 
ATOM     19  C   UNL     1       1.386   2.640  20.351  0.00  0.00    +0.000 A 
ATOM     20  C   UNL     1       1.897   2.544  19.056  0.00  0.00    +0.000 A 
ENDBRANCH  14  15
ENDBRANCH  13  14
ENDBRANCH   9  13
TORSDOF 5
ENDMDL
MODEL 6
REMARK VINA RESULT:      -7.7      1.996      4.632
REMARK  Name = 
REMARK  6 active torsions:
REMARK  status: ('A' for Active; 'I' for Inactive)
REMARK    1  A    between atoms: C_1  and  C_2
REMARK    2  A    between atoms: C_2  and  C_3
REMARK    3  A    between atoms: C_3  and  C_4
REMARK    4  A    between atoms: N_12  and  C_13
REMARK    5  A    between atoms: C_13  and  C_14
REMARK    6  A    between atoms: C_14  and  C_15
REMARK                            x       y       z     vdW  Elec       q    Type
REMARK                         _______ _______ _______ _____ _____    ______ ____
ROOT
ATOM      1  C   UNL     1       5.125   5.845  16.592  0.00  0.00    +0.000 A 
ATOM      2  N   UNL     1       4.540   7.005  16.380  0.00  0.00    +0.000 NA
ATOM      3  C   UNL     1       3.708   7.213  17.444  0.00  0.00    +0.000 A 
ATOM      4  C   UNL     1       2.858   8.299  17.698  0.00  0.00    +0.000 A 
ATOM      5  C   UNL     1       2.080   8.311  18.858  0.00  0.00    +0.000 A 
ATOM      6  C   UNL     1       2.154   7.257  19.760  0.00  0.00    +0.000 A 
ATOM      7  C   UNL     1       3.008   6.172  19.529  0.00  0.00    +0.000 A 
ATOM      8  C   UNL     1       3.777   6.154  18.352  0.00  0.00    +0.000 A 
ATOM      9  N   UNL     1       4.683   5.276  17.780  0.00  0.00    +0.000 N 
ENDROOT
BRANCH   1  10
ATOM     10  C   UNL     1       6.131   5.234  15.667  0.00  0.00    +0.000 C 
BRANCH  10  12
ATOM     11  C   UNL     1       6.338   3.939  13.510  0.00  0.00    +0.000 C 
ATOM     12  C   UNL     1       5.476   4.218  14.731  0.00  0.00    +0.000 C 
ENDBRANCH  10  12
ENDBRANCH   1  10
BRANCH   9  13
ATOM     13  C   UNL     1       5.173   4.008  18.309  0.00  0.00    +0.000 C 
BRANCH  13  14
ATOM     14  C   UNL     1       4.228   2.815  18.176  0.00  0.00    +0.000 C 
BRANCH  14  15
ATOM     15  C   UNL     1       3.114   2.759  19.189  0.00  0.00    +0.000 A 
ATOM     16  C   UNL     1       3.412   2.681  20.558  0.00  0.00    +0.000 A 
ATOM     17  C   UNL     1       2.393   2.721  21.508  0.00  0.00    +0.000 A 
ATOM     18  C   UNL     1       1.068   2.854  21.099  0.00  0.00    +0.000 A 
ATOM     19  C   UNL     1       0.762   2.959  19.744  0.00  0.00    +0.000 A 
ATOM     20  C   UNL     1       1.781   2.915  18.791  0.00  0.00    +0.000 A 
ENDBRANCH  14  15
ENDBRANCH  13  14
ENDBRANCH   9  13
TORSDOF 5
ENDMDL
MODEL 7
REMARK VINA RESULT:      -7.6      0.978      1.478
REMARK  Name = 
REMARK  6 active torsions:
REMARK  status: ('A' for Active; 'I' for Inactive)
REMARK    1  A    between atoms: C_1  and  C_2
REMARK    2  A    between atoms: C_2  and  C_3
REMARK    3  A    between atoms: C_3  and  C_4
REMARK    4  A    between atoms: N_12  and  C_13
REMARK    5  A    between atoms: C_13  and  C_14
REMARK    6  A    between atoms: C_14  and  C_15
REMARK                            x       y       z     vdW  Elec       q    Type
REMARK                         _______ _______ _______ _____ _____    ______ ____
ROOT
ATOM      1  C   UNL     1       6.938   5.349  16.231  0.00  0.00    +0.000 A 
ATOM      2  N   UNL     1       7.636   5.736  15.183  0.00  0.00    +0.000 NA
ATOM      3  C   UNL     1       7.189   4.988  14.129  0.00  0.00    +0.000 A 
ATOM      4  C   UNL     1       7.608   5.012  12.792  0.00  0.00    +0.000 A 
ATOM      5  C   UNL     1       7.015   4.152  11.866  0.00  0.00    +0.000 A 
ATOM      6  C   UNL     1       6.007   3.282  12.266  0.00  0.00    +0.000 A 
ATOM      7  C   UNL     1       5.567   3.255  13.594  0.00  0.00    +0.000 A 
ATOM      8  C   UNL     1       6.178   4.110  14.528  0.00  0.00    +0.000 A 
ATOM      9  N   UNL     1       6.040   4.346  15.886  0.00  0.00    +0.000 N 
ENDROOT
BRANCH   1  10
ATOM     10  C   UNL     1       7.102   5.924  17.603  0.00  0.00    +0.000 C 
BRANCH  10  12
ATOM     11  C   UNL     1       8.062   8.245  17.844  0.00  0.00    +0.000 C 
ATOM     12  C   UNL     1       6.804   7.423  17.613  0.00  0.00    +0.000 C 
ENDBRANCH  10  12
ENDBRANCH   1  10
BRANCH   9  13
ATOM     13  C   UNL     1       5.100   3.737  16.820  0.00  0.00    +0.000 C 
BRANCH  13  14
ATOM     14  C   UNL     1       3.657   4.234  16.740  0.00  0.00    +0.000 C 
BRANCH  14  15
ATOM     15  C   UNL     1       3.214   5.112  17.882  0.00  0.00    +0.000 A 
ATOM     16  C   UNL     1       3.207   6.507  17.734  0.00  0.00    +0.000 A 
ATOM     17  C   UNL     1       2.713   7.324  18.749  0.00  0.00    +0.000 A 
ATOM     18  C   UNL     1       2.209   6.754  19.915  0.00  0.00    +0.000 A 
ATOM     19  C   UNL     1       2.187   5.369  20.062  0.00  0.00    +0.000 A 
ATOM     20  C   UNL     1       2.685   4.549  19.049  0.00  0.00    +0.000 A 
ENDBRANCH  14  15
ENDBRANCH  13  14
ENDBRANCH   9  13
TORSDOF 5
ENDMDL
MODEL 8
REMARK VINA RESULT:      -7.5      1.284      6.287
REMARK  Name = 
REMARK  6 active torsions:
REMARK  status: ('A' for Active; 'I' for Inactive)
REMARK    1  A    between atoms: C_1  and  C_2
REMARK    2  A    between atoms: C_2  and  C_3
REMARK    3  A    between atoms: C_3  and  C_4
REMARK    4  A    between atoms: N_12  and  C_13
REMARK    5  A    between atoms: C_13  and  C_14
REMARK    6  A    between atoms: C_14  and  C_15
REMARK                            x       y       z     vdW  Elec       q    Type
REMARK                         _______ _______ _______ _____ _____    ______ ____
ROOT
ATOM      1  C   UNL     1       6.031   4.963  18.686  0.00  0.00    +0.000 A 
ATOM      2  N   UNL     1       5.322   5.274  19.751  0.00  0.00    +0.000 NA
ATOM      3  C   UNL     1       4.029   4.938  19.460  0.00  0.00    +0.000 A 
ATOM      4  C   UNL     1       2.884   5.069  20.258  0.00  0.00    +0.000 A 
ATOM      5  C   UNL     1       1.645   4.662  19.760  0.00  0.00    +0.000 A 
ATOM      6  C   UNL     1       1.547   4.121  18.484  0.00  0.00    +0.000 A 
ATOM      7  C   UNL     1       2.682   3.969  17.680  0.00  0.00    +0.000 A 
ATOM      8  C   UNL     1       3.926   4.396  18.176  0.00  0.00    +0.000 A 
ATOM      9  N   UNL     1       5.222   4.434  17.688  0.00  0.00    +0.000 N 
ENDROOT
BRANCH   1  10
ATOM     10  C   UNL     1       7.512   5.160  18.580  0.00  0.00    +0.000 C 
BRANCH  10  12
ATOM     11  C   UNL     1       7.478   7.411  17.440  0.00  0.00    +0.000 C 
ATOM     12  C   UNL     1       7.881   6.640  18.687  0.00  0.00    +0.000 C 
ENDBRANCH  10  12
ENDBRANCH   1  10
BRANCH   9  13
ATOM     13  C   UNL     1       5.719   3.959  16.401  0.00  0.00    +0.000 C 
BRANCH  13  14
ATOM     14  C   UNL     1       5.726   4.983  15.266  0.00  0.00    +0.000 C 
BRANCH  14  15
ATOM     15  C   UNL     1       6.181   4.459  13.928  0.00  0.00    +0.000 A 
ATOM     16  C   UNL     1       5.421   3.488  13.259  0.00  0.00    +0.000 A 
ATOM     17  C   UNL     1       5.782   3.063  11.982  0.00  0.00    +0.000 A 
ATOM     18  C   UNL     1       6.898   3.615  11.357  0.00  0.00    +0.000 A 
ATOM     19  C   UNL     1       7.644   4.598  12.001  0.00  0.00    +0.000 A 
ATOM     20  C   UNL     1       7.287   5.022  13.282  0.00  0.00    +0.000 A 
ENDBRANCH  14  15
ENDBRANCH  13  14
ENDBRANCH   9  13
TORSDOF 5
ENDMDL
MODEL 9
REMARK VINA RESULT:      -7.5      2.597      6.390
REMARK  Name = 
REMARK  6 active torsions:
REMARK  status: ('A' for Active; 'I' for Inactive)
REMARK    1  A    between atoms: C_1  and  C_2
REMARK    2  A    between atoms: C_2  and  C_3
REMARK    3  A    between atoms: C_3  and  C_4
REMARK    4  A    between atoms: N_12  and  C_13
REMARK    5  A    between atoms: C_13  and  C_14
REMARK    6  A    between atoms: C_14  and  C_15
REMARK                            x       y       z     vdW  Elec       q    Type
REMARK                         _______ _______ _______ _____ _____    ______ ____
ROOT
ATOM      1  C   UNL     1       2.855   6.313  18.541  0.00  0.00    +0.000 A 
ATOM      2  N   UNL     1       2.161   6.158  19.649  0.00  0.00    +0.000 NA
ATOM      3  C   UNL     1       2.013   4.810  19.822  0.00  0.00    +0.000 A 
ATOM      4  C   UNL     1       1.352   4.121  20.848  0.00  0.00    +0.000 A 
ATOM      5  C   UNL     1       1.316   2.725  20.831  0.00  0.00    +0.000 A 
ATOM      6  C   UNL     1       1.940   2.022  19.808  0.00  0.00    +0.000 A 
ATOM      7  C   UNL     1       2.617   2.694  18.784  0.00  0.00    +0.000 A 
ATOM      8  C   UNL     1       2.637   4.099  18.793  0.00  0.00    +0.000 A 
ATOM      9  N   UNL     1       3.160   5.083  17.971  0.00  0.00    +0.000 N 
ENDROOT
BRANCH   1  10
ATOM     10  C   UNL     1       3.253   7.644  17.983  0.00  0.00    +0.000 C 
BRANCH  10  12
ATOM     11  C   UNL     1       1.714   9.570  18.521  0.00  0.00    +0.000 C 
ATOM     12  C   UNL     1       2.029   8.448  17.545  0.00  0.00    +0.000 C 
ENDBRANCH  10  12
ENDBRANCH   1  10
BRANCH   9  13
ATOM     13  C   UNL     1       3.951   4.922  16.755  0.00  0.00    +0.000 C 
BRANCH  13  14
ATOM     14  C   UNL     1       5.351   4.336  16.939  0.00  0.00    +0.000 C 
BRANCH  14  15
ATOM     15  C   UNL     1       6.383   5.290  17.484  0.00  0.00    +0.000 A 
ATOM     16  C   UNL     1       6.585   6.533  16.866  0.00  0.00    +0.000 A 
ATOM     17  C   UNL     1       7.470   7.460  17.414  0.00  0.00    +0.000 A 
ATOM     18  C   UNL     1       8.151   7.158  18.591  0.00  0.00    +0.000 A 
ATOM     19  C   UNL     1       7.938   5.937  19.227  0.00  0.00    +0.000 A 
ATOM     20  C   UNL     1       7.055   5.006  18.678  0.00  0.00    +0.000 A 
ENDBRANCH  14  15
ENDBRANCH  13  14
ENDBRANCH   9  13
TORSDOF 5
ENDMDL
