MODEL 1
REMARK VINA RESULT:      -7.2      0.000      0.000
REMARK  Name = 
REMARK  4 active torsions:
REMARK  status: ('A' for Active; 'I' for Inactive)
REMARK    1  A    between atoms: C_1  and  C_2
REMARK    2  A    between atoms: C_2  and  C_3
REMARK    3  A    between atoms: C_2  and  N_4
REMARK    4  A    between atoms: N_13  and  C_14
REMARK                            x       y       z     vdW  Elec       q    Type
REMARK                         _______ _______ _______ _____ _____    ______ ____
ROOT
ATOM      1  N   UNL     1       6.537   7.198  16.929  0.00  0.00    +0.000 N 
ATOM      2  C   UNL     1       6.040   6.045  16.415  0.00  0.00    +0.000 C 
ATOM      3  N   UNL     1       6.745   5.116  15.861  0.00  0.00    +0.000 NA
ATOM      4  N   UNL     1       4.702   5.845  16.567  0.00  0.00    +0.000 N 
ATOM      5  C   UNL     1       3.721   6.530  17.210  0.00  0.00    +0.000 C 
ATOM      6  N   UNL     1       3.774   7.828  17.391  0.00  0.00    +0.000 NA
ATOM      7  C   UNL     1       2.613   8.181  18.040  0.00  0.00    +0.000 C 
ATOM      8  O   UNL     1       2.305   9.320  18.368  0.00  0.00    +0.000 OA
ATOM      9  C   UNL     1       1.763   6.951  18.295  0.00  0.00    +0.000 C 
ATOM     10  N   UNL     1       2.607   5.881  17.728  0.00  0.00    +0.000 N 
ATOM     11  H   UNL     1       5.825   7.870  17.225  0.00  0.00    +0.000 HD
ATOM     12  H   UNL     1       7.716   5.436  15.824  0.00  0.00    +0.000 HD
ATOM     13  H   UNL     1       4.418   4.975  16.135  0.00  0.00    +0.000 HD
ENDROOT
BRANCH  10  14
ATOM     14  C   UNL     1       2.518   4.583  18.324  0.00  0.00    +0.000 A 
ATOM     15  C   UNL     1       1.391   3.761  18.083  0.00  0.00    +0.000 A 
ATOM     16  C   UNL     1       1.252   2.470  18.605  0.00  0.00    +0.000 A 
ATOM     17  C   UNL     1       2.270   1.914  19.357  0.00  0.00    +0.000 A 
ATOM     18  C   UNL     1       3.404   2.672  19.632  0.00  0.00    +0.000 A 
ATOM     19 CL   UNL     1       4.648   1.880  20.548  0.00  0.00    +0.000 Cl
ATOM     20  C   UNL     1       3.520   4.006  19.167  0.00  0.00    +0.000 A 
ATOM     21 CL   UNL     1       4.896   4.917  19.732  0.00  0.00    +0.000 Cl
ENDBRANCH  10  14
BRANCH   1  23
ATOM     22  C   UNL     1       8.070   8.835  17.873  0.00  0.00    +0.000 C 
ATOM     23  C   UNL     1       7.851   7.368  17.527  0.00  0.00    +0.000 C 
ATOM     24  C   UNL     1       7.969   6.503  18.783  0.00  0.00    +0.000 C 
ENDBRANCH   1  23
TORSDOF 2
ENDMDL
MODEL 2
REMARK VINA RESULT:      -7.1      1.163      1.166
REMARK  Name = 
REMARK  4 active torsions:
REMARK  status: ('A' for Active; 'I' for Inactive)
REMARK    1  A    between atoms: C_1  and  C_2
REMARK    2  A    between atoms: C_2  and  C_3
REMARK    3  A    between atoms: C_2  and  N_4
REMARK    4  A    between atoms: N_13  and  C_14
REMARK                            x       y       z     vdW  Elec       q    Type
REMARK                         _______ _______ _______ _____ _____    ______ ____
ROOT
ATOM      1  N   UNL     1       6.558   7.022  17.019  0.00  0.00    +0.000 N 
ATOM      2  C   UNL     1       6.028   5.900  16.471  0.00  0.00    +0.000 C 
ATOM      3  N   UNL     1       6.709   4.947  15.929  0.00  0.00    +0.000 NA
ATOM      4  N   UNL     1       4.677   5.760  16.573  0.00  0.00    +0.000 N 
ATOM      5  C   UNL     1       3.706   6.481  17.191  0.00  0.00    +0.000 C 
ATOM      6  N   UNL     1       3.812   7.773  17.393  0.00  0.00    +0.000 NA
ATOM      7  C   UNL     1       2.647   8.171  18.005  0.00  0.00    +0.000 C 
ATOM      8  O   UNL     1       2.379   9.319  18.339  0.00  0.00    +0.000 OA
ATOM      9  C   UNL     1       1.732   6.979  18.212  0.00  0.00    +0.000 C 
ATOM     10  N   UNL     1       2.546   5.878  17.660  0.00  0.00    +0.000 N 
ATOM     11  H   UNL     1       5.868   7.722  17.300  0.00  0.00    +0.000 HD
ATOM     12  H   UNL     1       7.695   5.222  15.931  0.00  0.00    +0.000 HD
ATOM     13  H   UNL     1       4.370   4.910  16.118  0.00  0.00    +0.000 HD
ENDROOT
BRANCH  10  14
ATOM     14  C   UNL     1       2.376   4.578  18.233  0.00  0.00    +0.000 A 
ATOM     15  C   UNL     1       2.453   3.422  17.419  0.00  0.00    +0.000 A 
ATOM     16  C   UNL     1       2.331   2.119  17.915  0.00  0.00    +0.000 A 
ATOM     17  C   UNL     1       2.178   1.908  19.272  0.00  0.00    +0.000 A 
ATOM     18  C   UNL     1       2.093   3.003  20.127  0.00  0.00    +0.000 A 
ATOM     19 CL   UNL     1       1.943   2.643  21.818  0.00  0.00    +0.000 Cl
ATOM     20  C   UNL     1       2.144   4.326  19.622  0.00  0.00    +0.000 A 
ATOM     21 CL   UNL     1       1.838   5.613  20.760  0.00  0.00    +0.000 Cl
ENDBRANCH  10  14
BRANCH   1  23
ATOM     22  C   UNL     1       8.161   8.582  17.977  0.00  0.00    +0.000 C 
ATOM     23  C   UNL     1       7.856   7.123  17.666  0.00  0.00    +0.000 C 
ATOM     24  C   UNL     1       7.866   6.293  18.951  0.00  0.00    +0.000 C 
ENDBRANCH   1  23
TORSDOF 2
ENDMDL
MODEL 3
REMARK VINA RESULT:      -7.0      3.018      4.657
REMARK  Name = 
REMARK  4 active torsions:
REMARK  status: ('A' for Active; 'I' for Inactive)
REMARK    1  A    between atoms: C_1  and  C_2
REMARK    2  A    between atoms: C_2  and  C_3
REMARK    3  A    between atoms: C_2  and  N_4
REMARK    4  A    between atoms: N_13  and  C_14
REMARK                            x       y       z     vdW  Elec       q    Type
REMARK                         _______ _______ _______ _____ _____    ______ ____
ROOT
ATOM      1  N   UNL     1       6.404   4.235  17.986  0.00  0.00    +0.000 N 
ATOM      2  C   UNL     1       6.154   4.883  19.151  0.00  0.00    +0.000 C 
ATOM      3  N   UNL     1       7.000   5.628  19.780  0.00  0.00    +0.000 NA
ATOM      4  N   UNL     1       4.888   4.778  19.639  0.00  0.00    +0.000 N 
ATOM      5  C   UNL     1       3.747   4.211  19.167  0.00  0.00    +0.000 C 
ATOM      6  N   UNL     1       3.759   3.180  18.356  0.00  0.00    +0.000 NA
ATOM      7  C   UNL     1       2.444   2.857  18.112  0.00  0.00    +0.000 C 
ATOM      8  O   UNL     1       2.062   1.935  17.403  0.00  0.00    +0.000 OA
ATOM      9  C   UNL     1       1.527   3.812  18.852  0.00  0.00    +0.000 C 
ATOM     10  N   UNL     1       2.496   4.710  19.510  0.00  0.00    +0.000 N 
ATOM     11  H   UNL     1       5.661   3.599  17.687  0.00  0.00    +0.000 HD
ATOM     12  H   UNL     1       7.892   5.585  19.282  0.00  0.00    +0.000 HD
ATOM     13  H   UNL     1       4.801   5.271  20.518  0.00  0.00    +0.000 HD
ENDROOT
BRANCH  10  14
ATOM     14  C   UNL     1       2.098   6.067  19.729  0.00  0.00    +0.000 A 
ATOM     15  C   UNL     1       1.438   6.433  20.927  0.00  0.00    +0.000 A 
ATOM     16  C   UNL     1       1.050   7.745  21.223  0.00  0.00    +0.000 A 
ATOM     17  C   UNL     1       1.356   8.771  20.350  0.00  0.00    +0.000 A 
ATOM     18  C   UNL     1       2.003   8.476  19.153  0.00  0.00    +0.000 A 
ATOM     19 CL   UNL     1       2.383   9.831  18.137  0.00  0.00    +0.000 Cl
ATOM     20  C   UNL     1       2.334   7.141  18.814  0.00  0.00    +0.000 A 
ATOM     21 CL   UNL     1       2.968   6.873  17.211  0.00  0.00    +0.000 Cl
ENDBRANCH  10  14
BRANCH   1  23
ATOM     22  C   UNL     1       6.905   4.052  15.611  0.00  0.00    +0.000 C 
ATOM     23  C   UNL     1       7.307   4.684  16.938  0.00  0.00    +0.000 C 
ATOM     24  C   UNL     1       7.267   6.209  16.832  0.00  0.00    +0.000 C 
ENDBRANCH   1  23
TORSDOF 2
ENDMDL
MODEL 4
REMARK VINA RESULT:      -7.0      3.060      5.496
REMARK  Name = 
REMARK  4 active torsions:
REMARK  status: ('A' for Active; 'I' for Inactive)
REMARK    1  A    between atoms: C_1  and  C_2
REMARK    2  A    between atoms: C_2  and  C_3
REMARK    3  A    between atoms: C_2  and  N_4
REMARK    4  A    between atoms: N_13  and  C_14
REMARK                            x       y       z     vdW  Elec       q    Type
REMARK                         _______ _______ _______ _____ _____    ______ ____
ROOT
ATOM      1  N   UNL     1       1.382   8.002  20.090  0.00  0.00    +0.000 N 
ATOM      2  C   UNL     1       1.881   7.783  18.847  0.00  0.00    +0.000 C 
ATOM      3  N   UNL     1       1.943   8.666  17.908  0.00  0.00    +0.000 NA
ATOM      4  N   UNL     1       2.412   6.550  18.620  0.00  0.00    +0.000 N 
ATOM      5  C   UNL     1       2.636   5.468  19.410  0.00  0.00    +0.000 C 
ATOM      6  N   UNL     1       1.898   5.202  20.462  0.00  0.00    +0.000 NA
ATOM      7  C   UNL     1       2.383   4.030  20.995  0.00  0.00    +0.000 C 
ATOM      8  O   UNL     1       1.935   3.464  21.984  0.00  0.00    +0.000 OA
ATOM      9  C   UNL     1       3.562   3.535  20.179  0.00  0.00    +0.000 C 
ATOM     10  N   UNL     1       3.678   4.586  19.150  0.00  0.00    +0.000 N 
ATOM     11  H   UNL     1       1.307   7.163  20.669  0.00  0.00    +0.000 HD
ATOM     12  H   UNL     1       1.495   9.521  18.247  0.00  0.00    +0.000 HD
ATOM     13  H   UNL     1       2.737   6.470  17.665  0.00  0.00    +0.000 HD
ENDROOT
BRANCH  10  14
ATOM     14  C   UNL     1       4.983   4.864  18.631  0.00  0.00    +0.000 A 
ATOM     15  C   UNL     1       6.001   5.350  19.485  0.00  0.00    +0.000 A 
ATOM     16  C   UNL     1       7.308   5.612  19.055  0.00  0.00    +0.000 A 
ATOM     17  C   UNL     1       7.673   5.345  17.749  0.00  0.00    +0.000 A 
ATOM     18  C   UNL     1       6.716   4.868  16.859  0.00  0.00    +0.000 A 
ATOM     19 CL   UNL     1       7.273   4.522  15.252  0.00  0.00    +0.000 Cl
ATOM     20  C   UNL     1       5.374   4.669  17.269  0.00  0.00    +0.000 A 
ATOM     21 CL   UNL     1       4.226   4.249  16.024  0.00  0.00    +0.000 Cl
ENDBRANCH  10  14
BRANCH   1  23
ATOM     22  C   UNL     1       0.208  10.107  20.425  0.00  0.00    +0.000 C 
ATOM     23  C   UNL     1       1.416   9.264  20.811  0.00  0.00    +0.000 C 
ATOM     24  C   UNL     1       1.421   9.004  22.319  0.00  0.00    +0.000 C 
ENDBRANCH   1  23
TORSDOF 2
ENDMDL
MODEL 5
REMARK VINA RESULT:      -6.8      1.542      1.716
REMARK  Name = 
REMARK  4 active torsions:
REMARK  status: ('A' for Active; 'I' for Inactive)
REMARK    1  A    between atoms: C_1  and  C_2
REMARK    2  A    between atoms: C_2  and  C_3
REMARK    3  A    between atoms: C_2  and  N_4
REMARK    4  A    between atoms: N_13  and  C_14
REMARK                            x       y       z     vdW  Elec       q    Type
REMARK                         _______ _______ _______ _____ _____    ______ ____
ROOT
ATOM      1  N   UNL     1       6.497   7.153  17.003  0.00  0.00    +0.000 N 
ATOM      2  C   UNL     1       5.932   5.933  16.816  0.00  0.00    +0.000 C 
ATOM      3  N   UNL     1       6.581   4.850  16.547  0.00  0.00    +0.000 NA
ATOM      4  N   UNL     1       4.585   5.859  16.996  0.00  0.00    +0.000 N 
ATOM      5  C   UNL     1       3.647   6.748  17.413  0.00  0.00    +0.000 C 
ATOM      6  N   UNL     1       3.776   8.041  17.234  0.00  0.00    +0.000 NA
ATOM      7  C   UNL     1       2.639   8.624  17.745  0.00  0.00    +0.000 C 
ATOM      8  O   UNL     1       2.398   9.824  17.746  0.00  0.00    +0.000 OA
ATOM      9  C   UNL     1       1.718   7.560  18.312  0.00  0.00    +0.000 C 
ATOM     10  N   UNL     1       2.497   6.330  18.072  0.00  0.00    +0.000 N 
ATOM     11  H   UNL     1       5.826   7.919  17.095  0.00  0.00    +0.000 HD
ATOM     12  H   UNL     1       7.569   5.092  16.439  0.00  0.00    +0.000 HD
ATOM     13  H   UNL     1       4.250   4.922  16.813  0.00  0.00    +0.000 HD
ENDROOT
BRANCH  10  14
ATOM     14  C   UNL     1       2.332   5.251  18.998  0.00  0.00    +0.000 A 
ATOM     15  C   UNL     1       2.288   5.505  20.390  0.00  0.00    +0.000 A 
ATOM     16  C   UNL     1       2.097   4.505  21.350  0.00  0.00    +0.000 A 
ATOM     17  C   UNL     1       1.886   3.198  20.956  0.00  0.00    +0.000 A 
ATOM     18  C   UNL     1       1.921   2.882  19.601  0.00  0.00    +0.000 A 
ATOM     19 CL   UNL     1       1.605   1.224  19.195  0.00  0.00    +0.000 Cl
ATOM     20  C   UNL     1       2.185   3.877  18.627  0.00  0.00    +0.000 A 
ATOM     21 CL   UNL     1       2.390   3.332  16.983  0.00  0.00    +0.000 Cl
ENDBRANCH  10  14
BRANCH   1  23
ATOM     22  C   UNL     1       7.988   8.894  17.820  0.00  0.00    +0.000 C 
ATOM     23  C   UNL     1       7.819   7.404  17.552  0.00  0.00    +0.000 C 
ATOM     24  C   UNL     1       8.008   6.609  18.845  0.00  0.00    +0.000 C 
ENDBRANCH   1  23
TORSDOF 2
ENDMDL
MODEL 6
REMARK VINA RESULT:      -6.7      2.883      5.539
REMARK  Name = 
REMARK  4 active torsions:
REMARK  status: ('A' for Active; 'I' for Inactive)
REMARK    1  A    between atoms: C_1  and  C_2
REMARK    2  A    between atoms: C_2  and  C_3
REMARK    3  A    between atoms: C_2  and  N_4
REMARK    4  A    between atoms: N_13  and  C_14
REMARK                            x       y       z     vdW  Elec       q    Type
REMARK                         _______ _______ _______ _____ _____    ______ ____
ROOT
ATOM      1  N   UNL     1       2.969   3.389  20.237  0.00  0.00    +0.000 N 
ATOM      2  C   UNL     1       4.262   3.219  19.864  0.00  0.00    +0.000 C 
ATOM      3  N   UNL     1       4.961   2.155  20.079  0.00  0.00    +0.000 NA
ATOM      4  N   UNL     1       4.823   4.235  19.153  0.00  0.00    +0.000 N 
ATOM      5  C   UNL     1       4.339   5.397  18.642  0.00  0.00    +0.000 C 
ATOM      6  N   UNL     1       3.330   6.036  19.185  0.00  0.00    +0.000 NA
ATOM      7  C   UNL     1       3.136   7.173  18.434  0.00  0.00    +0.000 C 
ATOM      8  O   UNL     1       2.282   8.025  18.648  0.00  0.00    +0.000 OA
ATOM      9  C   UNL     1       4.137   7.222  17.295  0.00  0.00    +0.000 C 
ATOM     10  N   UNL     1       4.885   5.967  17.498  0.00  0.00    +0.000 N 
ATOM     11  H   UNL     1       2.607   4.334  20.089  0.00  0.00    +0.000 HD
ATOM     12  H   UNL     1       4.391   1.507  20.628  0.00  0.00    +0.000 HD
ATOM     13  H   UNL     1       5.790   4.032  18.939  0.00  0.00    +0.000 HD
ENDROOT
BRANCH  10  14
ATOM     14  C   UNL     1       5.420   5.321  16.339  0.00  0.00    +0.000 A 
ATOM     15  C   UNL     1       4.738   4.227  15.753  0.00  0.00    +0.000 A 
ATOM     16  C   UNL     1       5.185   3.569  14.601  0.00  0.00    +0.000 A 
ATOM     17  C   UNL     1       6.317   4.012  13.945  0.00  0.00    +0.000 A 
ATOM     18  C   UNL     1       7.034   5.082  14.473  0.00  0.00    +0.000 A 
ATOM     19 CL   UNL     1       8.419   5.597  13.561  0.00  0.00    +0.000 Cl
ATOM     20  C   UNL     1       6.628   5.707  15.678  0.00  0.00    +0.000 A 
ATOM     21 CL   UNL     1       7.706   6.908  16.341  0.00  0.00    +0.000 Cl
ENDBRANCH  10  14
BRANCH   1  23
ATOM     22  C   UNL     1       1.293   2.411  21.706  0.00  0.00    +0.000 C 
ATOM     23  C   UNL     1       1.967   2.341  20.342  0.00  0.00    +0.000 C 
ATOM     24  C   UNL     1       0.930   2.495  19.229  0.00  0.00    +0.000 C 
ENDBRANCH   1  23
TORSDOF 2
ENDMDL
MODEL 7
REMARK VINA RESULT:      -6.5      2.871      4.684
REMARK  Name = 
REMARK  4 active torsions:
REMARK  status: ('A' for Active; 'I' for Inactive)
REMARK    1  A    between atoms: C_1  and  C_2
REMARK    2  A    between atoms: C_2  and  C_3
REMARK    3  A    between atoms: C_2  and  N_4
REMARK    4  A    between atoms: N_13  and  C_14
REMARK                            x       y       z     vdW  Elec       q    Type
REMARK                         _______ _______ _______ _____ _____    ______ ____
ROOT
ATOM      1  N   UNL     1       6.241   4.579  15.340  0.00  0.00    +0.000 N 
ATOM      2  C   UNL     1       6.426   5.482  16.336  0.00  0.00    +0.000 C 
ATOM      3  N   UNL     1       7.267   6.461  16.301  0.00  0.00    +0.000 NA
ATOM      4  N   UNL     1       5.604   5.367  17.414  0.00  0.00    +0.000 N 
ATOM      5  C   UNL     1       4.544   4.567  17.701  0.00  0.00    +0.000 C 
ATOM      6  N   UNL     1       4.414   3.365  17.193  0.00  0.00    +0.000 NA
ATOM      7  C   UNL     1       3.257   2.839  17.720  0.00  0.00    +0.000 C 
ATOM      8  O   UNL     1       2.813   1.723  17.480  0.00  0.00    +0.000 OA
ATOM      9  C   UNL     1       2.602   3.846  18.646  0.00  0.00    +0.000 C 
ATOM     10  N   UNL     1       3.526   4.992  18.546  0.00  0.00    +0.000 N 
ATOM     11  H   UNL     1       5.618   3.805  15.582  0.00  0.00    +0.000 HD
ATOM     12  H   UNL     1       7.801   6.388  15.431  0.00  0.00    +0.000 HD
ATOM     13  H   UNL     1       5.829   6.064  18.112  0.00  0.00    +0.000 HD
ENDROOT
BRANCH  10  14
ATOM     14  C   UNL     1       2.973   6.303  18.699  0.00  0.00    +0.000 A 
ATOM     15  C   UNL     1       3.129   7.268  17.674  0.00  0.00    +0.000 A 
ATOM     16  C   UNL     1       2.588   8.557  17.741  0.00  0.00    +0.000 A 
ATOM     17  C   UNL     1       1.812   8.927  18.823  0.00  0.00    +0.000 A 
ATOM     18  C   UNL     1       1.622   8.025  19.865  0.00  0.00    +0.000 A 
ATOM     19 CL   UNL     1       0.601   8.559  21.162  0.00  0.00    +0.000 Cl
ATOM     20  C   UNL     1       2.227   6.743  19.837  0.00  0.00    +0.000 A 
ATOM     21 CL   UNL     1       2.075   5.772  21.279  0.00  0.00    +0.000 Cl
ENDBRANCH  10  14
BRANCH   1  23
ATOM     22  C   UNL     1       7.887   5.032  13.606  0.00  0.00    +0.000 C 
ATOM     23  C   UNL     1       6.410   4.831  13.919  0.00  0.00    +0.000 C 
ATOM     24  C   UNL     1       5.852   3.659  13.110  0.00  0.00    +0.000 C 
ENDBRANCH   1  23
TORSDOF 2
ENDMDL
MODEL 8
REMARK VINA RESULT:      -6.5      3.263      5.104
REMARK  Name = 
REMARK  4 active torsions:
REMARK  status: ('A' for Active; 'I' for Inactive)
REMARK    1  A    between atoms: C_1  and  C_2
REMARK    2  A    between atoms: C_2  and  C_3
REMARK    3  A    between atoms: C_2  and  N_4
REMARK    4  A    between atoms: N_13  and  C_14
REMARK                            x       y       z     vdW  Elec       q    Type
REMARK                         _______ _______ _______ _____ _____    ______ ____
ROOT
ATOM      1  N   UNL     1       5.599   4.250  17.856  0.00  0.00    +0.000 N 
ATOM      2  C   UNL     1       5.744   5.485  18.398  0.00  0.00    +0.000 C 
ATOM      3  N   UNL     1       6.694   6.312  18.113  0.00  0.00    +0.000 NA
ATOM      4  N   UNL     1       4.766   5.886  19.255  0.00  0.00    +0.000 N 
ATOM      5  C   UNL     1       3.586   5.339  19.649  0.00  0.00    +0.000 C 
ATOM      6  N   UNL     1       3.387   4.043  19.675  0.00  0.00    +0.000 NA
ATOM      7  C   UNL     1       2.111   3.851  20.151  0.00  0.00    +0.000 C 
ATOM      8  O   UNL     1       1.575   2.763  20.322  0.00  0.00    +0.000 OA
ATOM      9  C   UNL     1       1.454   5.189  20.434  0.00  0.00    +0.000 C 
ATOM     10  N   UNL     1       2.514   6.135  20.036  0.00  0.00    +0.000 N 
ATOM     11  H   UNL     1       4.858   3.687  18.279  0.00  0.00    +0.000 HD
ATOM     12  H   UNL     1       7.336   5.846  17.467  0.00  0.00    +0.000 HD
ATOM     13  H   UNL     1       4.969   6.805  19.626  0.00  0.00    +0.000 HD
ENDROOT
BRANCH  10  14
ATOM     14  C   UNL     1       2.108   7.407  19.522  0.00  0.00    +0.000 A 
ATOM     15  C   UNL     1       2.326   7.731  18.162  0.00  0.00    +0.000 A 
ATOM     16  C   UNL     1       1.926   8.941  17.583  0.00  0.00    +0.000 A 
ATOM     17  C   UNL     1       1.233   9.872  18.335  0.00  0.00    +0.000 A 
ATOM     18  C   UNL     1       0.989   9.614  19.681  0.00  0.00    +0.000 A 
ATOM     19 CL   UNL     1       0.078  10.818  20.536  0.00  0.00    +0.000 Cl
ATOM     20  C   UNL     1       1.455   8.422  20.290  0.00  0.00    +0.000 A 
ATOM     21 CL   UNL     1       1.256   8.295  22.019  0.00  0.00    +0.000 Cl
ENDBRANCH  10  14
BRANCH   1  23
ATOM     22  C   UNL     1       5.019   4.416  15.498  0.00  0.00    +0.000 C 
ATOM     23  C   UNL     1       6.003   3.854  16.516  0.00  0.00    +0.000 C 
ATOM     24  C   UNL     1       7.416   4.362  16.225  0.00  0.00    +0.000 C 
ENDBRANCH   1  23
TORSDOF 2
ENDMDL
MODEL 9
REMARK VINA RESULT:      -6.5      3.119      4.899
REMARK  Name = 
REMARK  4 active torsions:
REMARK  status: ('A' for Active; 'I' for Inactive)
REMARK    1  A    between atoms: C_1  and  C_2
REMARK    2  A    between atoms: C_2  and  C_3
REMARK    3  A    between atoms: C_2  and  N_4
REMARK    4  A    between atoms: N_13  and  C_14
REMARK                            x       y       z     vdW  Elec       q    Type
REMARK                         _______ _______ _______ _____ _____    ______ ____
ROOT
ATOM      1  N   UNL     1       5.490   4.150  17.808  0.00  0.00    +0.000 N 
ATOM      2  C   UNL     1       5.583   5.105  18.767  0.00  0.00    +0.000 C 
ATOM      3  N   UNL     1       6.545   5.960  18.871  0.00  0.00    +0.000 NA
ATOM      4  N   UNL     1       4.538   5.191  19.635  0.00  0.00    +0.000 N 
ATOM      5  C   UNL     1       3.335   4.564  19.716  0.00  0.00    +0.000 C 
ATOM      6  N   UNL     1       3.145   3.349  19.258  0.00  0.00    +0.000 NA
ATOM      7  C   UNL     1       1.837   3.026  19.535  0.00  0.00    +0.000 C 
ATOM      8  O   UNL     1       1.299   1.960  19.263  0.00  0.00    +0.000 OA
ATOM      9  C   UNL     1       1.150   4.186  20.230  0.00  0.00    +0.000 C 
ATOM     10  N   UNL     1       2.230   5.189  20.280  0.00  0.00    +0.000 N 
ATOM     11  H   UNL     1       4.723   3.488  17.943  0.00  0.00    +0.000 HD
ATOM     12  H   UNL     1       7.240   5.743  18.152  0.00  0.00    +0.000 HD
ATOM     13  H   UNL     1       4.704   5.911  20.326  0.00  0.00    +0.000 HD
ENDROOT
BRANCH  10  14
ATOM     14  C   UNL     1       1.855   6.570  20.230  0.00  0.00    +0.000 A 
ATOM     15  C   UNL     1       1.301   7.201  21.369  0.00  0.00    +0.000 A 
ATOM     16  C   UNL     1       0.942   8.553  21.403  0.00  0.00    +0.000 A 
ATOM     17  C   UNL     1       1.173   9.358  20.304  0.00  0.00    +0.000 A 
ATOM     18  C   UNL     1       1.713   8.797  19.150  0.00  0.00    +0.000 A 
ATOM     19 CL   UNL     1       2.006   9.889  17.834  0.00  0.00    +0.000 Cl
ATOM     20  C   UNL     1       2.012   7.413  19.085  0.00  0.00    +0.000 A 
ATOM     21 CL   UNL     1       2.505   6.789  17.532  0.00  0.00    +0.000 Cl
ENDBRANCH  10  14
BRANCH   1  23
ATOM     22  C   UNL     1       5.310   5.405  15.731  0.00  0.00    +0.000 C 
ATOM     23  C   UNL     1       6.000   4.254  16.450  0.00  0.00    +0.000 C 
ATOM     24  C   UNL     1       7.514   4.476  16.476  0.00  0.00    +0.000 C 
ENDBRANCH   1  23
TORSDOF 2
ENDMDL
