MODEL 1
REMARK VINA RESULT:      -8.5      0.000      0.000
REMARK  Name = 
REMARK  15 active torsions:
REMARK  status: ('A' for Active; 'I' for Inactive)
REMARK    1  A    between atoms: C_1  and  O_2
REMARK    2  A    between atoms: O_2  and  C_3
REMARK    3  A    between atoms: C_6  and  C_7
REMARK    4  A    between atoms: C_9  and  O_10
REMARK    5  A    between atoms: O_10  and  C_11
REMARK    6  A    between atoms: C_11  and  C_12
REMARK    7  A    between atoms: C_12  and  C_13
REMARK    8  A    between atoms: C_13  and  C_14
REMARK    9  A    between atoms: C_14  and  C_15
REMARK   10  A    between atoms: C_15  and  C_16
REMARK   11  A    between atoms: C_16  and  C_17
REMARK   12  A    between atoms: C_17  and  C_18
REMARK   13  A    between atoms: C_18  and  C_19
REMARK   14  A    between atoms: N_21  and  O_22
REMARK   15  A    between atoms: C_27  and  C_28
REMARK                            x       y       z     vdW  Elec       q    Type
REMARK                         _______ _______ _______ _____ _____    ______ ____
ROOT
ATOM      1  C   UNL     1       5.006   4.262  16.674  0.00  0.00    +0.000 A 
ATOM      2  C   UNL     1       5.995   5.175  17.059  0.00  0.00    +0.000 A 
ATOM      3  C   UNL     1       7.000   5.608  16.172  0.00  0.00    +0.000 A 
ATOM      4  C   UNL     1       7.047   5.145  14.840  0.00  0.00    +0.000 A 
ATOM      5  N   UNL     1       7.992   5.547  13.968  0.00  0.00    +0.000 NA
ATOM      6  C   UNL     1       7.970   5.066  12.722  0.00  0.00    +0.000 A 
ATOM      7  N   UNL     1       7.075   4.210  12.238  0.00  0.00    +0.000 NA
ATOM      8  C   UNL     1       6.124   3.804  13.102  0.00  0.00    +0.000 A 
ATOM      9  C   UNL     1       5.119   2.848  12.523  0.00  0.00    +0.000 C 
ATOM     10  C   UNL     1       6.058   4.237  14.437  0.00  0.00    +0.000 A 
ATOM     11  C   UNL     1       5.063   3.805  15.354  0.00  0.00    +0.000 A 
ENDROOT
BRANCH   1  15
ATOM     12  C   UNL     1       1.974   2.857  19.297  0.00  0.00    +0.000 A 
ATOM     13  C   UNL     1       2.739   3.930  19.711  0.00  0.00    +0.000 A 
ATOM     14  C   UNL     1       3.744   4.395  18.862  0.00  0.00    +0.000 A 
ATOM     15  C   UNL     1       3.963   3.792  17.611  0.00  0.00    +0.000 A 
ATOM     16  C   UNL     1       3.118   2.722  17.306  0.00  0.00    +0.000 A 
ATOM     17  N   UNL     1       2.140   2.242  18.111  0.00  0.00    +0.000 NA
BRANCH  12  19
ATOM     18  C   UNL     1       1.406   2.531  21.534  0.00  0.00    +0.000 C 
ATOM     19  O   UNL     1       1.006   2.408  20.172  0.00  0.00    +0.000 OA
ENDBRANCH  12  19
ENDBRANCH   1  15
BRANCH   3  20
ATOM     20  O   UNL     1       7.866   6.498  16.775  0.00  0.00    +0.000 OA
BRANCH  20  21
ATOM     21  C   UNL     1       7.298   7.571  17.526  0.00  0.00    +0.000 C 
BRANCH  21  22
ATOM     22  C   UNL     1       8.383   8.263  18.344  0.00  0.00    +0.000 C 
BRANCH  22  23
ATOM     23  C   UNL     1       8.524   9.736  17.966  0.00  0.00    +0.000 C 
BRANCH  23  24
ATOM     24  C   UNL     1       9.529  10.435  18.877  0.00  0.00    +0.000 C 
BRANCH  24  25
ATOM     25  C   UNL     1      10.096  11.678  18.200  0.00  0.00    +0.000 C 
BRANCH  25  26
ATOM     26  C   UNL     1      11.622  11.650  18.190  0.00  0.00    +0.000 C 
BRANCH  26  27
ATOM     27  C   UNL     1      12.180  13.007  17.771  0.00  0.00    +0.000 C 
BRANCH  27  28
ATOM     28  C   UNL     1      11.289  13.681  16.732  0.00  0.00    +0.000 C 
BRANCH  28  29
ATOM     29  C   UNL     1      10.853  15.056  17.187  0.00  0.00    +0.000 C 
ATOM     30  O   UNL     1      10.471  15.328  18.323  0.00  0.00    +0.000 OA
ATOM     31  N   UNL     1      10.915  16.005  16.199  0.00  0.00    +0.000 N 
ATOM     32  H   UNL     1      11.295  15.866  15.270  0.00  0.00    +0.000 HD
BRANCH  31  33
ATOM     33  O   UNL     1      10.554  17.319  16.569  0.00  0.00    +0.000 OA
ATOM     34  H   UNL     1      10.108  17.174  17.434  0.00  0.00    +0.000 HD
ENDBRANCH  31  33
ENDBRANCH  28  29
ENDBRANCH  27  28
ENDBRANCH  26  27
ENDBRANCH  25  26
ENDBRANCH  24  25
ENDBRANCH  23  24
ENDBRANCH  22  23
ENDBRANCH  21  22
ENDBRANCH  20  21
ENDBRANCH   3  20
TORSDOF 13
ENDMDL
MODEL 2
REMARK VINA RESULT:      -8.4      0.801      1.238
REMARK  Name = 
REMARK  15 active torsions:
REMARK  status: ('A' for Active; 'I' for Inactive)
REMARK    1  A    between atoms: C_1  and  O_2
REMARK    2  A    between atoms: O_2  and  C_3
REMARK    3  A    between atoms: C_6  and  C_7
REMARK    4  A    between atoms: C_9  and  O_10
REMARK    5  A    between atoms: O_10  and  C_11
REMARK    6  A    between atoms: C_11  and  C_12
REMARK    7  A    between atoms: C_12  and  C_13
REMARK    8  A    between atoms: C_13  and  C_14
REMARK    9  A    between atoms: C_14  and  C_15
REMARK   10  A    between atoms: C_15  and  C_16
REMARK   11  A    between atoms: C_16  and  C_17
REMARK   12  A    between atoms: C_17  and  C_18
REMARK   13  A    between atoms: C_18  and  C_19
REMARK   14  A    between atoms: N_21  and  O_22
REMARK   15  A    between atoms: C_27  and  C_28
REMARK                            x       y       z     vdW  Elec       q    Type
REMARK                         _______ _______ _______ _____ _____    ______ ____
ROOT
ATOM      1  C   UNL     1       5.156   4.139  16.672  0.00  0.00    +0.000 A 
ATOM      2  C   UNL     1       6.161   5.038  17.051  0.00  0.00    +0.000 A 
ATOM      3  C   UNL     1       7.125   5.511  16.140  0.00  0.00    +0.000 A 
ATOM      4  C   UNL     1       7.112   5.105  14.788  0.00  0.00    +0.000 A 
ATOM      5  N   UNL     1       8.018   5.548  13.893  0.00  0.00    +0.000 NA
ATOM      6  C   UNL     1       7.940   5.120  12.629  0.00  0.00    +0.000 A 
ATOM      7  N   UNL     1       7.025   4.284  12.149  0.00  0.00    +0.000 NA
ATOM      8  C   UNL     1       6.113   3.839  13.037  0.00  0.00    +0.000 A 
ATOM      9  C   UNL     1       5.084   2.907  12.463  0.00  0.00    +0.000 C 
ATOM     10  C   UNL     1       6.107   4.214  14.392  0.00  0.00    +0.000 A 
ATOM     11  C   UNL     1       5.154   3.740  15.332  0.00  0.00    +0.000 A 
ENDROOT
BRANCH   1  15
ATOM     12  C   UNL     1       2.325   2.718  19.502  0.00  0.00    +0.000 A 
ATOM     13  C   UNL     1       2.349   2.120  18.258  0.00  0.00    +0.000 A 
ATOM     14  C   UNL     1       3.269   2.584  17.317  0.00  0.00    +0.000 A 
ATOM     15  C   UNL     1       4.156   3.627  17.633  0.00  0.00    +0.000 A 
ATOM     16  C   UNL     1       4.038   4.141  18.927  0.00  0.00    +0.000 A 
ATOM     17  N   UNL     1       3.151   3.719  19.860  0.00  0.00    +0.000 NA
BRANCH  12  19
ATOM     18  C   UNL     1       1.541   2.828  21.695  0.00  0.00    +0.000 C 
ATOM     19  O   UNL     1       1.387   2.251  20.400  0.00  0.00    +0.000 OA
ENDBRANCH  12  19
ENDBRANCH   1  15
BRANCH   3  20
ATOM     20  O   UNL     1       8.016   6.376  16.742  0.00  0.00    +0.000 OA
BRANCH  20  21
ATOM     21  C   UNL     1       7.545   7.157  17.839  0.00  0.00    +0.000 C 
BRANCH  21  22
ATOM     22  C   UNL     1       7.096   8.528  17.346  0.00  0.00    +0.000 C 
BRANCH  22  23
ATOM     23  C   UNL     1       8.058   9.630  17.785  0.00  0.00    +0.000 C 
BRANCH  23  24
ATOM     24  C   UNL     1       8.916   9.166  18.958  0.00  0.00    +0.000 C 
BRANCH  24  25
ATOM     25  C   UNL     1       9.484  10.361  19.717  0.00  0.00    +0.000 C 
BRANCH  25  26
ATOM     26  C   UNL     1       9.696  11.553  18.787  0.00  0.00    +0.000 C 
BRANCH  26  27
ATOM     27  C   UNL     1      11.167  11.953  18.757  0.00  0.00    +0.000 C 
BRANCH  27  28
ATOM     28  C   UNL     1      11.552  12.572  17.418  0.00  0.00    +0.000 C 
BRANCH  28  29
ATOM     29  C   UNL     1      11.158  14.031  17.350  0.00  0.00    +0.000 C 
ATOM     30  O   UNL     1      10.878  14.726  18.324  0.00  0.00    +0.000 OA
ATOM     31  N   UNL     1      11.135  14.534  16.074  0.00  0.00    +0.000 N 
ATOM     32  H   UNL     1      11.432  14.041  15.240  0.00  0.00    +0.000 HD
BRANCH  31  33
ATOM     33  O   UNL     1      10.808  15.901  15.945  0.00  0.00    +0.000 OA
ATOM     34  H   UNL     1      11.655  16.339  16.189  0.00  0.00    +0.000 HD
ENDBRANCH  31  33
ENDBRANCH  28  29
ENDBRANCH  27  28
ENDBRANCH  26  27
ENDBRANCH  25  26
ENDBRANCH  24  25
ENDBRANCH  23  24
ENDBRANCH  22  23
ENDBRANCH  21  22
ENDBRANCH  20  21
ENDBRANCH   3  20
TORSDOF 13
ENDMDL
MODEL 3
REMARK VINA RESULT:      -8.1      3.736      6.032
REMARK  Name = 
REMARK  15 active torsions:
REMARK  status: ('A' for Active; 'I' for Inactive)
REMARK    1  A    between atoms: C_1  and  O_2
REMARK    2  A    between atoms: O_2  and  C_3
REMARK    3  A    between atoms: C_6  and  C_7
REMARK    4  A    between atoms: C_9  and  O_10
REMARK    5  A    between atoms: O_10  and  C_11
REMARK    6  A    between atoms: C_11  and  C_12
REMARK    7  A    between atoms: C_12  and  C_13
REMARK    8  A    between atoms: C_13  and  C_14
REMARK    9  A    between atoms: C_14  and  C_15
REMARK   10  A    between atoms: C_15  and  C_16
REMARK   11  A    between atoms: C_16  and  C_17
REMARK   12  A    between atoms: C_17  and  C_18
REMARK   13  A    between atoms: C_18  and  C_19
REMARK   14  A    between atoms: N_21  and  O_22
REMARK   15  A    between atoms: C_27  and  C_28
REMARK                            x       y       z     vdW  Elec       q    Type
REMARK                         _______ _______ _______ _____ _____    ______ ____
ROOT
ATOM      1  C   UNL     1       2.516   6.567  18.626  0.00  0.00    +0.000 A 
ATOM      2  C   UNL     1       3.368   6.312  17.545  0.00  0.00    +0.000 A 
ATOM      3  C   UNL     1       3.833   5.016  17.247  0.00  0.00    +0.000 A 
ATOM      4  C   UNL     1       3.447   3.905  18.027  0.00  0.00    +0.000 A 
ATOM      5  N   UNL     1       3.871   2.654  17.761  0.00  0.00    +0.000 NA
ATOM      6  C   UNL     1       3.461   1.651  18.543  0.00  0.00    +0.000 A 
ATOM      7  N   UNL     1       2.642   1.767  19.585  0.00  0.00    +0.000 NA
ATOM      8  C   UNL     1       2.210   3.015  19.856  0.00  0.00    +0.000 A 
ATOM      9  C   UNL     1       1.277   3.113  21.030  0.00  0.00    +0.000 C 
ATOM     10  C   UNL     1       2.587   4.143  19.107  0.00  0.00    +0.000 A 
ATOM     11  C   UNL     1       2.142   5.460  19.396  0.00  0.00    +0.000 A 
ENDROOT
BRANCH   1  15
ATOM     12  C   UNL     1       1.119  10.449  19.638  0.00  0.00    +0.000 A 
ATOM     13  C   UNL     1       1.645  10.261  18.374  0.00  0.00    +0.000 A 
ATOM     14  C   UNL     1       2.115   8.992  18.034  0.00  0.00    +0.000 A 
ATOM     15  C   UNL     1       2.044   7.929  18.951  0.00  0.00    +0.000 A 
ATOM     16  C   UNL     1       1.483   8.246  20.190  0.00  0.00    +0.000 A 
ATOM     17  N   UNL     1       1.025   9.467  20.555  0.00  0.00    +0.000 NA
BRANCH  12  19
ATOM     18  C   UNL     1       1.761  12.651  20.048  0.00  0.00    +0.000 C 
ATOM     19  O   UNL     1       0.685  11.721  19.950  0.00  0.00    +0.000 OA
ENDBRANCH  12  19
ENDBRANCH   1  15
BRANCH   3  20
ATOM     20  O   UNL     1       4.665   5.012  16.145  0.00  0.00    +0.000 OA
BRANCH  20  21
ATOM     21  C   UNL     1       5.911   5.699  16.252  0.00  0.00    +0.000 C 
BRANCH  21  22
ATOM     22  C   UNL     1       7.041   4.696  16.454  0.00  0.00    +0.000 C 
BRANCH  22  23
ATOM     23  C   UNL     1       7.750   4.903  17.790  0.00  0.00    +0.000 C 
BRANCH  23  24
ATOM     24  C   UNL     1       7.080   6.013  18.594  0.00  0.00    +0.000 C 
BRANCH  24  25
ATOM     25  C   UNL     1       8.040   7.178  18.808  0.00  0.00    +0.000 C 
BRANCH  25  26
ATOM     26  C   UNL     1       8.105   8.072  17.573  0.00  0.00    +0.000 C 
BRANCH  26  27
ATOM     27  C   UNL     1       8.063   9.543  17.972  0.00  0.00    +0.000 C 
BRANCH  27  28
ATOM     28  C   UNL     1       9.229   9.909  18.884  0.00  0.00    +0.000 C 
BRANCH  28  29
ATOM     29  C   UNL     1       9.823  11.249  18.511  0.00  0.00    +0.000 C 
ATOM     30  O   UNL     1       9.550  12.313  19.063  0.00  0.00    +0.000 OA
ATOM     31  N   UNL     1      10.717  11.183  17.473  0.00  0.00    +0.000 N 
ATOM     32  H   UNL     1      11.046  10.333  17.031  0.00  0.00    +0.000 HD
BRANCH  31  33
ATOM     33  O   UNL     1      11.334  12.397  17.100  0.00  0.00    +0.000 OA
ATOM     34  H   UNL     1      11.161  12.965  17.883  0.00  0.00    +0.000 HD
ENDBRANCH  31  33
ENDBRANCH  28  29
ENDBRANCH  27  28
ENDBRANCH  26  27
ENDBRANCH  25  26
ENDBRANCH  24  25
ENDBRANCH  23  24
ENDBRANCH  22  23
ENDBRANCH  21  22
ENDBRANCH  20  21
ENDBRANCH   3  20
TORSDOF 13
ENDMDL
MODEL 4
REMARK VINA RESULT:      -8.1      2.642      3.101
REMARK  Name = 
REMARK  15 active torsions:
REMARK  status: ('A' for Active; 'I' for Inactive)
REMARK    1  A    between atoms: C_1  and  O_2
REMARK    2  A    between atoms: O_2  and  C_3
REMARK    3  A    between atoms: C_6  and  C_7
REMARK    4  A    between atoms: C_9  and  O_10
REMARK    5  A    between atoms: O_10  and  C_11
REMARK    6  A    between atoms: C_11  and  C_12
REMARK    7  A    between atoms: C_12  and  C_13
REMARK    8  A    between atoms: C_13  and  C_14
REMARK    9  A    between atoms: C_14  and  C_15
REMARK   10  A    between atoms: C_15  and  C_16
REMARK   11  A    between atoms: C_16  and  C_17
REMARK   12  A    between atoms: C_17  and  C_18
REMARK   13  A    between atoms: C_18  and  C_19
REMARK   14  A    between atoms: N_21  and  O_22
REMARK   15  A    between atoms: C_27  and  C_28
REMARK                            x       y       z     vdW  Elec       q    Type
REMARK                         _______ _______ _______ _____ _____    ______ ____
ROOT
ATOM      1  C   UNL     1       4.960   4.288  16.600  0.00  0.00    +0.000 A 
ATOM      2  C   UNL     1       5.963   5.183  16.990  0.00  0.00    +0.000 A 
ATOM      3  C   UNL     1       6.976   5.604  16.107  0.00  0.00    +0.000 A 
ATOM      4  C   UNL     1       7.017   5.147  14.772  0.00  0.00    +0.000 A 
ATOM      5  N   UNL     1       7.970   5.539  13.904  0.00  0.00    +0.000 NA
ATOM      6  C   UNL     1       7.942   5.066  12.655  0.00  0.00    +0.000 A 
ATOM      7  N   UNL     1       7.033   4.228  12.165  0.00  0.00    +0.000 NA
ATOM      8  C   UNL     1       6.074   3.833  13.026  0.00  0.00    +0.000 A 
ATOM      9  C   UNL     1       5.054   2.897  12.441  0.00  0.00    +0.000 C 
ATOM     10  C   UNL     1       6.014   4.259  14.364  0.00  0.00    +0.000 A 
ATOM     11  C   UNL     1       5.011   3.837  15.277  0.00  0.00    +0.000 A 
ENDROOT
BRANCH   1  15
ATOM     12  C   UNL     1       2.002   2.917  19.323  0.00  0.00    +0.000 A 
ATOM     13  C   UNL     1       1.583   3.656  18.234  0.00  0.00    +0.000 A 
ATOM     14  C   UNL     1       2.547   4.119  17.337  0.00  0.00    +0.000 A 
ATOM     15  C   UNL     1       3.908   3.830  17.533  0.00  0.00    +0.000 A 
ATOM     16  C   UNL     1       4.201   3.067  18.666  0.00  0.00    +0.000 A 
ATOM     17  N   UNL     1       3.292   2.610  19.559  0.00  0.00    +0.000 NA
BRANCH  12  19
ATOM     18  C   UNL     1       1.413   2.665  21.564  0.00  0.00    +0.000 C 
ATOM     19  O   UNL     1       1.026   2.495  20.203  0.00  0.00    +0.000 OA
ENDBRANCH  12  19
ENDBRANCH   1  15
BRANCH   3  20
ATOM     20  O   UNL     1       7.856   6.476  16.717  0.00  0.00    +0.000 OA
BRANCH  20  21
ATOM     21  C   UNL     1       7.326   7.690  17.248  0.00  0.00    +0.000 C 
BRANCH  21  22
ATOM     22  C   UNL     1       8.260   8.237  18.322  0.00  0.00    +0.000 C 
BRANCH  22  23
ATOM     23  C   UNL     1       8.540   9.725  18.123  0.00  0.00    +0.000 C 
BRANCH  23  24
ATOM     24  C   UNL     1       9.348  10.285  19.290  0.00  0.00    +0.000 C 
BRANCH  24  25
ATOM     25  C   UNL     1       9.910  11.660  18.946  0.00  0.00    +0.000 C 
BRANCH  25  26
ATOM     26  C   UNL     1      10.707  12.236  20.113  0.00  0.00    +0.000 C 
BRANCH  26  27
ATOM     27  C   UNL     1       9.938  12.071  21.420  0.00  0.00    +0.000 C 
BRANCH  27  28
ATOM     28  C   UNL     1       9.436  13.410  21.948  0.00  0.00    +0.000 C 
BRANCH  28  29
ATOM     29  C   UNL     1       8.101  13.266  22.643  0.00  0.00    +0.000 C 
ATOM     30  O   UNL     1       7.427  14.203  23.064  0.00  0.00    +0.000 OA
ATOM     31  N   UNL     1       7.688  11.964  22.772  0.00  0.00    +0.000 N 
ATOM     32  H   UNL     1       8.153  11.155  22.376  0.00  0.00    +0.000 HD
BRANCH  31  33
ATOM     33  O   UNL     1       6.431  11.763  23.381  0.00  0.00    +0.000 OA
ATOM     34  H   UNL     1       5.810  11.979  22.650  0.00  0.00    +0.000 HD
ENDBRANCH  31  33
ENDBRANCH  28  29
ENDBRANCH  27  28
ENDBRANCH  26  27
ENDBRANCH  25  26
ENDBRANCH  24  25
ENDBRANCH  23  24
ENDBRANCH  22  23
ENDBRANCH  21  22
ENDBRANCH  20  21
ENDBRANCH   3  20
TORSDOF 13
ENDMDL
MODEL 5
REMARK VINA RESULT:      -8.0      4.240      5.913
REMARK  Name = 
REMARK  15 active torsions:
REMARK  status: ('A' for Active; 'I' for Inactive)
REMARK    1  A    between atoms: C_1  and  O_2
REMARK    2  A    between atoms: O_2  and  C_3
REMARK    3  A    between atoms: C_6  and  C_7
REMARK    4  A    between atoms: C_9  and  O_10
REMARK    5  A    between atoms: O_10  and  C_11
REMARK    6  A    between atoms: C_11  and  C_12
REMARK    7  A    between atoms: C_12  and  C_13
REMARK    8  A    between atoms: C_13  and  C_14
REMARK    9  A    between atoms: C_14  and  C_15
REMARK   10  A    between atoms: C_15  and  C_16
REMARK   11  A    between atoms: C_16  and  C_17
REMARK   12  A    between atoms: C_17  and  C_18
REMARK   13  A    between atoms: C_18  and  C_19
REMARK   14  A    between atoms: N_21  and  O_22
REMARK   15  A    between atoms: C_27  and  C_28
REMARK                            x       y       z     vdW  Elec       q    Type
REMARK                         _______ _______ _______ _____ _____    ______ ____
ROOT
ATOM      1  C   UNL     1       2.575   6.905  18.483  0.00  0.00    +0.000 A 
ATOM      2  C   UNL     1       3.729   6.786  17.698  0.00  0.00    +0.000 A 
ATOM      3  C   UNL     1       4.296   5.536  17.385  0.00  0.00    +0.000 A 
ATOM      4  C   UNL     1       3.713   4.335  17.843  0.00  0.00    +0.000 A 
ATOM      5  N   UNL     1       4.231   3.125  17.553  0.00  0.00    +0.000 NA
ATOM      6  C   UNL     1       3.621   2.031  18.021  0.00  0.00    +0.000 A 
ATOM      7  N   UNL     1       2.515   2.017  18.759  0.00  0.00    +0.000 NA
ATOM      8  C   UNL     1       1.989   3.223  19.052  0.00  0.00    +0.000 A 
ATOM      9  C   UNL     1       0.733   3.175  19.875  0.00  0.00    +0.000 C 
ATOM     10  C   UNL     1       2.553   4.437  18.622  0.00  0.00    +0.000 A 
ATOM     11  C   UNL     1       2.007   5.710  18.936  0.00  0.00    +0.000 A 
ENDROOT
BRANCH   1  15
ATOM     12  C   UNL     1       0.867  10.643  19.558  0.00  0.00    +0.000 A 
ATOM     13  C   UNL     1       1.314  10.487  18.261  0.00  0.00    +0.000 A 
ATOM     14  C   UNL     1       1.885   9.266  17.898  0.00  0.00    +0.000 A 
ATOM     15  C   UNL     1       1.991   8.218  18.829  0.00  0.00    +0.000 A 
ATOM     16  C   UNL     1       1.495   8.498  20.104  0.00  0.00    +0.000 A 
ATOM     17  N   UNL     1       0.943   9.674  20.490  0.00  0.00    +0.000 NA
BRANCH  12  19
ATOM     18  C   UNL     1       1.086  12.538  20.896  0.00  0.00    +0.000 C 
ATOM     19  O   UNL     1       0.330  11.870  19.889  0.00  0.00    +0.000 OA
ENDBRANCH  12  19
ENDBRANCH   1  15
BRANCH   3  20
ATOM     20  O   UNL     1       5.431   5.669  16.610  0.00  0.00    +0.000 OA
BRANCH  20  21
ATOM     21  C   UNL     1       6.301   6.764  16.891  0.00  0.00    +0.000 C 
BRANCH  21  22
ATOM     22  C   UNL     1       7.397   6.322  17.855  0.00  0.00    +0.000 C 
BRANCH  22  23
ATOM     23  C   UNL     1       8.199   7.509  18.383  0.00  0.00    +0.000 C 
BRANCH  23  24
ATOM     24  C   UNL     1       7.759   8.804  17.708  0.00  0.00    +0.000 C 
BRANCH  24  25
ATOM     25  C   UNL     1       8.759   9.923  17.983  0.00  0.00    +0.000 C 
BRANCH  25  26
ATOM     26  C   UNL     1       9.198   9.921  19.445  0.00  0.00    +0.000 C 
BRANCH  26  27
ATOM     27  C   UNL     1      10.063  11.140  19.746  0.00  0.00    +0.000 C 
BRANCH  27  28
ATOM     28  C   UNL     1       9.216  12.342  20.149  0.00  0.00    +0.000 C 
BRANCH  28  29
ATOM     29  C   UNL     1       9.280  12.587  21.640  0.00  0.00    +0.000 C 
ATOM     30  O   UNL     1       9.661  13.633  22.161  0.00  0.00    +0.000 OA
ATOM     31  N   UNL     1       8.867  11.516  22.391  0.00  0.00    +0.000 N 
ATOM     32  H   UNL     1       8.467  10.659  22.026  0.00  0.00    +0.000 HD
BRANCH  31  33
ATOM     33  O   UNL     1       8.869  11.694  23.791  0.00  0.00    +0.000 OA
ATOM     34  H   UNL     1       8.097  12.288  23.924  0.00  0.00    +0.000 HD
ENDBRANCH  31  33
ENDBRANCH  28  29
ENDBRANCH  27  28
ENDBRANCH  26  27
ENDBRANCH  25  26
ENDBRANCH  24  25
ENDBRANCH  23  24
ENDBRANCH  22  23
ENDBRANCH  21  22
ENDBRANCH  20  21
ENDBRANCH   3  20
TORSDOF 13
ENDMDL
MODEL 6
REMARK VINA RESULT:      -8.0      3.710      5.344
REMARK  Name = 
REMARK  15 active torsions:
REMARK  status: ('A' for Active; 'I' for Inactive)
REMARK    1  A    between atoms: C_1  and  O_2
REMARK    2  A    between atoms: O_2  and  C_3
REMARK    3  A    between atoms: C_6  and  C_7
REMARK    4  A    between atoms: C_9  and  O_10
REMARK    5  A    between atoms: O_10  and  C_11
REMARK    6  A    between atoms: C_11  and  C_12
REMARK    7  A    between atoms: C_12  and  C_13
REMARK    8  A    between atoms: C_13  and  C_14
REMARK    9  A    between atoms: C_14  and  C_15
REMARK   10  A    between atoms: C_15  and  C_16
REMARK   11  A    between atoms: C_16  and  C_17
REMARK   12  A    between atoms: C_17  and  C_18
REMARK   13  A    between atoms: C_18  and  C_19
REMARK   14  A    between atoms: N_21  and  O_22
REMARK   15  A    between atoms: C_27  and  C_28
REMARK                            x       y       z     vdW  Elec       q    Type
REMARK                         _______ _______ _______ _____ _____    ______ ____
ROOT
ATOM      1  C   UNL     1       2.540   6.799  18.620  0.00  0.00    +0.000 A 
ATOM      2  C   UNL     1       3.657   6.736  17.778  0.00  0.00    +0.000 A 
ATOM      3  C   UNL     1       4.222   5.510  17.375  0.00  0.00    +0.000 A 
ATOM      4  C   UNL     1       3.674   4.280  17.797  0.00  0.00    +0.000 A 
ATOM      5  N   UNL     1       4.191   3.093  17.421  0.00  0.00    +0.000 NA
ATOM      6  C   UNL     1       3.615   1.969  17.859  0.00  0.00    +0.000 A 
ATOM      7  N   UNL     1       2.544   1.903  18.645  0.00  0.00    +0.000 NA
ATOM      8  C   UNL     1       2.019   3.086  19.023  0.00  0.00    +0.000 A 
ATOM      9  C   UNL     1       0.803   2.979  19.899  0.00  0.00    +0.000 C 
ATOM     10  C   UNL     1       2.550   4.327  18.631  0.00  0.00    +0.000 A 
ATOM     11  C   UNL     1       2.006   5.575  19.035  0.00  0.00    +0.000 A 
ENDROOT
BRANCH   1  15
ATOM     12  C   UNL     1       0.895  10.534  19.799  0.00  0.00    +0.000 A 
ATOM     13  C   UNL     1       0.986   9.539  20.753  0.00  0.00    +0.000 A 
ATOM     14  C   UNL     1       1.517   8.305  20.375  0.00  0.00    +0.000 A 
ATOM     15  C   UNL     1       1.958   8.085  19.059  0.00  0.00    +0.000 A 
ATOM     16  C   UNL     1       1.820   9.172  18.192  0.00  0.00    +0.000 A 
ATOM     17  N   UNL     1       1.302  10.379  18.525  0.00  0.00    +0.000 NA
BRANCH  12  19
ATOM     18  C   UNL     1      -1.064  11.784  19.980  0.00  0.00    +0.000 C 
ATOM     19  O   UNL     1       0.344  11.734  20.200  0.00  0.00    +0.000 OA
ENDBRANCH  12  19
ENDBRANCH   1  15
BRANCH   3  20
ATOM     20  O   UNL     1       5.319   5.698  16.558  0.00  0.00    +0.000 OA
BRANCH  20  21
ATOM     21  C   UNL     1       6.570   5.168  16.993  0.00  0.00    +0.000 C 
BRANCH  21  22
ATOM     22  C   UNL     1       7.209   6.112  18.006  0.00  0.00    +0.000 C 
BRANCH  22  23
ATOM     23  C   UNL     1       7.036   7.575  17.604  0.00  0.00    +0.000 C 
BRANCH  23  24
ATOM     24  C   UNL     1       8.377   8.302  17.613  0.00  0.00    +0.000 C 
BRANCH  24  25
ATOM     25  C   UNL     1       8.190   9.776  17.956  0.00  0.00    +0.000 C 
BRANCH  25  26
ATOM     26  C   UNL     1       9.062  10.179  19.142  0.00  0.00    +0.000 C 
BRANCH  26  27
ATOM     27  C   UNL     1      10.144  11.159  18.702  0.00  0.00    +0.000 C 
BRANCH  27  28
ATOM     28  C   UNL     1       9.547  12.373  17.998  0.00  0.00    +0.000 C 
BRANCH  28  29
ATOM     29  C   UNL     1      10.610  13.176  17.282  0.00  0.00    +0.000 C 
ATOM     30  O   UNL     1      11.739  12.766  17.021  0.00  0.00    +0.000 OA
ATOM     31  N   UNL     1      10.204  14.441  16.940  0.00  0.00    +0.000 N 
ATOM     32  H   UNL     1       9.268  14.811  17.052  0.00  0.00    +0.000 HD
BRANCH  31  33
ATOM     33  O   UNL     1      11.140  15.230  16.237  0.00  0.00    +0.000 OA
ATOM     34  H   UNL     1      10.679  16.097  16.182  0.00  0.00    +0.000 HD
ENDBRANCH  31  33
ENDBRANCH  28  29
ENDBRANCH  27  28
ENDBRANCH  26  27
ENDBRANCH  25  26
ENDBRANCH  24  25
ENDBRANCH  23  24
ENDBRANCH  22  23
ENDBRANCH  21  22
ENDBRANCH  20  21
ENDBRANCH   3  20
TORSDOF 13
ENDMDL
MODEL 7
REMARK VINA RESULT:      -8.0      1.006      1.220
REMARK  Name = 
REMARK  15 active torsions:
REMARK  status: ('A' for Active; 'I' for Inactive)
REMARK    1  A    between atoms: C_1  and  O_2
REMARK    2  A    between atoms: O_2  and  C_3
REMARK    3  A    between atoms: C_6  and  C_7
REMARK    4  A    between atoms: C_9  and  O_10
REMARK    5  A    between atoms: O_10  and  C_11
REMARK    6  A    between atoms: C_11  and  C_12
REMARK    7  A    between atoms: C_12  and  C_13
REMARK    8  A    between atoms: C_13  and  C_14
REMARK    9  A    between atoms: C_14  and  C_15
REMARK   10  A    between atoms: C_15  and  C_16
REMARK   11  A    between atoms: C_16  and  C_17
REMARK   12  A    between atoms: C_17  and  C_18
REMARK   13  A    between atoms: C_18  and  C_19
REMARK   14  A    between atoms: N_21  and  O_22
REMARK   15  A    between atoms: C_27  and  C_28
REMARK                            x       y       z     vdW  Elec       q    Type
REMARK                         _______ _______ _______ _____ _____    ______ ____
ROOT
ATOM      1  C   UNL     1       4.938   4.378  16.402  0.00  0.00    +0.000 A 
ATOM      2  C   UNL     1       5.919   5.292  16.806  0.00  0.00    +0.000 A 
ATOM      3  C   UNL     1       6.958   5.704  15.948  0.00  0.00    +0.000 A 
ATOM      4  C   UNL     1       7.049   5.218  14.627  0.00  0.00    +0.000 A 
ATOM      5  N   UNL     1       8.027   5.600  13.783  0.00  0.00    +0.000 NA
ATOM      6  C   UNL     1       8.046   5.098  12.544  0.00  0.00    +0.000 A 
ATOM      7  N   UNL     1       7.163   4.240  12.043  0.00  0.00    +0.000 NA
ATOM      8  C   UNL     1       6.179   3.854  12.880  0.00  0.00    +0.000 A 
ATOM      9  C   UNL     1       5.189   2.895  12.281  0.00  0.00    +0.000 C 
ATOM     10  C   UNL     1       6.069   4.310  14.205  0.00  0.00    +0.000 A 
ATOM     11  C   UNL     1       5.039   3.899  15.092  0.00  0.00    +0.000 A 
ENDROOT
BRANCH   1  15
ATOM     12  C   UNL     1       1.870   3.003  18.998  0.00  0.00    +0.000 A 
ATOM     13  C   UNL     1       1.798   4.307  18.548  0.00  0.00    +0.000 A 
ATOM     14  C   UNL     1       2.805   4.772  17.701  0.00  0.00    +0.000 A 
ATOM     15  C   UNL     1       3.860   3.931  17.309  0.00  0.00    +0.000 A 
ATOM     16  C   UNL     1       3.814   2.634  17.825  0.00  0.00    +0.000 A 
ATOM     17  N   UNL     1       2.857   2.154  18.655  0.00  0.00    +0.000 NA
BRANCH  12  19
ATOM     18  C   UNL     1       1.194   2.818  21.221  0.00  0.00    +0.000 C 
ATOM     19  O   UNL     1       0.871   2.583  19.853  0.00  0.00    +0.000 OA
ENDBRANCH  12  19
ENDBRANCH   1  15
BRANCH   3  20
ATOM     20  O   UNL     1       7.807   6.599  16.568  0.00  0.00    +0.000 OA
BRANCH  20  21
ATOM     21  C   UNL     1       7.250   7.473  17.548  0.00  0.00    +0.000 C 
BRANCH  21  22
ATOM     22  C   UNL     1       8.071   8.756  17.626  0.00  0.00    +0.000 C 
BRANCH  22  23
ATOM     23  C   UNL     1       8.754   8.909  18.983  0.00  0.00    +0.000 C 
BRANCH  23  24
ATOM     24  C   UNL     1       9.307  10.320  19.155  0.00  0.00    +0.000 C 
BRANCH  24  25
ATOM     25  C   UNL     1       9.682  10.922  17.804  0.00  0.00    +0.000 C 
BRANCH  25  26
ATOM     26  C   UNL     1       9.875  12.432  17.909  0.00  0.00    +0.000 C 
BRANCH  26  27
ATOM     27  C   UNL     1      11.204  12.846  17.287  0.00  0.00    +0.000 C 
BRANCH  27  28
ATOM     28  C   UNL     1      11.234  14.338  16.973  0.00  0.00    +0.000 C 
BRANCH  28  29
ATOM     29  C   UNL     1      11.098  15.171  18.228  0.00  0.00    +0.000 C 
ATOM     30  O   UNL     1      10.135  15.886  18.492  0.00  0.00    +0.000 OA
ATOM     31  N   UNL     1      12.171  15.063  19.076  0.00  0.00    +0.000 N 
ATOM     32  H   UNL     1      12.956  14.433  18.958  0.00  0.00    +0.000 HD
BRANCH  31  33
ATOM     33  O   UNL     1      12.090  15.790  20.284  0.00  0.00    +0.000 OA
ATOM     34  H   UNL     1      12.456  16.665  20.023  0.00  0.00    +0.000 HD
ENDBRANCH  31  33
ENDBRANCH  28  29
ENDBRANCH  27  28
ENDBRANCH  26  27
ENDBRANCH  25  26
ENDBRANCH  24  25
ENDBRANCH  23  24
ENDBRANCH  22  23
ENDBRANCH  21  22
ENDBRANCH  20  21
ENDBRANCH   3  20
TORSDOF 13
ENDMDL
MODEL 8
REMARK VINA RESULT:      -7.9      4.155      5.986
REMARK  Name = 
REMARK  15 active torsions:
REMARK  status: ('A' for Active; 'I' for Inactive)
REMARK    1  A    between atoms: C_1  and  O_2
REMARK    2  A    between atoms: O_2  and  C_3
REMARK    3  A    between atoms: C_6  and  C_7
REMARK    4  A    between atoms: C_9  and  O_10
REMARK    5  A    between atoms: O_10  and  C_11
REMARK    6  A    between atoms: C_11  and  C_12
REMARK    7  A    between atoms: C_12  and  C_13
REMARK    8  A    between atoms: C_13  and  C_14
REMARK    9  A    between atoms: C_14  and  C_15
REMARK   10  A    between atoms: C_15  and  C_16
REMARK   11  A    between atoms: C_16  and  C_17
REMARK   12  A    between atoms: C_17  and  C_18
REMARK   13  A    between atoms: C_18  and  C_19
REMARK   14  A    between atoms: N_21  and  O_22
REMARK   15  A    between atoms: C_27  and  C_28
REMARK                            x       y       z     vdW  Elec       q    Type
REMARK                         _______ _______ _______ _____ _____    ______ ____
ROOT
ATOM      1  C   UNL     1       2.040   7.237  19.960  0.00  0.00    +0.000 A 
ATOM      2  C   UNL     1       2.821   7.369  18.806  0.00  0.00    +0.000 A 
ATOM      3  C   UNL     1       3.446   6.265  18.194  0.00  0.00    +0.000 A 
ATOM      4  C   UNL     1       3.300   4.962  18.716  0.00  0.00    +0.000 A 
ATOM      5  N   UNL     1       3.880   3.887  18.147  0.00  0.00    +0.000 NA
ATOM      6  C   UNL     1       3.694   2.684  18.699  0.00  0.00    +0.000 A 
ATOM      7  N   UNL     1       2.963   2.432  19.780  0.00  0.00    +0.000 NA
ATOM      8  C   UNL     1       2.376   3.502  20.354  0.00  0.00    +0.000 A 
ATOM      9  C   UNL     1       1.545   3.185  21.565  0.00  0.00    +0.000 C 
ATOM     10  C   UNL     1       2.513   4.813  19.865  0.00  0.00    +0.000 A 
ATOM     11  C   UNL     1       1.904   5.943  20.473  0.00  0.00    +0.000 A 
ENDROOT
BRANCH   1  15
ATOM     12  C   UNL     1       0.227  10.540  21.923  0.00  0.00    +0.000 A 
ATOM     13  C   UNL     1      -0.002  10.389  20.569  0.00  0.00    +0.000 A 
ATOM     14  C   UNL     1       0.595   9.312  19.912  0.00  0.00    +0.000 A 
ATOM     15  C   UNL     1       1.400   8.399  20.614  0.00  0.00    +0.000 A 
ATOM     16  C   UNL     1       1.547   8.657  21.979  0.00  0.00    +0.000 A 
ATOM     17  N   UNL     1       0.988   9.696  22.644  0.00  0.00    +0.000 NA
BRANCH  12  19
ATOM     18  C   UNL     1      -1.309  12.278  21.695  0.00  0.00    +0.000 C 
ATOM     19  O   UNL     1      -0.359  11.628  22.536  0.00  0.00    +0.000 OA
ENDBRANCH  12  19
ENDBRANCH   1  15
BRANCH   3  20
ATOM     20  O   UNL     1       4.169   6.640  17.079  0.00  0.00    +0.000 OA
BRANCH  20  21
ATOM     21  C   UNL     1       5.319   7.460  17.279  0.00  0.00    +0.000 C 
BRANCH  21  22
ATOM     22  C   UNL     1       6.583   6.613  17.184  0.00  0.00    +0.000 C 
BRANCH  22  23
ATOM     23  C   UNL     1       7.702   7.164  18.065  0.00  0.00    +0.000 C 
BRANCH  23  24
ATOM     24  C   UNL     1       8.161   8.530  17.567  0.00  0.00    +0.000 C 
BRANCH  24  25
ATOM     25  C   UNL     1       8.563   9.424  18.736  0.00  0.00    +0.000 C 
BRANCH  25  26
ATOM     26  C   UNL     1       9.592  10.465  18.303  0.00  0.00    +0.000 C 
BRANCH  26  27
ATOM     27  C   UNL     1       8.899  11.749  17.857  0.00  0.00    +0.000 C 
BRANCH  27  28
ATOM     28  C   UNL     1       9.670  12.986  18.304  0.00  0.00    +0.000 C 
BRANCH  28  29
ATOM     29  C   UNL     1      11.058  13.019  17.705  0.00  0.00    +0.000 C 
ATOM     30  O   UNL     1      12.101  12.934  18.349  0.00  0.00    +0.000 OA
ATOM     31  N   UNL     1      11.063  13.157  16.340  0.00  0.00    +0.000 N 
ATOM     32  H   UNL     1      10.244  13.150  15.744  0.00  0.00    +0.000 HD
BRANCH  31  33
ATOM     33  O   UNL     1      12.328  13.159  15.715  0.00  0.00    +0.000 OA
ATOM     34  H   UNL     1      12.205  13.828  15.004  0.00  0.00    +0.000 HD
ENDBRANCH  31  33
ENDBRANCH  28  29
ENDBRANCH  27  28
ENDBRANCH  26  27
ENDBRANCH  25  26
ENDBRANCH  24  25
ENDBRANCH  23  24
ENDBRANCH  22  23
ENDBRANCH  21  22
ENDBRANCH  20  21
ENDBRANCH   3  20
TORSDOF 13
ENDMDL
MODEL 9
REMARK VINA RESULT:      -7.8      3.817      5.592
REMARK  Name = 
REMARK  15 active torsions:
REMARK  status: ('A' for Active; 'I' for Inactive)
REMARK    1  A    between atoms: C_1  and  O_2
REMARK    2  A    between atoms: O_2  and  C_3
REMARK    3  A    between atoms: C_6  and  C_7
REMARK    4  A    between atoms: C_9  and  O_10
REMARK    5  A    between atoms: O_10  and  C_11
REMARK    6  A    between atoms: C_11  and  C_12
REMARK    7  A    between atoms: C_12  and  C_13
REMARK    8  A    between atoms: C_13  and  C_14
REMARK    9  A    between atoms: C_14  and  C_15
REMARK   10  A    between atoms: C_15  and  C_16
REMARK   11  A    between atoms: C_16  and  C_17
REMARK   12  A    between atoms: C_17  and  C_18
REMARK   13  A    between atoms: C_18  and  C_19
REMARK   14  A    between atoms: N_21  and  O_22
REMARK   15  A    between atoms: C_27  and  C_28
REMARK                            x       y       z     vdW  Elec       q    Type
REMARK                         _______ _______ _______ _____ _____    ______ ____
ROOT
ATOM      1  C   UNL     1       2.503   7.015  18.568  0.00  0.00    +0.000 A 
ATOM      2  C   UNL     1       3.521   6.875  17.616  0.00  0.00    +0.000 A 
ATOM      3  C   UNL     1       4.070   5.620  17.286  0.00  0.00    +0.000 A 
ATOM      4  C   UNL     1       3.604   4.436  17.897  0.00  0.00    +0.000 A 
ATOM      5  N   UNL     1       4.106   3.223  17.594  0.00  0.00    +0.000 NA
ATOM      6  C   UNL     1       3.613   2.146  18.213  0.00  0.00    +0.000 A 
ATOM      7  N   UNL     1       2.638   2.152  19.118  0.00  0.00    +0.000 NA
ATOM      8  C   UNL     1       2.128   3.361  19.424  0.00  0.00    +0.000 A 
ATOM      9  C   UNL     1       1.020   3.335  20.439  0.00  0.00    +0.000 C 
ATOM     10  C   UNL     1       2.579   4.559  18.843  0.00  0.00    +0.000 A 
ATOM     11  C   UNL     1       2.051   5.836  19.171  0.00  0.00    +0.000 A 
ENDROOT
BRANCH   1  15
ATOM     12  C   UNL     1       0.858  10.767  19.689  0.00  0.00    +0.000 A 
ATOM     13  C   UNL     1       1.278  10.611  18.383  0.00  0.00    +0.000 A 
ATOM     14  C   UNL     1       1.828   9.385  18.004  0.00  0.00    +0.000 A 
ATOM     15  C   UNL     1       1.941   8.333  18.929  0.00  0.00    +0.000 A 
ATOM     16  C   UNL     1       1.473   8.614  20.215  0.00  0.00    +0.000 A 
ATOM     17  N   UNL     1       0.943   9.794  20.616  0.00  0.00    +0.000 NA
BRANCH  12  19
ATOM     18  C   UNL     1       1.182  12.702  20.947  0.00  0.00    +0.000 C 
ATOM     19  O   UNL     1       0.342  11.999  20.035  0.00  0.00    +0.000 OA
ENDBRANCH  12  19
ENDBRANCH   1  15
BRANCH   3  20
ATOM     20  O   UNL     1       5.063   5.732  16.333  0.00  0.00    +0.000 OA
BRANCH  20  21
ATOM     21  C   UNL     1       6.323   5.125  16.614  0.00  0.00    +0.000 C 
BRANCH  21  22
ATOM     22  C   UNL     1       7.375   6.202  16.859  0.00  0.00    +0.000 C 
BRANCH  22  23
ATOM     23  C   UNL     1       7.329   6.722  18.294  0.00  0.00    +0.000 C 
BRANCH  23  24
ATOM     24  C   UNL     1       8.453   7.722  18.544  0.00  0.00    +0.000 C 
BRANCH  24  25
ATOM     25  C   UNL     1       8.089   9.094  17.988  0.00  0.00    +0.000 C 
BRANCH  25  26
ATOM     26  C   UNL     1       8.842  10.202  18.719  0.00  0.00    +0.000 C 
BRANCH  26  27
ATOM     27  C   UNL     1       9.883  10.837  17.803  0.00  0.00    +0.000 C 
BRANCH  27  28
ATOM     28  C   UNL     1      10.890  11.667  18.590  0.00  0.00    +0.000 C 
BRANCH  28  29
ATOM     29  C   UNL     1      11.153  12.999  17.922  0.00  0.00    +0.000 C 
ATOM     30  O   UNL     1      11.487  14.023  18.512  0.00  0.00    +0.000 OA
ATOM     31  N   UNL     1      10.980  12.973  16.562  0.00  0.00    +0.000 N 
ATOM     32  H   UNL     1      10.786  12.148  16.007  0.00  0.00    +0.000 HD
BRANCH  31  33
ATOM     33  O   UNL     1      11.244  14.177  15.874  0.00  0.00    +0.000 OA
ATOM     34  H   UNL     1      10.712  14.827  16.386  0.00  0.00    +0.000 HD
ENDBRANCH  31  33
ENDBRANCH  28  29
ENDBRANCH  27  28
ENDBRANCH  26  27
ENDBRANCH  25  26
ENDBRANCH  24  25
ENDBRANCH  23  24
ENDBRANCH  22  23
ENDBRANCH  21  22
ENDBRANCH  20  21
ENDBRANCH   3  20
TORSDOF 13
ENDMDL
