MODEL 1
REMARK VINA RESULT:     -10.3      0.000      0.000
REMARK  Name = 
REMARK  4 active torsions:
REMARK  status: ('A' for Active; 'I' for Inactive)
REMARK    1  A    between atoms: C_4  and  O_5
REMARK    2  A    between atoms: O_5  and  C_6
REMARK    3  A    between atoms: C_10  and  C_11
REMARK    4  A    between atoms: C_17  and  C_18
REMARK                            x       y       z     vdW  Elec       q    Type
REMARK                         _______ _______ _______ _____ _____    ______ ____
ROOT
ATOM      1  C   UNL     1       2.125   6.733  19.835  0.00  0.00    +0.000 A 
ATOM      2  C   UNL     1       1.522   5.825  20.811  0.00  0.00    +0.000 A 
ATOM      3  C   UNL     1       1.949   4.555  20.962  0.00  0.00    +0.000 A 
ATOM      4  C   UNL     1       3.008   4.078  20.155  0.00  0.00    +0.000 A 
ATOM      5  N   UNL     1       3.601   2.909  20.101  0.00  0.00    +0.000 NA
ATOM      6  N   UNL     1       4.541   2.967  19.107  0.00  0.00    +0.000 NA
ATOM      7  C   UNL     1       4.527   4.174  18.562  0.00  0.00    +0.000 A 
ATOM      8  N   UNL     1       3.563   4.941  19.212  0.00  0.00    +0.000 N 
ATOM      9  C   UNL     1       3.123   6.261  19.052  0.00  0.00    +0.000 A 
ENDROOT
BRANCH   7  10
ATOM     10  C   UNL     1       5.299   4.528  17.369  0.00  0.00    +0.000 A 
ATOM     11  C   UNL     1       6.338   5.455  17.509  0.00  0.00    +0.000 A 
ATOM     12  C   UNL     1       7.174   5.756  16.433  0.00  0.00    +0.000 A 
ATOM     13  C   UNL     1       6.986   5.162  15.197  0.00  0.00    +0.000 A 
ATOM     14  N   UNL     1       7.866   5.405  14.208  0.00  0.00    +0.000 NA
ATOM     15  C   UNL     1       7.618   4.805  13.026  0.00  0.00    +0.000 A 
ATOM     16  C   UNL     1       6.505   4.017  12.824  0.00  0.00    +0.000 A 
ATOM     17  N   UNL     1       5.620   3.745  13.810  0.00  0.00    +0.000 NA
ATOM     18  C   UNL     1       5.873   4.301  15.012  0.00  0.00    +0.000 A 
ATOM     19  C   UNL     1       5.048   4.005  16.097  0.00  0.00    +0.000 A 
ENDBRANCH   7  10
BRANCH   1  24
ATOM     20  C   UNL     1       0.883  10.142  20.847  0.00  0.00    +0.000 A 
ATOM     21  C   UNL     1       0.903  10.824  19.632  0.00  0.00    +0.000 A 
ATOM     22  C   UNL     1       1.323  10.171  18.474  0.00  0.00    +0.000 A 
ATOM     23  C   UNL     1       1.742   8.838  18.530  0.00  0.00    +0.000 A 
ATOM     24  C   UNL     1       1.705   8.142  19.741  0.00  0.00    +0.000 A 
ATOM     25  C   UNL     1       1.227   8.785  20.888  0.00  0.00    +0.000 A 
BRANCH  20  26
ATOM     26  O   UNL     1       0.507  10.858  21.964  0.00  0.00    +0.000 OA
BRANCH  26  30
ATOM     27  C   UNL     1      -3.264  12.626  22.181  0.00  0.00    +0.000 A 
ATOM     28  C   UNL     1      -2.583  12.642  20.966  0.00  0.00    +0.000 A 
ATOM     29  C   UNL     1      -1.348  12.009  20.855  0.00  0.00    +0.000 A 
ATOM     30  C   UNL     1      -0.755  11.419  21.979  0.00  0.00    +0.000 A 
ATOM     31  C   UNL     1      -1.460  11.360  23.180  0.00  0.00    +0.000 A 
ATOM     32  C   UNL     1      -2.714  11.968  23.282  0.00  0.00    +0.000 A 
ENDBRANCH  26  30
ENDBRANCH  20  26
ENDBRANCH   1  24
TORSDOF 4
ENDMDL
MODEL 2
REMARK VINA RESULT:     -10.1      1.705      2.371
REMARK  Name = 
REMARK  4 active torsions:
REMARK  status: ('A' for Active; 'I' for Inactive)
REMARK    1  A    between atoms: C_4  and  O_5
REMARK    2  A    between atoms: O_5  and  C_6
REMARK    3  A    between atoms: C_10  and  C_11
REMARK    4  A    between atoms: C_17  and  C_18
REMARK                            x       y       z     vdW  Elec       q    Type
REMARK                         _______ _______ _______ _____ _____    ______ ____
ROOT
ATOM      1  C   UNL     1       1.934   6.127  20.166  0.00  0.00    +0.000 A 
ATOM      2  C   UNL     1       1.239   5.095  20.938  0.00  0.00    +0.000 A 
ATOM      3  C   UNL     1       1.583   3.794  20.860  0.00  0.00    +0.000 A 
ATOM      4  C   UNL     1       2.643   3.405  20.008  0.00  0.00    +0.000 A 
ATOM      5  N   UNL     1       3.167   2.230  19.753  0.00  0.00    +0.000 NA
ATOM      6  N   UNL     1       4.148   2.408  18.815  0.00  0.00    +0.000 NA
ATOM      7  C   UNL     1       4.228   3.693  18.505  0.00  0.00    +0.000 A 
ATOM      8  N   UNL     1       3.287   4.388  19.260  0.00  0.00    +0.000 N 
ATOM      9  C   UNL     1       2.933   5.741  19.338  0.00  0.00    +0.000 A 
ENDROOT
BRANCH   7  10
ATOM     10  C   UNL     1       5.068   4.209  17.423  0.00  0.00    +0.000 A 
ATOM     11  C   UNL     1       6.037   5.167  17.741  0.00  0.00    +0.000 A 
ATOM     12  C   UNL     1       6.935   5.621  16.773  0.00  0.00    +0.000 A 
ATOM     13  C   UNL     1       6.876   5.153  15.472  0.00  0.00    +0.000 A 
ATOM     14  N   UNL     1       7.814   5.544  14.589  0.00  0.00    +0.000 NA
ATOM     15  C   UNL     1       7.693   5.061  13.335  0.00  0.00    +0.000 A 
ATOM     16  C   UNL     1       6.646   4.244  12.963  0.00  0.00    +0.000 A 
ATOM     17  N   UNL     1       5.705   3.826  13.840  0.00  0.00    +0.000 NA
ATOM     18  C   UNL     1       5.833   4.262  15.110  0.00  0.00    +0.000 A 
ATOM     19  C   UNL     1       4.946   3.813  16.087  0.00  0.00    +0.000 A 
ENDBRANCH   7  10
BRANCH   1  24
ATOM     20  C   UNL     1       0.920   9.652  19.313  0.00  0.00    +0.000 A 
ATOM     21  C   UNL     1       0.954  10.268  20.562  0.00  0.00    +0.000 A 
ATOM     22  C   UNL     1       1.310   9.532  21.692  0.00  0.00    +0.000 A 
ATOM     23  C   UNL     1       1.616   8.171  21.579  0.00  0.00    +0.000 A 
ATOM     24  C   UNL     1       1.604   7.552  20.326  0.00  0.00    +0.000 A 
ATOM     25  C   UNL     1       1.303   8.311  19.189  0.00  0.00    +0.000 A 
BRANCH  20  26
ATOM     26  O   UNL     1       0.510  10.421  18.244  0.00  0.00    +0.000 OA
BRANCH  26  30
ATOM     27  C   UNL     1      -3.607  10.844  17.738  0.00  0.00    +0.000 A 
ATOM     28  C   UNL     1      -2.928  11.769  18.528  0.00  0.00    +0.000 A 
ATOM     29  C   UNL     1      -1.546  11.681  18.665  0.00  0.00    +0.000 A 
ATOM     30  C   UNL     1      -0.844  10.623  18.072  0.00  0.00    +0.000 A 
ATOM     31  C   UNL     1      -1.518   9.729  17.241  0.00  0.00    +0.000 A 
ATOM     32  C   UNL     1      -2.901   9.837  17.077  0.00  0.00    +0.000 A 
ENDBRANCH  26  30
ENDBRANCH  20  26
ENDBRANCH   1  24
TORSDOF 4
ENDMDL
MODEL 3
REMARK VINA RESULT:      -9.8      5.272      9.983
REMARK  Name = 
REMARK  4 active torsions:
REMARK  status: ('A' for Active; 'I' for Inactive)
REMARK    1  A    between atoms: C_4  and  O_5
REMARK    2  A    between atoms: O_5  and  C_6
REMARK    3  A    between atoms: C_10  and  C_11
REMARK    4  A    between atoms: C_17  and  C_18
REMARK                            x       y       z     vdW  Elec       q    Type
REMARK                         _______ _______ _______ _____ _____    ______ ____
ROOT
ATOM      1  C   UNL     1       0.582   9.838  20.958  0.00  0.00    +0.000 A 
ATOM      2  C   UNL     1      -0.033   9.261  22.154  0.00  0.00    +0.000 A 
ATOM      3  C   UNL     1      -0.732  10.012  23.029  0.00  0.00    +0.000 A 
ATOM      4  C   UNL     1      -0.878  11.399  22.793  0.00  0.00    +0.000 A 
ATOM      5  N   UNL     1      -1.495  12.336  23.473  0.00  0.00    +0.000 NA
ATOM      6  N   UNL     1      -1.289  13.522  22.823  0.00  0.00    +0.000 NA
ATOM      7  C   UNL     1      -0.555  13.307  21.742  0.00  0.00    +0.000 A 
ATOM      8  N   UNL     1      -0.272  11.946  21.664  0.00  0.00    +0.000 N 
ATOM      9  C   UNL     1       0.455  11.170  20.752  0.00  0.00    +0.000 A 
ENDROOT
BRANCH   7  10
ATOM     10  C   UNL     1      -0.022  14.383  20.903  0.00  0.00    +0.000 A 
ATOM     11  C   UNL     1       1.366  14.556  20.857  0.00  0.00    +0.000 A 
ATOM     12  C   UNL     1       1.940  15.495  20.000  0.00  0.00    +0.000 A 
ATOM     13  C   UNL     1       1.151  16.294  19.190  0.00  0.00    +0.000 A 
ATOM     14  N   UNL     1       1.741  17.124  18.309  0.00  0.00    +0.000 NA
ATOM     15  C   UNL     1       0.917  17.883  17.558  0.00  0.00    +0.000 A 
ATOM     16  C   UNL     1      -0.454  17.844  17.707  0.00  0.00    +0.000 A 
ATOM     17  N   UNL     1      -1.065  17.003  18.573  0.00  0.00    +0.000 NA
ATOM     18  C   UNL     1      -0.260  16.204  19.302  0.00  0.00    +0.000 A 
ATOM     19  C   UNL     1      -0.820  15.258  20.160  0.00  0.00    +0.000 A 
ENDBRANCH   7  10
BRANCH   1  24
ATOM     20  C   UNL     1       2.524   6.970  19.478  0.00  0.00    +0.000 A 
ATOM     21  C   UNL     1       2.585   7.331  18.134  0.00  0.00    +0.000 A 
ATOM     22  C   UNL     1       1.991   8.517  17.704  0.00  0.00    +0.000 A 
ATOM     23  C   UNL     1       1.317   9.338  18.615  0.00  0.00    +0.000 A 
ATOM     24  C   UNL     1       1.270   8.992  19.968  0.00  0.00    +0.000 A 
ATOM     25  C   UNL     1       1.919   7.831  20.403  0.00  0.00    +0.000 A 
BRANCH  20  26
ATOM     26  O   UNL     1       3.087   5.761  19.831  0.00  0.00    +0.000 OA
BRANCH  26  30
ATOM     27  C   UNL     1       0.897   2.361  18.817  0.00  0.00    +0.000 A 
ATOM     28  C   UNL     1       1.962   2.741  18.004  0.00  0.00    +0.000 A 
ATOM     29  C   UNL     1       2.742   3.839  18.354  0.00  0.00    +0.000 A 
ATOM     30  C   UNL     1       2.416   4.607  19.479  0.00  0.00    +0.000 A 
ATOM     31  C   UNL     1       1.382   4.196  20.318  0.00  0.00    +0.000 A 
ATOM     32  C   UNL     1       0.619   3.074  19.985  0.00  0.00    +0.000 A 
ENDBRANCH  26  30
ENDBRANCH  20  26
ENDBRANCH   1  24
TORSDOF 4
ENDMDL
MODEL 4
REMARK VINA RESULT:      -9.7      3.690      6.310
REMARK  Name = 
REMARK  4 active torsions:
REMARK  status: ('A' for Active; 'I' for Inactive)
REMARK    1  A    between atoms: C_4  and  O_5
REMARK    2  A    between atoms: O_5  and  C_6
REMARK    3  A    between atoms: C_10  and  C_11
REMARK    4  A    between atoms: C_17  and  C_18
REMARK                            x       y       z     vdW  Elec       q    Type
REMARK                         _______ _______ _______ _____ _____    ______ ____
ROOT
ATOM      1  C   UNL     1      -1.372  10.494  19.203  0.00  0.00    +0.000 A 
ATOM      2  C   UNL     1      -1.440  11.498  20.266  0.00  0.00    +0.000 A 
ATOM      3  C   UNL     1      -0.627  11.454  21.341  0.00  0.00    +0.000 A 
ATOM      4  C   UNL     1       0.320  10.410  21.454  0.00  0.00    +0.000 A 
ATOM      5  N   UNL     1       1.211  10.141  22.378  0.00  0.00    +0.000 NA
ATOM      6  N   UNL     1       1.845   8.983  22.017  0.00  0.00    +0.000 NA
ATOM      7  C   UNL     1       1.347   8.551  20.869  0.00  0.00    +0.000 A 
ATOM      8  N   UNL     1       0.366   9.446  20.449  0.00  0.00    +0.000 N 
ATOM      9  C   UNL     1      -0.476   9.487  19.331  0.00  0.00    +0.000 A 
ENDROOT
BRANCH   7  10
ATOM     10  C   UNL     1       1.693   7.257  20.277  0.00  0.00    +0.000 A 
ATOM     11  C   UNL     1       2.401   7.253  19.070  0.00  0.00    +0.000 A 
ATOM     12  C   UNL     1       2.848   6.056  18.510  0.00  0.00    +0.000 A 
ATOM     13  C   UNL     1       2.585   4.842  19.121  0.00  0.00    +0.000 A 
ATOM     14  N   UNL     1       3.109   3.716  18.602  0.00  0.00    +0.000 NA
ATOM     15  C   UNL     1       2.805   2.566  19.238  0.00  0.00    +0.000 A 
ATOM     16  C   UNL     1       1.971   2.535  20.336  0.00  0.00    +0.000 A 
ATOM     17  N   UNL     1       1.450   3.657  20.883  0.00  0.00    +0.000 NA
ATOM     18  C   UNL     1       1.778   4.822  20.288  0.00  0.00    +0.000 A 
ATOM     19  C   UNL     1       1.342   6.026  20.840  0.00  0.00    +0.000 A 
ENDBRANCH   7  10
BRANCH   1  24
ATOM     20  C   UNL     1      -4.206  11.471  16.923  0.00  0.00    +0.000 A 
ATOM     21  C   UNL     1      -3.836  10.855  15.729  0.00  0.00    +0.000 A 
ATOM     22  C   UNL     1      -2.656  10.116  15.664  0.00  0.00    +0.000 A 
ATOM     23  C   UNL     1      -1.831  10.004  16.789  0.00  0.00    +0.000 A 
ATOM     24  C   UNL     1      -2.207  10.602  17.995  0.00  0.00    +0.000 A 
ATOM     25  C   UNL     1      -3.421  11.293  18.069  0.00  0.00    +0.000 A 
BRANCH  20  26
ATOM     26  O   UNL     1      -5.357  12.230  16.909  0.00  0.00    +0.000 OA
BRANCH  26  30
ATOM     27  C   UNL     1      -7.528  12.273  20.469  0.00  0.00    +0.000 A 
ATOM     28  C   UNL     1      -7.022  13.473  19.976  0.00  0.00    +0.000 A 
ATOM     29  C   UNL     1      -6.344  13.492  18.761  0.00  0.00    +0.000 A 
ATOM     30  C   UNL     1      -6.103  12.298  18.068  0.00  0.00    +0.000 A 
ATOM     31  C   UNL     1      -6.653  11.107  18.538  0.00  0.00    +0.000 A 
ATOM     32  C   UNL     1      -7.363  11.093  19.741  0.00  0.00    +0.000 A 
ENDBRANCH  26  30
ENDBRANCH  20  26
ENDBRANCH   1  24
TORSDOF 4
ENDMDL
MODEL 5
REMARK VINA RESULT:      -9.6      1.845      2.577
REMARK  Name = 
REMARK  4 active torsions:
REMARK  status: ('A' for Active; 'I' for Inactive)
REMARK    1  A    between atoms: C_4  and  O_5
REMARK    2  A    between atoms: O_5  and  C_6
REMARK    3  A    between atoms: C_10  and  C_11
REMARK    4  A    between atoms: C_17  and  C_18
REMARK                            x       y       z     vdW  Elec       q    Type
REMARK                         _______ _______ _______ _____ _____    ______ ____
ROOT
ATOM      1  C   UNL     1       2.025   6.114  20.103  0.00  0.00    +0.000 A 
ATOM      2  C   UNL     1       1.353   5.082  20.895  0.00  0.00    +0.000 A 
ATOM      3  C   UNL     1       1.717   3.786  20.832  0.00  0.00    +0.000 A 
ATOM      4  C   UNL     1       2.776   3.402  19.977  0.00  0.00    +0.000 A 
ATOM      5  N   UNL     1       3.316   2.232  19.733  0.00  0.00    +0.000 NA
ATOM      6  N   UNL     1       4.285   2.412  18.784  0.00  0.00    +0.000 NA
ATOM      7  C   UNL     1       4.342   3.694  18.456  0.00  0.00    +0.000 A 
ATOM      8  N   UNL     1       3.397   4.385  19.209  0.00  0.00    +0.000 N 
ATOM      9  C   UNL     1       3.022   5.733  19.271  0.00  0.00    +0.000 A 
ENDROOT
BRANCH   7  10
ATOM     10  C   UNL     1       5.164   4.208  17.358  0.00  0.00    +0.000 A 
ATOM     11  C   UNL     1       6.142   5.163  17.659  0.00  0.00    +0.000 A 
ATOM     12  C   UNL     1       7.023   5.615  16.676  0.00  0.00    +0.000 A 
ATOM     13  C   UNL     1       6.940   5.148  15.376  0.00  0.00    +0.000 A 
ATOM     14  N   UNL     1       7.863   5.536  14.476  0.00  0.00    +0.000 NA
ATOM     15  C   UNL     1       7.718   5.054  13.225  0.00  0.00    +0.000 A 
ATOM     16  C   UNL     1       6.662   4.241  12.871  0.00  0.00    +0.000 A 
ATOM     17  N   UNL     1       5.735   3.825  13.764  0.00  0.00    +0.000 NA
ATOM     18  C   UNL     1       5.888   4.260  15.032  0.00  0.00    +0.000 A 
ATOM     19  C   UNL     1       5.017   3.813  16.025  0.00  0.00    +0.000 A 
ENDBRANCH   7  10
BRANCH   1  24
ATOM     20  C   UNL     1       1.441   9.731  19.230  0.00  0.00    +0.000 A 
ATOM     21  C   UNL     1       1.009  10.252  20.448  0.00  0.00    +0.000 A 
ATOM     22  C   UNL     1       0.906   9.421  21.563  0.00  0.00    +0.000 A 
ATOM     23  C   UNL     1       1.219   8.061  21.459  0.00  0.00    +0.000 A 
ATOM     24  C   UNL     1       1.673   7.537  20.246  0.00  0.00    +0.000 A 
ATOM     25  C   UNL     1       1.830   8.388  19.146  0.00  0.00    +0.000 A 
BRANCH  20  26
ATOM     26  O   UNL     1       1.472  10.592  18.153  0.00  0.00    +0.000 OA
BRANCH  26  30
ATOM     27  C   UNL     1       1.084  14.700  18.756  0.00  0.00    +0.000 A 
ATOM     28  C   UNL     1      -0.061  13.908  18.768  0.00  0.00    +0.000 A 
ATOM     29  C   UNL     1       0.049  12.528  18.626  0.00  0.00    +0.000 A 
ATOM     30  C   UNL     1       1.300  11.940  18.397  0.00  0.00    +0.000 A 
ATOM     31  C   UNL     1       2.449  12.728  18.436  0.00  0.00    +0.000 A 
ATOM     32  C   UNL     1       2.341  14.110  18.612  0.00  0.00    +0.000 A 
ENDBRANCH  26  30
ENDBRANCH  20  26
ENDBRANCH   1  24
TORSDOF 4
ENDMDL
MODEL 6
REMARK VINA RESULT:      -9.5      5.154      9.795
REMARK  Name = 
REMARK  4 active torsions:
REMARK  status: ('A' for Active; 'I' for Inactive)
REMARK    1  A    between atoms: C_4  and  O_5
REMARK    2  A    between atoms: O_5  and  C_6
REMARK    3  A    between atoms: C_10  and  C_11
REMARK    4  A    between atoms: C_17  and  C_18
REMARK                            x       y       z     vdW  Elec       q    Type
REMARK                         _______ _______ _______ _____ _____    ______ ____
ROOT
ATOM      1  C   UNL     1       0.690   9.720  20.951  0.00  0.00    +0.000 A 
ATOM      2  C   UNL     1       0.178   9.249  22.239  0.00  0.00    +0.000 A 
ATOM      3  C   UNL     1      -0.512  10.057  23.069  0.00  0.00    +0.000 A 
ATOM      4  C   UNL     1      -0.749  11.400  22.695  0.00  0.00    +0.000 A 
ATOM      5  N   UNL     1      -1.378  12.375  23.306  0.00  0.00    +0.000 NA
ATOM      6  N   UNL     1      -1.277  13.491  22.520  0.00  0.00    +0.000 NA
ATOM      7  C   UNL     1      -0.594  13.194  21.425  0.00  0.00    +0.000 A 
ATOM      8  N   UNL     1      -0.240  11.848  21.478  0.00  0.00    +0.000 N 
ATOM      9  C   UNL     1       0.476  11.013  20.611  0.00  0.00    +0.000 A 
ENDROOT
BRANCH   7  10
ATOM     10  C   UNL     1      -0.171  14.195  20.444  0.00  0.00    +0.000 A 
ATOM     11  C   UNL     1      -1.100  15.166  20.051  0.00  0.00    +0.000 A 
ATOM     12  C   UNL     1      -0.726  16.205  19.199  0.00  0.00    +0.000 A 
ATOM     13  C   UNL     1       0.563  16.291  18.703  0.00  0.00    +0.000 A 
ATOM     14  N   UNL     1       0.913  17.356  17.957  0.00  0.00    +0.000 NA
ATOM     15  C   UNL     1       2.180  17.373  17.496  0.00  0.00    +0.000 A 
ATOM     16  C   UNL     1       3.061  16.340  17.737  0.00  0.00    +0.000 A 
ATOM     17  N   UNL     1       2.735  15.272  18.499  0.00  0.00    +0.000 NA
ATOM     18  C   UNL     1       1.486  15.257  19.007  0.00  0.00    +0.000 A 
ATOM     19  C   UNL     1       1.101  14.226  19.864  0.00  0.00    +0.000 A 
ENDBRANCH   7  10
BRANCH   1  24
ATOM     20  C   UNL     1       2.540   6.710  19.647  0.00  0.00    +0.000 A 
ATOM     21  C   UNL     1       2.658   7.013  18.292  0.00  0.00    +0.000 A 
ATOM     22  C   UNL     1       2.132   8.206  17.798  0.00  0.00    +0.000 A 
ATOM     23  C   UNL     1       1.470   9.092  18.654  0.00  0.00    +0.000 A 
ATOM     24  C   UNL     1       1.367   8.804  20.018  0.00  0.00    +0.000 A 
ATOM     25  C   UNL     1       1.948   7.633  20.517  0.00  0.00    +0.000 A 
BRANCH  20  26
ATOM     26  O   UNL     1       3.035   5.492  20.064  0.00  0.00    +0.000 OA
BRANCH  26  30
ATOM     27  C   UNL     1       1.482   1.944  18.519  0.00  0.00    +0.000 A 
ATOM     28  C   UNL     1       0.660   2.755  19.297  0.00  0.00    +0.000 A 
ATOM     29  C   UNL     1       1.139   3.971  19.776  0.00  0.00    +0.000 A 
ATOM     30  C   UNL     1       2.467   4.348  19.540  0.00  0.00    +0.000 A 
ATOM     31  C   UNL     1       3.272   3.560  18.720  0.00  0.00    +0.000 A 
ATOM     32  C   UNL     1       2.781   2.354  18.211  0.00  0.00    +0.000 A 
ENDBRANCH  26  30
ENDBRANCH  20  26
ENDBRANCH   1  24
TORSDOF 4
ENDMDL
MODEL 7
REMARK VINA RESULT:      -9.5      3.776      6.148
REMARK  Name = 
REMARK  4 active torsions:
REMARK  status: ('A' for Active; 'I' for Inactive)
REMARK    1  A    between atoms: C_4  and  O_5
REMARK    2  A    between atoms: O_5  and  C_6
REMARK    3  A    between atoms: C_10  and  C_11
REMARK    4  A    between atoms: C_17  and  C_18
REMARK                            x       y       z     vdW  Elec       q    Type
REMARK                         _______ _______ _______ _____ _____    ______ ____
ROOT
ATOM      1  C   UNL     1      -1.433  10.512  19.153  0.00  0.00    +0.000 A 
ATOM      2  C   UNL     1      -1.565  11.539  20.187  0.00  0.00    +0.000 A 
ATOM      3  C   UNL     1      -0.775  11.556  21.279  0.00  0.00    +0.000 A 
ATOM      4  C   UNL     1       0.211  10.554  21.440  0.00  0.00    +0.000 A 
ATOM      5  N   UNL     1       1.091  10.345  22.390  0.00  0.00    +0.000 NA
ATOM      6  N   UNL     1       1.778   9.205  22.074  0.00  0.00    +0.000 NA
ATOM      7  C   UNL     1       1.323   8.724  20.927  0.00  0.00    +0.000 A 
ATOM      8  N   UNL     1       0.317   9.567  20.463  0.00  0.00    +0.000 N 
ATOM      9  C   UNL     1      -0.501   9.545  19.326  0.00  0.00    +0.000 A 
ENDROOT
BRANCH   7  10
ATOM     10  C   UNL     1       1.733   7.430  20.377  0.00  0.00    +0.000 A 
ATOM     11  C   UNL     1       1.260   6.270  21.001  0.00  0.00    +0.000 A 
ATOM     12  C   UNL     1       1.531   5.011  20.464  0.00  0.00    +0.000 A 
ATOM     13  C   UNL     1       2.292   4.875  19.316  0.00  0.00    +0.000 A 
ATOM     14  N   UNL     1       2.457   3.654  18.775  0.00  0.00    +0.000 NA
ATOM     15  C   UNL     1       3.218   3.589  17.664  0.00  0.00    +0.000 A 
ATOM     16  C   UNL     1       3.829   4.704  17.129  0.00  0.00    +0.000 A 
ATOM     17  N   UNL     1       3.661   5.942  17.646  0.00  0.00    +0.000 NA
ATOM     18  C   UNL     1       2.867   6.034  18.733  0.00  0.00    +0.000 A 
ATOM     19  C   UNL     1       2.583   7.287  19.276  0.00  0.00    +0.000 A 
ENDBRANCH   7  10
BRANCH   1  24
ATOM     20  C   UNL     1      -4.219  11.371  16.768  0.00  0.00    +0.000 A 
ATOM     21  C   UNL     1      -3.831  10.687  15.618  0.00  0.00    +0.000 A 
ATOM     22  C   UNL     1      -2.653   9.940  15.618  0.00  0.00    +0.000 A 
ATOM     23  C   UNL     1      -1.850   9.888  16.762  0.00  0.00    +0.000 A 
ATOM     24  C   UNL     1      -2.245  10.555  17.925  0.00  0.00    +0.000 A 
ATOM     25  C   UNL     1      -3.457  11.255  17.938  0.00  0.00    +0.000 A 
BRANCH  20  26
ATOM     26  O   UNL     1      -5.366  12.133  16.689  0.00  0.00    +0.000 OA
BRANCH  26  30
ATOM     27  C   UNL     1      -7.573  12.427  20.214  0.00  0.00    +0.000 A 
ATOM     28  C   UNL     1      -7.107  13.594  19.614  0.00  0.00    +0.000 A 
ATOM     29  C   UNL     1      -6.417  13.525  18.408  0.00  0.00    +0.000 A 
ATOM     30  C   UNL     1      -6.125  12.281  17.832  0.00  0.00    +0.000 A 
ATOM     31  C   UNL     1      -6.636  11.119  18.408  0.00  0.00    +0.000 A 
ATOM     32  C   UNL     1      -7.357  11.191  19.603  0.00  0.00    +0.000 A 
ENDBRANCH  26  30
ENDBRANCH  20  26
ENDBRANCH   1  24
TORSDOF 4
ENDMDL
MODEL 8
REMARK VINA RESULT:      -9.4      5.100     10.001
REMARK  Name = 
REMARK  4 active torsions:
REMARK  status: ('A' for Active; 'I' for Inactive)
REMARK    1  A    between atoms: C_4  and  O_5
REMARK    2  A    between atoms: O_5  and  C_6
REMARK    3  A    between atoms: C_10  and  C_11
REMARK    4  A    between atoms: C_17  and  C_18
REMARK                            x       y       z     vdW  Elec       q    Type
REMARK                         _______ _______ _______ _____ _____    ______ ____
ROOT
ATOM      1  C   UNL     1       0.797   9.387  20.870  0.00  0.00    +0.000 A 
ATOM      2  C   UNL     1       0.188   8.705  22.013  0.00  0.00    +0.000 A 
ATOM      3  C   UNL     1      -0.571   9.362  22.913  0.00  0.00    +0.000 A 
ATOM      4  C   UNL     1      -0.788  10.751  22.758  0.00  0.00    +0.000 A 
ATOM      5  N   UNL     1      -1.471  11.610  23.475  0.00  0.00    +0.000 NA
ATOM      6  N   UNL     1      -1.316  12.844  22.903  0.00  0.00    +0.000 NA
ATOM      7  C   UNL     1      -0.547  12.735  21.831  0.00  0.00    +0.000 A 
ATOM      8  N   UNL     1      -0.188  11.398  21.679  0.00  0.00    +0.000 N 
ATOM      9  C   UNL     1       0.602  10.720  20.742  0.00  0.00    +0.000 A 
ENDROOT
BRANCH   7  10
ATOM     10  C   UNL     1      -0.055  13.887  21.073  0.00  0.00    +0.000 A 
ATOM     11  C   UNL     1      -0.628  14.147  19.823  0.00  0.00    +0.000 A 
ATOM     12  C   UNL     1      -0.275  15.286  19.099  0.00  0.00    +0.000 A 
ATOM     13  C   UNL     1       0.665  16.177  19.588  0.00  0.00    +0.000 A 
ATOM     14  N   UNL     1       0.914  17.311  18.907  0.00  0.00    +0.000 NA
ATOM     15  C   UNL     1       1.849  18.130  19.431  0.00  0.00    +0.000 A 
ATOM     16  C   UNL     1       2.543  17.810  20.579  0.00  0.00    +0.000 A 
ATOM     17  N   UNL     1       2.294  16.684  21.287  0.00  0.00    +0.000 NA
ATOM     18  C   UNL     1       1.332  15.873  20.803  0.00  0.00    +0.000 A 
ATOM     19  C   UNL     1       0.965  14.733  21.519  0.00  0.00    +0.000 A 
ENDBRANCH   7  10
BRANCH   1  24
ATOM     20  C   UNL     1       2.865   6.686  19.253  0.00  0.00    +0.000 A 
ATOM     21  C   UNL     1       2.996   7.168  17.952  0.00  0.00    +0.000 A 
ATOM     22  C   UNL     1       2.407   8.381  17.597  0.00  0.00    +0.000 A 
ATOM     23  C   UNL     1       1.670   9.109  18.538  0.00  0.00    +0.000 A 
ATOM     24  C   UNL     1       1.553   8.641  19.850  0.00  0.00    +0.000 A 
ATOM     25  C   UNL     1       2.195   7.452  20.215  0.00  0.00    +0.000 A 
BRANCH  20  26
ATOM     26  O   UNL     1       3.426   5.456  19.527  0.00  0.00    +0.000 OA
BRANCH  26  30
ATOM     27  C   UNL     1       1.014   2.149  18.733  0.00  0.00    +0.000 A 
ATOM     28  C   UNL     1       2.138   2.367  17.940  0.00  0.00    +0.000 A 
ATOM     29  C   UNL     1       2.989   3.431  18.222  0.00  0.00    +0.000 A 
ATOM     30  C   UNL     1       2.680   4.328  19.253  0.00  0.00    +0.000 A 
ATOM     31  C   UNL     1       1.583   4.079  20.077  0.00  0.00    +0.000 A 
ATOM     32  C   UNL     1       0.746   2.991  19.814  0.00  0.00    +0.000 A 
ENDBRANCH  26  30
ENDBRANCH  20  26
ENDBRANCH   1  24
TORSDOF 4
ENDMDL
MODEL 9
REMARK VINA RESULT:      -9.3      4.589      9.325
REMARK  Name = 
REMARK  4 active torsions:
REMARK  status: ('A' for Active; 'I' for Inactive)
REMARK    1  A    between atoms: C_4  and  O_5
REMARK    2  A    between atoms: O_5  and  C_6
REMARK    3  A    between atoms: C_10  and  C_11
REMARK    4  A    between atoms: C_17  and  C_18
REMARK                            x       y       z     vdW  Elec       q    Type
REMARK                         _______ _______ _______ _____ _____    ______ ____
ROOT
ATOM      1  C   UNL     1       1.143   8.438  20.898  0.00  0.00    +0.000 A 
ATOM      2  C   UNL     1       0.195   8.209  21.990  0.00  0.00    +0.000 A 
ATOM      3  C   UNL     1      -0.419   9.227  22.625  0.00  0.00    +0.000 A 
ATOM      4  C   UNL     1      -0.144  10.558  22.235  0.00  0.00    +0.000 A 
ATOM      5  N   UNL     1      -0.597  11.706  22.679  0.00  0.00    +0.000 NA
ATOM      6  N   UNL     1       0.031  12.699  21.977  0.00  0.00    +0.000 NA
ATOM      7  C   UNL     1       0.860  12.156  21.098  0.00  0.00    +0.000 A 
ATOM      8  N   UNL     1       0.775  10.771  21.209  0.00  0.00    +0.000 N 
ATOM      9  C   UNL     1       1.416   9.717  20.546  0.00  0.00    +0.000 A 
ENDROOT
BRANCH   7  10
ATOM     10  C   UNL     1       1.801  12.935  20.291  0.00  0.00    +0.000 A 
ATOM     11  C   UNL     1       1.668  12.891  18.898  0.00  0.00    +0.000 A 
ATOM     12  C   UNL     1       2.468  13.690  18.080  0.00  0.00    +0.000 A 
ATOM     13  C   UNL     1       3.426  14.529  18.622  0.00  0.00    +0.000 A 
ATOM     14  N   UNL     1       4.116  15.352  17.811  0.00  0.00    +0.000 NA
ATOM     15  C   UNL     1       5.043  16.135  18.400  0.00  0.00    +0.000 A 
ATOM     16  C   UNL     1       5.301  16.072  19.754  0.00  0.00    +0.000 A 
ATOM     17  N   UNL     1       4.606  15.266  20.588  0.00  0.00    +0.000 NA
ATOM     18  C   UNL     1       3.645  14.506  20.024  0.00  0.00    +0.000 A 
ATOM     19  C   UNL     1       2.835  13.707  20.830  0.00  0.00    +0.000 A 
ENDBRANCH   7  10
BRANCH   1  24
ATOM     20  C   UNL     1       3.058   6.539  18.270  0.00  0.00    +0.000 A 
ATOM     21  C   UNL     1       2.915   5.224  18.708  0.00  0.00    +0.000 A 
ATOM     22  C   UNL     1       2.189   4.952  19.867  0.00  0.00    +0.000 A 
ATOM     23  C   UNL     1       1.619   5.996  20.603  0.00  0.00    +0.000 A 
ATOM     24  C   UNL     1       1.741   7.315  20.158  0.00  0.00    +0.000 A 
ATOM     25  C   UNL     1       2.420   7.576  18.962  0.00  0.00    +0.000 A 
BRANCH  20  26
ATOM     26  O   UNL     1       3.829   6.746  17.145  0.00  0.00    +0.000 OA
BRANCH  26  30
ATOM     27  C   UNL     1       7.383   4.573  16.962  0.00  0.00    +0.000 A 
ATOM     28  C   UNL     1       6.351   4.248  16.086  0.00  0.00    +0.000 A 
ATOM     29  C   UNL     1       5.177   4.996  16.090  0.00  0.00    +0.000 A 
ATOM     30  C   UNL     1       5.001   6.027  17.022  0.00  0.00    +0.000 A 
ATOM     31  C   UNL     1       6.054   6.383  17.863  0.00  0.00    +0.000 A 
ATOM     32  C   UNL     1       7.245   5.652  17.837  0.00  0.00    +0.000 A 
ENDBRANCH  26  30
ENDBRANCH  20  26
ENDBRANCH   1  24
TORSDOF 4
ENDMDL
