MODEL 1
REMARK VINA RESULT:      -7.6      0.000      0.000
REMARK  Name = 
REMARK  12 active torsions:
REMARK  status: ('A' for Active; 'I' for Inactive)
REMARK    1  A    between atoms: C_1  and  C_2
REMARK    2  A    between atoms: C_2  and  C_3
REMARK    3  A    between atoms: C_4  and  C_5
REMARK    4  A    between atoms: C_5  and  C_6
REMARK    5  A    between atoms: C_6  and  C_7
REMARK    6  A    between atoms: C_7  and  C_8
REMARK    7  A    between atoms: C_7  and  C_9
REMARK    8  A    between atoms: C_10  and  C_11
REMARK    9  A    between atoms: C_12  and  C_13
REMARK   10  A    between atoms: C_12  and  C_14
REMARK   11  A    between atoms: C_17  and  C_18
REMARK   12  A    between atoms: C_18  and  O_20
REMARK                            x       y       z     vdW  Elec       q    Type
REMARK                         _______ _______ _______ _____ _____    ______ ____
ROOT
ATOM      1  C   UNL     1       8.554   9.480  17.797  0.00  0.00    +0.000 C 
ATOM      2  C   UNL     1       9.062  10.497  18.524  0.00  0.00    +0.000 C 
ATOM      3  C   UNL     1       9.325  10.452  20.010  0.00  0.00    +0.000 C 
ENDROOT
BRANCH   2   4
ATOM      4  C   UNL     1       9.421  11.825  17.865  0.00  0.00    +0.000 C 
ATOM      5  C   UNL     1       9.064  13.034  18.753  0.00  0.00    +0.000 C 
ATOM      6  C   UNL     1       9.462  14.355  18.096  0.00  0.00    +0.000 C 
ATOM      7  C   UNL     1      10.957  14.365  17.738  0.00  0.00    +0.000 C 
ATOM      8  C   UNL     1      11.294  13.192  16.814  0.00  0.00    +0.000 C 
ATOM      9  C   UNL     1      10.904  11.858  17.445  0.00  0.00    +0.000 C 
BRANCH   7  10
ATOM     10  C   UNL     1      11.363  15.668  17.077  0.00  0.00    +0.000 C 
ATOM     11  O   UNL     1      12.069  16.525  17.596  0.00  0.00    +0.000 OA
BRANCH  10  12
ATOM     12  O   UNL     1      10.840  15.829  15.838  0.00  0.00    +0.000 OA
ATOM     13  H   UNL     1      11.362  15.434  15.115  0.00  0.00    +0.000 HD
ENDBRANCH  10  12
ENDBRANCH   7  10
ENDBRANCH   2   4
BRANCH   1  15
ATOM     14  C   UNL     1       7.550   7.254  17.578  0.00  0.00    +0.000 C 
ATOM     15  C   UNL     1       8.196   8.181  18.299  0.00  0.00    +0.000 C 
BRANCH  14  16
ATOM     16  C   UNL     1       7.266   5.878  18.136  0.00  0.00    +0.000 C 
ATOM     17  C   UNL     1       7.421   4.806  17.043  0.00  0.00    +0.000 C 
BRANCH  16  18
ATOM     18  C   UNL     1       5.867   5.836  18.781  0.00  0.00    +0.000 C 
BRANCH  18  19
ATOM     19  C   UNL     1       5.451   4.405  19.109  0.00  0.00    +0.000 C 
BRANCH  19  23
ATOM     20  C   UNL     1       1.612   3.930  18.672  0.00  0.00    +0.000 C 
ATOM     21  C   UNL     1       3.083   3.971  18.362  0.00  0.00    +0.000 C 
ATOM     22  C   UNL     1       3.504   3.694  16.950  0.00  0.00    +0.000 C 
ATOM     23  C   UNL     1       3.973   4.265  19.329  0.00  0.00    +0.000 C 
ENDBRANCH  19  23
ENDBRANCH  18  19
ENDBRANCH  16  18
ENDBRANCH  14  16
ENDBRANCH   1  15
TORSDOF 8
ENDMDL
MODEL 2
REMARK VINA RESULT:      -7.3      6.648      9.589
REMARK  Name = 
REMARK  12 active torsions:
REMARK  status: ('A' for Active; 'I' for Inactive)
REMARK    1  A    between atoms: C_1  and  C_2
REMARK    2  A    between atoms: C_2  and  C_3
REMARK    3  A    between atoms: C_4  and  C_5
REMARK    4  A    between atoms: C_5  and  C_6
REMARK    5  A    between atoms: C_6  and  C_7
REMARK    6  A    between atoms: C_7  and  C_8
REMARK    7  A    between atoms: C_7  and  C_9
REMARK    8  A    between atoms: C_10  and  C_11
REMARK    9  A    between atoms: C_12  and  C_13
REMARK   10  A    between atoms: C_12  and  C_14
REMARK   11  A    between atoms: C_17  and  C_18
REMARK   12  A    between atoms: C_18  and  O_20
REMARK                            x       y       z     vdW  Elec       q    Type
REMARK                         _______ _______ _______ _____ _____    ______ ____
ROOT
ATOM      1  C   UNL     1       2.318   8.175  18.080  0.00  0.00    +0.000 C 
ATOM      2  C   UNL     1       2.771   7.015  18.599  0.00  0.00    +0.000 C 
ATOM      3  C   UNL     1       2.194   6.326  19.812  0.00  0.00    +0.000 C 
ENDROOT
BRANCH   2   4
ATOM      4  C   UNL     1       3.953   6.286  17.968  0.00  0.00    +0.000 C 
ATOM      5  C   UNL     1       3.561   4.897  17.424  0.00  0.00    +0.000 C 
ATOM      6  C   UNL     1       4.746   4.194  16.763  0.00  0.00    +0.000 C 
ATOM      7  C   UNL     1       5.355   5.064  15.651  0.00  0.00    +0.000 C 
ATOM      8  C   UNL     1       5.789   6.420  16.210  0.00  0.00    +0.000 C 
ATOM      9  C   UNL     1       4.624   7.145  16.878  0.00  0.00    +0.000 C 
BRANCH   7  10
ATOM     10  C   UNL     1       6.537   4.380  14.993  0.00  0.00    +0.000 C 
ATOM     11  O   UNL     1       7.710   4.695  15.161  0.00  0.00    +0.000 OA
BRANCH  10  12
ATOM     12  O   UNL     1       6.181   3.380  14.152  0.00  0.00    +0.000 OA
ATOM     13  H   UNL     1       5.694   2.644  14.568  0.00  0.00    +0.000 HD
ENDBRANCH  10  12
ENDBRANCH   7  10
ENDBRANCH   2   4
BRANCH   1  15
ATOM     14  C   UNL     1       1.303  10.206  19.006  0.00  0.00    +0.000 C 
ATOM     15  C   UNL     1       1.205   8.942  18.572  0.00  0.00    +0.000 C 
BRANCH  14  16
ATOM     16  C   UNL     1       0.085  10.987  19.443  0.00  0.00    +0.000 C 
ATOM     17  C   UNL     1      -0.685  10.226  20.535  0.00  0.00    +0.000 C 
BRANCH  16  18
ATOM     18  C   UNL     1      -0.812  11.309  18.231  0.00  0.00    +0.000 C 
BRANCH  18  19
ATOM     19  C   UNL     1      -1.872  10.232  18.025  0.00  0.00    +0.000 C 
BRANCH  19  23
ATOM     20  C   UNL     1      -3.532  10.070  14.507  0.00  0.00    +0.000 C 
ATOM     21  C   UNL     1      -3.277  10.439  15.943  0.00  0.00    +0.000 C 
ATOM     22  C   UNL     1      -4.293  11.302  16.629  0.00  0.00    +0.000 C 
ATOM     23  C   UNL     1      -2.179   9.986  16.576  0.00  0.00    +0.000 C 
ENDBRANCH  19  23
ENDBRANCH  18  19
ENDBRANCH  16  18
ENDBRANCH  14  16
ENDBRANCH   1  15
TORSDOF 8
ENDMDL
MODEL 3
REMARK VINA RESULT:      -7.3      6.710      9.551
REMARK  Name = 
REMARK  12 active torsions:
REMARK  status: ('A' for Active; 'I' for Inactive)
REMARK    1  A    between atoms: C_1  and  C_2
REMARK    2  A    between atoms: C_2  and  C_3
REMARK    3  A    between atoms: C_4  and  C_5
REMARK    4  A    between atoms: C_5  and  C_6
REMARK    5  A    between atoms: C_6  and  C_7
REMARK    6  A    between atoms: C_7  and  C_8
REMARK    7  A    between atoms: C_7  and  C_9
REMARK    8  A    between atoms: C_10  and  C_11
REMARK    9  A    between atoms: C_12  and  C_13
REMARK   10  A    between atoms: C_12  and  C_14
REMARK   11  A    between atoms: C_17  and  C_18
REMARK   12  A    between atoms: C_18  and  O_20
REMARK                            x       y       z     vdW  Elec       q    Type
REMARK                         _______ _______ _______ _____ _____    ______ ____
ROOT
ATOM      1  C   UNL     1       2.504   8.082  18.277  0.00  0.00    +0.000 C 
ATOM      2  C   UNL     1       2.898   6.854  18.673  0.00  0.00    +0.000 C 
ATOM      3  C   UNL     1       2.276   6.068  19.803  0.00  0.00    +0.000 C 
ENDROOT
BRANCH   2   4
ATOM      4  C   UNL     1       4.052   6.140  17.976  0.00  0.00    +0.000 C 
ATOM      5  C   UNL     1       3.635   4.769  17.407  0.00  0.00    +0.000 C 
ATOM      6  C   UNL     1       4.790   4.083  16.681  0.00  0.00    +0.000 C 
ATOM      7  C   UNL     1       5.359   4.983  15.572  0.00  0.00    +0.000 C 
ATOM      8  C   UNL     1       5.819   6.321  16.152  0.00  0.00    +0.000 C 
ATOM      9  C   UNL     1       4.683   7.029  16.886  0.00  0.00    +0.000 C 
BRANCH   7  10
ATOM     10  C   UNL     1       6.513   4.315  14.849  0.00  0.00    +0.000 C 
ATOM     11  O   UNL     1       6.408   3.655  13.822  0.00  0.00    +0.000 OA
BRANCH  10  12
ATOM     12  O   UNL     1       7.706   4.486  15.467  0.00  0.00    +0.000 OA
ATOM     13  H   UNL     1       7.651   4.770  16.399  0.00  0.00    +0.000 HD
ENDBRANCH  10  12
ENDBRANCH   7  10
ENDBRANCH   2   4
BRANCH   1  15
ATOM     14  C   UNL     1       0.704   9.741  18.152  0.00  0.00    +0.000 C 
ATOM     15  C   UNL     1       1.423   8.844  18.840  0.00  0.00    +0.000 C 
BRANCH  14  16
ATOM     16  C   UNL     1      -0.470  10.459  18.777  0.00  0.00    +0.000 C 
ATOM     17  C   UNL     1      -1.726  10.311  17.903  0.00  0.00    +0.000 C 
BRANCH  16  18
ATOM     18  C   UNL     1      -0.123  11.939  19.032  0.00  0.00    +0.000 C 
BRANCH  18  19
ATOM     19  C   UNL     1      -0.123  12.259  20.524  0.00  0.00    +0.000 C 
BRANCH  19  23
ATOM     20  C   UNL     1      -0.128   9.551  23.320  0.00  0.00    +0.000 C 
ATOM     21  C   UNL     1      -0.535  10.737  22.490  0.00  0.00    +0.000 C 
ATOM     22  C   UNL     1      -1.707  11.545  22.961  0.00  0.00    +0.000 C 
ATOM     23  C   UNL     1       0.153  11.056  21.377  0.00  0.00    +0.000 C 
ENDBRANCH  19  23
ENDBRANCH  18  19
ENDBRANCH  16  18
ENDBRANCH  14  16
ENDBRANCH   1  15
TORSDOF 8
ENDMDL
MODEL 4
REMARK VINA RESULT:      -7.3      7.370      8.688
REMARK  Name = 
REMARK  12 active torsions:
REMARK  status: ('A' for Active; 'I' for Inactive)
REMARK    1  A    between atoms: C_1  and  C_2
REMARK    2  A    between atoms: C_2  and  C_3
REMARK    3  A    between atoms: C_4  and  C_5
REMARK    4  A    between atoms: C_5  and  C_6
REMARK    5  A    between atoms: C_6  and  C_7
REMARK    6  A    between atoms: C_7  and  C_8
REMARK    7  A    between atoms: C_7  and  C_9
REMARK    8  A    between atoms: C_10  and  C_11
REMARK    9  A    between atoms: C_12  and  C_13
REMARK   10  A    between atoms: C_12  and  C_14
REMARK   11  A    between atoms: C_17  and  C_18
REMARK   12  A    between atoms: C_18  and  O_20
REMARK                            x       y       z     vdW  Elec       q    Type
REMARK                         _______ _______ _______ _____ _____    ______ ____
ROOT
ATOM      1  C   UNL     1       1.521   6.533  20.793  0.00  0.00    +0.000 C 
ATOM      2  C   UNL     1       1.865   7.377  19.799  0.00  0.00    +0.000 C 
ATOM      3  C   UNL     1       2.660   6.992  18.574  0.00  0.00    +0.000 C 
ENDROOT
BRANCH   2   4
ATOM      4  C   UNL     1       1.457   8.846  19.844  0.00  0.00    +0.000 C 
ATOM      5  C   UNL     1       1.255   9.441  18.435  0.00  0.00    +0.000 C 
ATOM      6  C   UNL     1       0.812  10.901  18.497  0.00  0.00    +0.000 C 
ATOM      7  C   UNL     1      -0.463  11.057  19.341  0.00  0.00    +0.000 C 
ATOM      8  C   UNL     1      -0.240  10.512  20.754  0.00  0.00    +0.000 C 
ATOM      9  C   UNL     1       0.207   9.052  20.722  0.00  0.00    +0.000 C 
BRANCH   7  10
ATOM     10  C   UNL     1      -0.909  12.504  19.417  0.00  0.00    +0.000 C 
ATOM     11  O   UNL     1      -0.160  13.458  19.594  0.00  0.00    +0.000 OA
BRANCH  10  12
ATOM     12  O   UNL     1      -2.249  12.662  19.302  0.00  0.00    +0.000 OA
ATOM     13  H   UNL     1      -2.654  13.255  19.962  0.00  0.00    +0.000 HD
ENDBRANCH  10  12
ENDBRANCH   7  10
ENDBRANCH   2   4
BRANCH   1  15
ATOM     14  C   UNL     1       1.083   4.175  20.282  0.00  0.00    +0.000 C 
ATOM     15  C   UNL     1       1.830   5.129  20.854  0.00  0.00    +0.000 C 
BRANCH  14  16
ATOM     16  C   UNL     1       1.497   2.722  20.316  0.00  0.00    +0.000 C 
ATOM     17  C   UNL     1       2.758   2.537  21.177  0.00  0.00    +0.000 C 
BRANCH  16  18
ATOM     18  C   UNL     1       1.699   2.185  18.885  0.00  0.00    +0.000 C 
BRANCH  18  19
ATOM     19  C   UNL     1       3.181   2.022  18.559  0.00  0.00    +0.000 C 
BRANCH  19  23
ATOM     20  C   UNL     1       4.832   4.858  16.465  0.00  0.00    +0.000 C 
ATOM     21  C   UNL     1       4.499   3.954  17.620  0.00  0.00    +0.000 C 
ATOM     22  C   UNL     1       5.141   4.251  18.942  0.00  0.00    +0.000 C 
ATOM     23  C   UNL     1       3.638   2.933  17.457  0.00  0.00    +0.000 C 
ENDBRANCH  19  23
ENDBRANCH  18  19
ENDBRANCH  16  18
ENDBRANCH  14  16
ENDBRANCH   1  15
TORSDOF 8
ENDMDL
MODEL 5
REMARK VINA RESULT:      -7.2      6.278      8.875
REMARK  Name = 
REMARK  12 active torsions:
REMARK  status: ('A' for Active; 'I' for Inactive)
REMARK    1  A    between atoms: C_1  and  C_2
REMARK    2  A    between atoms: C_2  and  C_3
REMARK    3  A    between atoms: C_4  and  C_5
REMARK    4  A    between atoms: C_5  and  C_6
REMARK    5  A    between atoms: C_6  and  C_7
REMARK    6  A    between atoms: C_7  and  C_8
REMARK    7  A    between atoms: C_7  and  C_9
REMARK    8  A    between atoms: C_10  and  C_11
REMARK    9  A    between atoms: C_12  and  C_13
REMARK   10  A    between atoms: C_12  and  C_14
REMARK   11  A    between atoms: C_17  and  C_18
REMARK   12  A    between atoms: C_18  and  O_20
REMARK                            x       y       z     vdW  Elec       q    Type
REMARK                         _______ _______ _______ _____ _____    ______ ____
ROOT
ATOM      1  C   UNL     1       2.323   6.330  19.678  0.00  0.00    +0.000 C 
ATOM      2  C   UNL     1       2.325   7.584  19.183  0.00  0.00    +0.000 C 
ATOM      3  C   UNL     1       2.865   7.979  17.829  0.00  0.00    +0.000 C 
ENDROOT
BRANCH   2   4
ATOM      4  C   UNL     1       1.759   8.746  19.994  0.00  0.00    +0.000 C 
ATOM      5  C   UNL     1       0.789   9.617  19.170  0.00  0.00    +0.000 C 
ATOM      6  C   UNL     1       0.203  10.754  20.005  0.00  0.00    +0.000 C 
ATOM      7  C   UNL     1      -0.488  10.213  21.267  0.00  0.00    +0.000 C 
ATOM      8  C   UNL     1       0.495   9.394  22.106  0.00  0.00    +0.000 C 
ATOM      9  C   UNL     1       1.099   8.250  21.295  0.00  0.00    +0.000 C 
BRANCH   7  10
ATOM     10  C   UNL     1      -1.068  11.334  22.109  0.00  0.00    +0.000 C 
ATOM     11  O   UNL     1      -0.964  11.419  23.327  0.00  0.00    +0.000 OA
BRANCH  10  12
ATOM     12  O   UNL     1      -1.759  12.247  21.387  0.00  0.00    +0.000 OA
ATOM     13  H   UNL     1      -2.479  11.882  20.839  0.00  0.00    +0.000 HD
ENDBRANCH  10  12
ENDBRANCH   7  10
ENDBRANCH   2   4
BRANCH   1  15
ATOM     14  C   UNL     1       2.211   4.605  17.939  0.00  0.00    +0.000 C 
ATOM     15  C   UNL     1       2.809   5.155  19.004  0.00  0.00    +0.000 C 
BRANCH  14  16
ATOM     16  C   UNL     1       2.809   3.413  17.227  0.00  0.00    +0.000 C 
ATOM     17  C   UNL     1       2.295   2.100  17.840  0.00  0.00    +0.000 C 
BRANCH  16  18
ATOM     18  C   UNL     1       4.348   3.489  17.249  0.00  0.00    +0.000 C 
BRANCH  18  19
ATOM     19  C   UNL     1       4.881   4.274  16.054  0.00  0.00    +0.000 C 
BRANCH  19  23
ATOM     20  C   UNL     1       7.103   7.145  17.460  0.00  0.00    +0.000 C 
ATOM     21  C   UNL     1       6.651   5.773  17.040  0.00  0.00    +0.000 C 
ATOM     22  C   UNL     1       7.565   4.621  17.331  0.00  0.00    +0.000 C 
ATOM     23  C   UNL     1       5.457   5.605  16.442  0.00  0.00    +0.000 C 
ENDBRANCH  19  23
ENDBRANCH  18  19
ENDBRANCH  16  18
ENDBRANCH  14  16
ENDBRANCH   1  15
TORSDOF 8
ENDMDL
MODEL 6
REMARK VINA RESULT:      -7.2      1.290      1.962
REMARK  Name = 
REMARK  12 active torsions:
REMARK  status: ('A' for Active; 'I' for Inactive)
REMARK    1  A    between atoms: C_1  and  C_2
REMARK    2  A    between atoms: C_2  and  C_3
REMARK    3  A    between atoms: C_4  and  C_5
REMARK    4  A    between atoms: C_5  and  C_6
REMARK    5  A    between atoms: C_6  and  C_7
REMARK    6  A    between atoms: C_7  and  C_8
REMARK    7  A    between atoms: C_7  and  C_9
REMARK    8  A    between atoms: C_10  and  C_11
REMARK    9  A    between atoms: C_12  and  C_13
REMARK   10  A    between atoms: C_12  and  C_14
REMARK   11  A    between atoms: C_17  and  C_18
REMARK   12  A    between atoms: C_18  and  O_20
REMARK                            x       y       z     vdW  Elec       q    Type
REMARK                         _______ _______ _______ _____ _____    ______ ____
ROOT
ATOM      1  C   UNL     1       9.157  10.023  18.333  0.00  0.00    +0.000 C 
ATOM      2  C   UNL     1       9.493  10.892  19.308  0.00  0.00    +0.000 C 
ATOM      3  C   UNL     1       9.237  10.681  20.781  0.00  0.00    +0.000 C 
ENDROOT
BRANCH   2   4
ATOM      4  C   UNL     1      10.185  12.210  18.976  0.00  0.00    +0.000 C 
ATOM      5  C   UNL     1      10.845  12.190  17.583  0.00  0.00    +0.000 C 
ATOM      6  C   UNL     1      11.503  13.528  17.250  0.00  0.00    +0.000 C 
ATOM      7  C   UNL     1      10.493  14.682  17.357  0.00  0.00    +0.000 C 
ATOM      8  C   UNL     1       9.881  14.729  18.759  0.00  0.00    +0.000 C 
ATOM      9  C   UNL     1       9.218  13.402  19.120  0.00  0.00    +0.000 C 
BRANCH   7  10
ATOM     10  C   UNL     1      11.137  16.018  17.037  0.00  0.00    +0.000 C 
ATOM     11  O   UNL     1      12.333  16.186  16.830  0.00  0.00    +0.000 OA
BRANCH  10  12
ATOM     12  O   UNL     1      10.260  17.050  17.029  0.00  0.00    +0.000 OA
ATOM     13  H   UNL     1      10.486  17.789  17.623  0.00  0.00    +0.000 HD
ENDBRANCH  10  12
ENDBRANCH   7  10
ENDBRANCH   2   4
BRANCH   1  15
ATOM     14  C   UNL     1       7.698   8.183  17.627  0.00  0.00    +0.000 C 
ATOM     15  C   UNL     1       8.521   8.747  18.522  0.00  0.00    +0.000 C 
BRANCH  14  16
ATOM     16  C   UNL     1       7.117   6.806  17.848  0.00  0.00    +0.000 C 
ATOM     17  C   UNL     1       7.907   6.050  18.929  0.00  0.00    +0.000 C 
BRANCH  16  18
ATOM     18  C   UNL     1       7.070   6.021  16.522  0.00  0.00    +0.000 C 
BRANCH  18  19
ATOM     19  C   UNL     1       5.640   5.635  16.157  0.00  0.00    +0.000 C 
BRANCH  19  23
ATOM     20  C   UNL     1       2.562   6.653  18.313  0.00  0.00    +0.000 C 
ATOM     21  C   UNL     1       3.584   5.806  17.605  0.00  0.00    +0.000 C 
ATOM     22  C   UNL     1       3.396   4.319  17.637  0.00  0.00    +0.000 C 
ATOM     23  C   UNL     1       4.613   6.383  16.957  0.00  0.00    +0.000 C 
ENDBRANCH  19  23
ENDBRANCH  18  19
ENDBRANCH  16  18
ENDBRANCH  14  16
ENDBRANCH   1  15
TORSDOF 8
ENDMDL
MODEL 7
REMARK VINA RESULT:      -7.2      4.924     10.546
REMARK  Name = 
REMARK  12 active torsions:
REMARK  status: ('A' for Active; 'I' for Inactive)
REMARK    1  A    between atoms: C_1  and  C_2
REMARK    2  A    between atoms: C_2  and  C_3
REMARK    3  A    between atoms: C_4  and  C_5
REMARK    4  A    between atoms: C_5  and  C_6
REMARK    5  A    between atoms: C_6  and  C_7
REMARK    6  A    between atoms: C_7  and  C_8
REMARK    7  A    between atoms: C_7  and  C_9
REMARK    8  A    between atoms: C_10  and  C_11
REMARK    9  A    between atoms: C_12  and  C_13
REMARK   10  A    between atoms: C_12  and  C_14
REMARK   11  A    between atoms: C_17  and  C_18
REMARK   12  A    between atoms: C_18  and  O_20
REMARK                            x       y       z     vdW  Elec       q    Type
REMARK                         _______ _______ _______ _____ _____    ______ ____
ROOT
ATOM      1  C   UNL     1       7.208   7.688  17.701  0.00  0.00    +0.000 C 
ATOM      2  C   UNL     1       6.998   6.458  18.213  0.00  0.00    +0.000 C 
ATOM      3  C   UNL     1       7.957   5.721  19.117  0.00  0.00    +0.000 C 
ENDROOT
BRANCH   2   4
ATOM      4  C   UNL     1       5.718   5.690  17.900  0.00  0.00    +0.000 C 
ATOM      5  C   UNL     1       5.576   4.415  18.757  0.00  0.00    +0.000 C 
ATOM      6  C   UNL     1       4.273   3.676  18.458  0.00  0.00    +0.000 C 
ATOM      7  C   UNL     1       3.058   4.598  18.650  0.00  0.00    +0.000 C 
ATOM      8  C   UNL     1       3.180   5.835  17.758  0.00  0.00    +0.000 C 
ATOM      9  C   UNL     1       4.476   6.593  18.033  0.00  0.00    +0.000 C 
BRANCH   7  10
ATOM     10  C   UNL     1       1.758   3.877  18.348  0.00  0.00    +0.000 C 
ATOM     11  O   UNL     1       0.933   3.542  19.189  0.00  0.00    +0.000 OA
BRANCH  10  12
ATOM     12  O   UNL     1       1.592   3.595  17.034  0.00  0.00    +0.000 OA
ATOM     13  H   UNL     1       0.681   3.361  16.774  0.00  0.00    +0.000 HD
ENDBRANCH  10  12
ENDBRANCH   7  10
ENDBRANCH   2   4
BRANCH   1  15
ATOM     14  C   UNL     1       8.295   9.814  18.258  0.00  0.00    +0.000 C 
ATOM     15  C   UNL     1       8.361   8.515  17.937  0.00  0.00    +0.000 C 
BRANCH  14  16
ATOM     16  C   UNL     1       9.539  10.615  18.568  0.00  0.00    +0.000 C 
ATOM     17  C   UNL     1       9.613  10.945  20.068  0.00  0.00    +0.000 C 
BRANCH  16  18
ATOM     18  C   UNL     1       9.590  11.888  17.700  0.00  0.00    +0.000 C 
BRANCH  18  19
ATOM     19  C   UNL     1      11.027  12.353  17.484  0.00  0.00    +0.000 C 
BRANCH  19  23
ATOM     20  C   UNL     1      11.212  16.196  16.892  0.00  0.00    +0.000 C 
ATOM     21  C   UNL     1      11.215  14.865  17.590  0.00  0.00    +0.000 C 
ATOM     22  C   UNL     1      11.315  14.865  19.086  0.00  0.00    +0.000 C 
ATOM     23  C   UNL     1      11.111  13.725  16.881  0.00  0.00    +0.000 C 
ENDBRANCH  19  23
ENDBRANCH  18  19
ENDBRANCH  16  18
ENDBRANCH  14  16
ENDBRANCH   1  15
TORSDOF 8
ENDMDL
MODEL 8
REMARK VINA RESULT:      -7.2      0.865      1.140
REMARK  Name = 
REMARK  12 active torsions:
REMARK  status: ('A' for Active; 'I' for Inactive)
REMARK    1  A    between atoms: C_1  and  C_2
REMARK    2  A    between atoms: C_2  and  C_3
REMARK    3  A    between atoms: C_4  and  C_5
REMARK    4  A    between atoms: C_5  and  C_6
REMARK    5  A    between atoms: C_6  and  C_7
REMARK    6  A    between atoms: C_7  and  C_8
REMARK    7  A    between atoms: C_7  and  C_9
REMARK    8  A    between atoms: C_10  and  C_11
REMARK    9  A    between atoms: C_12  and  C_13
REMARK   10  A    between atoms: C_12  and  C_14
REMARK   11  A    between atoms: C_17  and  C_18
REMARK   12  A    between atoms: C_18  and  O_20
REMARK                            x       y       z     vdW  Elec       q    Type
REMARK                         _______ _______ _______ _____ _____    ______ ____
ROOT
ATOM      1  C   UNL     1       8.448   9.447  17.636  0.00  0.00    +0.000 C 
ATOM      2  C   UNL     1       9.042  10.384  18.404  0.00  0.00    +0.000 C 
ATOM      3  C   UNL     1       9.302  10.249  19.886  0.00  0.00    +0.000 C 
ENDROOT
BRANCH   2   4
ATOM      4  C   UNL     1       9.513  11.704  17.804  0.00  0.00    +0.000 C 
ATOM      5  C   UNL     1       8.974  12.924  18.578  0.00  0.00    +0.000 C 
ATOM      6  C   UNL     1       9.483  14.238  17.987  0.00  0.00    +0.000 C 
ATOM      7  C   UNL     1      11.019  14.262  17.934  0.00  0.00    +0.000 C 
ATOM      8  C   UNL     1      11.545  13.077  17.120  0.00  0.00    +0.000 C 
ATOM      9  C   UNL     1      11.049  11.749  17.688  0.00  0.00    +0.000 C 
BRANCH   7  10
ATOM     10  C   UNL     1      11.537  15.558  17.342  0.00  0.00    +0.000 C 
ATOM     11  O   UNL     1      12.132  16.426  17.970  0.00  0.00    +0.000 OA
BRANCH  10  12
ATOM     12  O   UNL     1      11.251  15.700  16.025  0.00  0.00    +0.000 OA
ATOM     13  H   UNL     1      11.661  15.036  15.440  0.00  0.00    +0.000 HD
ENDBRANCH  10  12
ENDBRANCH   7  10
ENDBRANCH   2   4
BRANCH   1  15
ATOM     14  C   UNL     1       6.959   7.503  17.518  0.00  0.00    +0.000 C 
ATOM     15  C   UNL     1       7.980   8.162  18.081  0.00  0.00    +0.000 C 
BRANCH  14  16
ATOM     16  C   UNL     1       6.560   6.121  17.982  0.00  0.00    +0.000 C 
ATOM     17  C   UNL     1       7.689   5.112  17.717  0.00  0.00    +0.000 C 
BRANCH  16  18
ATOM     18  C   UNL     1       5.239   5.688  17.314  0.00  0.00    +0.000 C 
BRANCH  18  19
ATOM     19  C   UNL     1       4.043   5.972  18.217  0.00  0.00    +0.000 C 
BRANCH  19  23
ATOM     20  C   UNL     1       1.178   3.356  18.536  0.00  0.00    +0.000 C 
ATOM     21  C   UNL     1       2.277   4.313  18.909  0.00  0.00    +0.000 C 
ATOM     22  C   UNL     1       2.667   4.393  20.354  0.00  0.00    +0.000 C 
ATOM     23  C   UNL     1       2.888   5.049  17.961  0.00  0.00    +0.000 C 
ENDBRANCH  19  23
ENDBRANCH  18  19
ENDBRANCH  16  18
ENDBRANCH  14  16
ENDBRANCH   1  15
TORSDOF 8
ENDMDL
MODEL 9
REMARK VINA RESULT:      -7.1      7.046      8.493
REMARK  Name = 
REMARK  12 active torsions:
REMARK  status: ('A' for Active; 'I' for Inactive)
REMARK    1  A    between atoms: C_1  and  C_2
REMARK    2  A    between atoms: C_2  and  C_3
REMARK    3  A    between atoms: C_4  and  C_5
REMARK    4  A    between atoms: C_5  and  C_6
REMARK    5  A    between atoms: C_6  and  C_7
REMARK    6  A    between atoms: C_7  and  C_8
REMARK    7  A    between atoms: C_7  and  C_9
REMARK    8  A    between atoms: C_10  and  C_11
REMARK    9  A    between atoms: C_12  and  C_13
REMARK   10  A    between atoms: C_12  and  C_14
REMARK   11  A    between atoms: C_17  and  C_18
REMARK   12  A    between atoms: C_18  and  O_20
REMARK                            x       y       z     vdW  Elec       q    Type
REMARK                         _______ _______ _______ _____ _____    ______ ____
ROOT
ATOM      1  C   UNL     1       2.511   8.085  17.828  0.00  0.00    +0.000 C 
ATOM      2  C   UNL     1       1.891   8.422  18.977  0.00  0.00    +0.000 C 
ATOM      3  C   UNL     1       1.917   7.606  20.248  0.00  0.00    +0.000 C 
ENDROOT
BRANCH   2   4
ATOM      4  C   UNL     1       1.079   9.710  19.078  0.00  0.00    +0.000 C 
ATOM      5  C   UNL     1      -0.055   9.771  18.035  0.00  0.00    +0.000 C 
ATOM      6  C   UNL     1      -0.881  11.049  18.172  0.00  0.00    +0.000 C 
ATOM      7  C   UNL     1      -1.442  11.194  19.596  0.00  0.00    +0.000 C 
ATOM      8  C   UNL     1      -0.307  11.185  20.622  0.00  0.00    +0.000 C 
ATOM      9  C   UNL     1       0.537   9.919  20.506  0.00  0.00    +0.000 C 
BRANCH   7  10
ATOM     10  C   UNL     1      -2.257  12.464  19.747  0.00  0.00    +0.000 C 
ATOM     11  O   UNL     1      -1.975  13.391  20.497  0.00  0.00    +0.000 OA
BRANCH  10  12
ATOM     12  O   UNL     1      -3.377  12.478  18.985  0.00  0.00    +0.000 OA
ATOM     13  H   UNL     1      -3.226  12.620  18.032  0.00  0.00    +0.000 HD
ENDBRANCH  10  12
ENDBRANCH   7  10
ENDBRANCH   2   4
BRANCH   1  15
ATOM     14  C   UNL     1       4.650   6.887  17.751  0.00  0.00    +0.000 C 
ATOM     15  C   UNL     1       3.317   6.912  17.617  0.00  0.00    +0.000 C 
BRANCH  14  16
ATOM     16  C   UNL     1       5.436   5.607  17.589  0.00  0.00    +0.000 C 
ATOM     17  C   UNL     1       4.877   4.771  16.425  0.00  0.00    +0.000 C 
BRANCH  16  18
ATOM     18  C   UNL     1       5.449   4.811  18.909  0.00  0.00    +0.000 C 
BRANCH  18  19
ATOM     19  C   UNL     1       4.491   3.624  18.849  0.00  0.00    +0.000 C 
BRANCH  19  23
ATOM     20  C   UNL     1       0.956   4.071  20.417  0.00  0.00    +0.000 C 
ATOM     21  C   UNL     1       2.042   3.850  19.401  0.00  0.00    +0.000 C 
ATOM     22  C   UNL     1       1.636   3.748  17.961  0.00  0.00    +0.000 C 
ATOM     23  C   UNL     1       3.329   3.767  19.789  0.00  0.00    +0.000 C 
ENDBRANCH  19  23
ENDBRANCH  18  19
ENDBRANCH  16  18
ENDBRANCH  14  16
ENDBRANCH   1  15
TORSDOF 8
ENDMDL
