MODEL 1
REMARK VINA RESULT:      -8.4      0.000      0.000
REMARK  Name = 
REMARK  6 active torsions:
REMARK  status: ('A' for Active; 'I' for Inactive)
REMARK    1  A    between atoms: C_1  and  O_2
REMARK    2  A    between atoms: O_2  and  C_3
REMARK    3  A    between atoms: C_8  and  C_9
REMARK    4  A    between atoms: C_17  and  C_18
REMARK    5  A    between atoms: C_18  and  O_19
REMARK    6  A    between atoms: O_19  and  C_20
REMARK                            x       y       z     vdW  Elec       q    Type
REMARK                         _______ _______ _______ _____ _____    ______ ____
ROOT
ATOM      1  C   UNL     1       4.573   3.029  19.160  0.00  0.00    +0.000 C 
ATOM      2  O   UNL     1       5.057   2.068  19.753  0.00  0.00    +0.000 OA
ATOM      3  N   UNL     1       3.214   3.100  18.894  0.00  0.00    +0.000 N 
ATOM      4  C   UNL     1       2.345   1.946  19.114  0.00  0.00    +0.000 C 
ATOM      5  C   UNL     1       0.924   2.490  19.035  0.00  0.00    +0.000 C 
ATOM      6  F   UNL     1       0.068   1.623  18.463  0.00  0.00    +0.000 F 
ATOM      7  F   UNL     1       0.455   2.781  20.270  0.00  0.00    +0.000 F 
ATOM      8  C   UNL     1       1.050   3.759  18.217  0.00  0.00    +0.000 C 
ATOM      9  C   UNL     1       2.412   4.308  18.651  0.00  0.00    +0.000 C 
ENDROOT
BRANCH   1  15
ATOM     10  C   UNL     1       8.210   7.787  18.438  0.00  0.00    +0.000 A 
ATOM     11  C   UNL     1       7.605   7.891  17.185  0.00  0.00    +0.000 A 
ATOM     12  C   UNL     1       6.658   6.950  16.770  0.00  0.00    +0.000 A 
ATOM     13  C   UNL     1       6.311   5.899  17.631  0.00  0.00    +0.000 A 
ATOM     14  C   UNL     1       5.408   4.817  17.525  0.00  0.00    +0.000 A 
ATOM     15  C   UNL     1       5.390   4.141  18.732  0.00  0.00    +0.000 A 
ATOM     16  N   UNL     1       6.407   4.685  19.494  0.00  0.00    +0.000 N 
ATOM     17  C   UNL     1       6.929   5.798  18.874  0.00  0.00    +0.000 A 
ATOM     18  C   UNL     1       7.899   6.719  19.296  0.00  0.00    +0.000 A 
ATOM     19  H   UNL     1       6.683   4.340  20.403  0.00  0.00    +0.000 HD
BRANCH  10  21
ATOM     20  C   UNL     1       8.938  10.031  18.584  0.00  0.00    +0.000 C 
ATOM     21  O   UNL     1       9.152   8.662  18.916  0.00  0.00    +0.000 OA
ENDBRANCH  10  21
ENDBRANCH   1  15
BRANCH   9  22
ATOM     22  C   UNL     1       2.328   5.221  19.891  0.00  0.00    +0.000 C 
BRANCH  22  23
ATOM     23  O   UNL     1       3.083   6.401  19.617  0.00  0.00    +0.000 OA
BRANCH  23  24
ATOM     24  C   UNL     1       2.387   7.516  19.258  0.00  0.00    +0.000 A 
ATOM     25  C   UNL     1       2.349   8.107  17.999  0.00  0.00    +0.000 A 
ATOM     26  C   UNL     1       1.591   9.263  17.807  0.00  0.00    +0.000 A 
ATOM     27  C   UNL     1       0.891   9.785  18.883  0.00  0.00    +0.000 A 
ATOM     28  N   UNL     1       0.893   9.234  20.113  0.00  0.00    +0.000 NA
ATOM     29  C   UNL     1       1.638   8.113  20.268  0.00  0.00    +0.000 A 
ENDBRANCH  23  24
ENDBRANCH  22  23
ENDBRANCH   9  22
TORSDOF 5
ENDMDL
MODEL 2
REMARK VINA RESULT:      -7.9      2.507      3.454
REMARK  Name = 
REMARK  6 active torsions:
REMARK  status: ('A' for Active; 'I' for Inactive)
REMARK    1  A    between atoms: C_1  and  O_2
REMARK    2  A    between atoms: O_2  and  C_3
REMARK    3  A    between atoms: C_8  and  C_9
REMARK    4  A    between atoms: C_17  and  C_18
REMARK    5  A    between atoms: C_18  and  O_19
REMARK    6  A    between atoms: O_19  and  C_20
REMARK                            x       y       z     vdW  Elec       q    Type
REMARK                         _______ _______ _______ _____ _____    ______ ____
ROOT
ATOM      1  C   UNL     1       4.753   3.042  19.317  0.00  0.00    +0.000 C 
ATOM      2  O   UNL     1       5.444   2.368  20.076  0.00  0.00    +0.000 OA
ATOM      3  N   UNL     1       3.436   3.348  19.624  0.00  0.00    +0.000 N 
ATOM      4  C   UNL     1       2.758   2.704  20.748  0.00  0.00    +0.000 C 
ATOM      5  C   UNL     1       1.486   3.512  20.968  0.00  0.00    +0.000 C 
ATOM      6  F   UNL     1       0.444   2.747  21.342  0.00  0.00    +0.000 F 
ATOM      7  F   UNL     1       1.676   4.449  21.926  0.00  0.00    +0.000 F 
ATOM      8  C   UNL     1       1.227   4.181  19.634  0.00  0.00    +0.000 C 
ATOM      9  C   UNL     1       2.640   4.478  19.123  0.00  0.00    +0.000 C 
ENDROOT
BRANCH   1  15
ATOM     10  C   UNL     1       6.569   4.332  13.712  0.00  0.00    +0.000 A 
ATOM     11  C   UNL     1       7.411   5.251  14.338  0.00  0.00    +0.000 A 
ATOM     12  C   UNL     1       7.369   5.427  15.724  0.00  0.00    +0.000 A 
ATOM     13  C   UNL     1       6.474   4.661  16.488  0.00  0.00    +0.000 A 
ATOM     14  C   UNL     1       6.195   4.590  17.871  0.00  0.00    +0.000 A 
ATOM     15  C   UNL     1       5.284   3.570  18.082  0.00  0.00    +0.000 A 
ATOM     16  N   UNL     1       4.869   3.159  16.829  0.00  0.00    +0.000 N 
ATOM     17  C   UNL     1       5.632   3.756  15.850  0.00  0.00    +0.000 A 
ATOM     18  C   UNL     1       5.644   3.585  14.458  0.00  0.00    +0.000 A 
ATOM     19  H   UNL     1       4.145   2.472  16.667  0.00  0.00    +0.000 HD
BRANCH  10  21
ATOM     20  C   UNL     1       6.065   2.824  11.962  0.00  0.00    +0.000 C 
ATOM     21  O   UNL     1       6.544   4.106  12.359  0.00  0.00    +0.000 OA
ENDBRANCH  10  21
ENDBRANCH   1  15
BRANCH   9  22
ATOM     22  C   UNL     1       3.182   5.840  19.602  0.00  0.00    +0.000 C 
BRANCH  22  23
ATOM     23  O   UNL     1       3.066   6.761  18.518  0.00  0.00    +0.000 OA
BRANCH  23  24
ATOM     24  C   UNL     1       2.289   7.863  18.718  0.00  0.00    +0.000 A 
ATOM     25  C   UNL     1       1.958   8.833  17.777  0.00  0.00    +0.000 A 
ATOM     26  C   UNL     1       1.158   9.912  18.156  0.00  0.00    +0.000 A 
ATOM     27  C   UNL     1       0.711   9.980  19.466  0.00  0.00    +0.000 A 
ATOM     28  N   UNL     1       1.000   9.053  20.401  0.00  0.00    +0.000 NA
ATOM     29  C   UNL     1       1.778   8.019  20.003  0.00  0.00    +0.000 A 
ENDBRANCH  23  24
ENDBRANCH  22  23
ENDBRANCH   9  22
TORSDOF 5
ENDMDL
MODEL 3
REMARK VINA RESULT:      -7.7      2.708      3.807
REMARK  Name = 
REMARK  6 active torsions:
REMARK  status: ('A' for Active; 'I' for Inactive)
REMARK    1  A    between atoms: C_1  and  O_2
REMARK    2  A    between atoms: O_2  and  C_3
REMARK    3  A    between atoms: C_8  and  C_9
REMARK    4  A    between atoms: C_17  and  C_18
REMARK    5  A    between atoms: C_18  and  O_19
REMARK    6  A    between atoms: O_19  and  C_20
REMARK                            x       y       z     vdW  Elec       q    Type
REMARK                         _______ _______ _______ _____ _____    ______ ____
ROOT
ATOM      1  C   UNL     1       4.965   4.233  19.028  0.00  0.00    +0.000 C 
ATOM      2  O   UNL     1       5.685   4.452  19.999  0.00  0.00    +0.000 OA
ATOM      3  N   UNL     1       3.645   3.841  19.184  0.00  0.00    +0.000 N 
ATOM      4  C   UNL     1       3.124   3.466  20.497  0.00  0.00    +0.000 C 
ATOM      5  C   UNL     1       1.610   3.424  20.332  0.00  0.00    +0.000 C 
ATOM      6  F   UNL     1       1.037   2.446  21.059  0.00  0.00    +0.000 F 
ATOM      7  F   UNL     1       1.056   4.599  20.711  0.00  0.00    +0.000 F 
ATOM      8  C   UNL     1       1.396   3.204  18.849  0.00  0.00    +0.000 C 
ATOM      9  C   UNL     1       2.546   3.997  18.220  0.00  0.00    +0.000 C 
ENDROOT
BRANCH   1  15
ATOM     10  C   UNL     1       6.598   3.908  13.230  0.00  0.00    +0.000 A 
ATOM     11  C   UNL     1       7.441   4.974  13.545  0.00  0.00    +0.000 A 
ATOM     12  C   UNL     1       7.435   5.533  14.826  0.00  0.00    +0.000 A 
ATOM     13  C   UNL     1       6.576   5.005  15.802  0.00  0.00    +0.000 A 
ATOM     14  C   UNL     1       6.338   5.323  17.158  0.00  0.00    +0.000 A 
ATOM     15  C   UNL     1       5.452   4.396  17.677  0.00  0.00    +0.000 A 
ATOM     16  N   UNL     1       5.009   3.645  16.604  0.00  0.00    +0.000 N 
ATOM     17  C   UNL     1       5.732   3.949  15.473  0.00  0.00    +0.000 A 
ATOM     18  C   UNL     1       5.708   3.393  14.185  0.00  0.00    +0.000 A 
ATOM     19  H   UNL     1       4.293   2.934  16.665  0.00  0.00    +0.000 HD
BRANCH  10  21
ATOM     20  C   UNL     1       5.319   2.633  11.704  0.00  0.00    +0.000 C 
ATOM     21  O   UNL     1       6.539   3.310  11.997  0.00  0.00    +0.000 OA
ENDBRANCH  10  21
ENDBRANCH   1  15
BRANCH   9  22
ATOM     22  C   UNL     1       2.190   5.475  17.963  0.00  0.00    +0.000 C 
BRANCH  22  23
ATOM     23  O   UNL     1       2.776   6.253  19.006  0.00  0.00    +0.000 OA
BRANCH  23  24
ATOM     24  C   UNL     1       2.179   7.441  19.307  0.00  0.00    +0.000 A 
ATOM     25  C   UNL     1       1.645   7.820  20.534  0.00  0.00    +0.000 A 
ATOM     26  C   UNL     1       1.053   9.077  20.666  0.00  0.00    +0.000 A 
ATOM     27  C   UNL     1       1.021   9.915  19.563  0.00  0.00    +0.000 A 
ATOM     28  N   UNL     1       1.539   9.588  18.363  0.00  0.00    +0.000 NA
ATOM     29  C   UNL     1       2.106   8.363  18.266  0.00  0.00    +0.000 A 
ENDBRANCH  23  24
ENDBRANCH  22  23
ENDBRANCH   9  22
TORSDOF 5
ENDMDL
MODEL 4
REMARK VINA RESULT:      -7.5      2.788      5.957
REMARK  Name = 
REMARK  6 active torsions:
REMARK  status: ('A' for Active; 'I' for Inactive)
REMARK    1  A    between atoms: C_1  and  O_2
REMARK    2  A    between atoms: O_2  and  C_3
REMARK    3  A    between atoms: C_8  and  C_9
REMARK    4  A    between atoms: C_17  and  C_18
REMARK    5  A    between atoms: C_18  and  O_19
REMARK    6  A    between atoms: O_19  and  C_20
REMARK                            x       y       z     vdW  Elec       q    Type
REMARK                         _______ _______ _______ _____ _____    ______ ____
ROOT
ATOM      1  C   UNL     1       1.768   4.951  20.271  0.00  0.00    +0.000 C 
ATOM      2  O   UNL     1       0.779   4.366  20.706  0.00  0.00    +0.000 OA
ATOM      3  N   UNL     1       2.949   4.274  20.012  0.00  0.00    +0.000 N 
ATOM      4  C   UNL     1       3.131   2.890  20.447  0.00  0.00    +0.000 C 
ATOM      5  C   UNL     1       4.373   2.398  19.714  0.00  0.00    +0.000 C 
ATOM      6  F   UNL     1       5.117   1.559  20.460  0.00  0.00    +0.000 F 
ATOM      7  F   UNL     1       4.030   1.746  18.579  0.00  0.00    +0.000 F 
ATOM      8  C   UNL     1       5.139   3.660  19.377  0.00  0.00    +0.000 C 
ATOM      9  C   UNL     1       4.022   4.667  19.087  0.00  0.00    +0.000 C 
ENDROOT
BRANCH   1  15
ATOM     10  C   UNL     1       1.035  10.932  19.976  0.00  0.00    +0.000 A 
ATOM     11  C   UNL     1       1.456  10.784  18.654  0.00  0.00    +0.000 A 
ATOM     12  C   UNL     1       1.837   9.533  18.162  0.00  0.00    +0.000 A 
ATOM     13  C   UNL     1       1.784   8.416  19.010  0.00  0.00    +0.000 A 
ATOM     14  C   UNL     1       2.082   7.047  18.829  0.00  0.00    +0.000 A 
ATOM     15  C   UNL     1       1.742   6.367  19.985  0.00  0.00    +0.000 A 
ATOM     16  N   UNL     1       1.425   7.334  20.921  0.00  0.00    +0.000 N 
ATOM     17  C   UNL     1       1.374   8.577  20.329  0.00  0.00    +0.000 A 
ATOM     18  C   UNL     1       1.012   9.830  20.846  0.00  0.00    +0.000 A 
ATOM     19  H   UNL     1       1.207   7.140  21.889  0.00  0.00    +0.000 HD
BRANCH  10  21
ATOM     20  C   UNL     1      -0.181  12.019  21.686  0.00  0.00    +0.000 C 
ATOM     21  O   UNL     1       0.653  12.124  20.536  0.00  0.00    +0.000 OA
ENDBRANCH  10  21
ENDBRANCH   1  15
BRANCH   9  22
ATOM     22  C   UNL     1       3.565   4.655  17.614  0.00  0.00    +0.000 C 
BRANCH  22  23
ATOM     23  O   UNL     1       4.274   5.686  16.928  0.00  0.00    +0.000 OA
BRANCH  23  24
ATOM     24  C   UNL     1       5.219   5.297  16.026  0.00  0.00    +0.000 A 
ATOM     25  C   UNL     1       5.048   4.409  14.969  0.00  0.00    +0.000 A 
ATOM     26  C   UNL     1       6.134   4.108  14.144  0.00  0.00    +0.000 A 
ATOM     27  C   UNL     1       7.353   4.713  14.403  0.00  0.00    +0.000 A 
ATOM     28  N   UNL     1       7.553   5.588  15.409  0.00  0.00    +0.000 NA
ATOM     29  C   UNL     1       6.482   5.859  16.192  0.00  0.00    +0.000 A 
ENDBRANCH  23  24
ENDBRANCH  22  23
ENDBRANCH   9  22
TORSDOF 5
ENDMDL
MODEL 5
REMARK VINA RESULT:      -7.4      2.398      3.081
REMARK  Name = 
REMARK  6 active torsions:
REMARK  status: ('A' for Active; 'I' for Inactive)
REMARK    1  A    between atoms: C_1  and  O_2
REMARK    2  A    between atoms: O_2  and  C_3
REMARK    3  A    between atoms: C_8  and  C_9
REMARK    4  A    between atoms: C_17  and  C_18
REMARK    5  A    between atoms: C_18  and  O_19
REMARK    6  A    between atoms: O_19  and  C_20
REMARK                            x       y       z     vdW  Elec       q    Type
REMARK                         _______ _______ _______ _____ _____    ______ ____
ROOT
ATOM      1  C   UNL     1       4.760   4.189  19.184  0.00  0.00    +0.000 C 
ATOM      2  O   UNL     1       5.457   4.536  20.134  0.00  0.00    +0.000 OA
ATOM      3  N   UNL     1       3.441   3.803  19.363  0.00  0.00    +0.000 N 
ATOM      4  C   UNL     1       2.897   3.587  20.703  0.00  0.00    +0.000 C 
ATOM      5  C   UNL     1       1.387   3.506  20.517  0.00  0.00    +0.000 C 
ATOM      6  F   UNL     1       0.809   2.618  21.348  0.00  0.00    +0.000 F 
ATOM      7  F   UNL     1       0.814   4.711  20.736  0.00  0.00    +0.000 F 
ATOM      8  C   UNL     1       1.205   3.102  19.068  0.00  0.00    +0.000 C 
ATOM      9  C   UNL     1       2.359   3.825  18.367  0.00  0.00    +0.000 C 
ENDROOT
BRANCH   1  15
ATOM     10  C   UNL     1       7.456   5.078  13.862  0.00  0.00    +0.000 A 
ATOM     11  C   UNL     1       6.455   4.242  13.365  0.00  0.00    +0.000 A 
ATOM     12  C   UNL     1       5.520   3.661  14.226  0.00  0.00    +0.000 A 
ATOM     13  C   UNL     1       5.589   3.932  15.601  0.00  0.00    +0.000 A 
ATOM     14  C   UNL     1       4.813   3.525  16.710  0.00  0.00    +0.000 A 
ATOM     15  C   UNL     1       5.271   4.190  17.833  0.00  0.00    +0.000 A 
ATOM     16  N   UNL     1       6.428   4.842  17.450  0.00  0.00    +0.000 N 
ATOM     17  C   UNL     1       6.598   4.758  16.085  0.00  0.00    +0.000 A 
ATOM     18  C   UNL     1       7.560   5.329  15.239  0.00  0.00    +0.000 A 
ATOM     19  H   UNL     1       7.029   5.354  18.082  0.00  0.00    +0.000 HD
BRANCH  10  21
ATOM     20  C   UNL     1       7.985   6.084  11.789  0.00  0.00    +0.000 C 
ATOM     21  O   UNL     1       8.414   5.679  13.086  0.00  0.00    +0.000 OA
ENDBRANCH  10  21
ENDBRANCH   1  15
BRANCH   9  22
ATOM     22  C   UNL     1       1.994   5.256  17.923  0.00  0.00    +0.000 C 
BRANCH  22  23
ATOM     23  O   UNL     1       2.712   6.168  18.753  0.00  0.00    +0.000 OA
BRANCH  23  24
ATOM     24  C   UNL     1       2.205   7.427  18.878  0.00  0.00    +0.000 A 
ATOM     25  C   UNL     1       2.103   8.388  17.877  0.00  0.00    +0.000 A 
ATOM     26  C   UNL     1       1.569   9.641  18.182  0.00  0.00    +0.000 A 
ATOM     27  C   UNL     1       1.149   9.887  19.479  0.00  0.00    +0.000 A 
ATOM     28  N   UNL     1       1.220   8.977  20.471  0.00  0.00    +0.000 NA
ATOM     29  C   UNL     1       1.743   7.771  20.144  0.00  0.00    +0.000 A 
ENDBRANCH  23  24
ENDBRANCH  22  23
ENDBRANCH   9  22
TORSDOF 5
ENDMDL
MODEL 6
REMARK VINA RESULT:      -7.4      3.121      5.672
REMARK  Name = 
REMARK  6 active torsions:
REMARK  status: ('A' for Active; 'I' for Inactive)
REMARK    1  A    between atoms: C_1  and  O_2
REMARK    2  A    between atoms: O_2  and  C_3
REMARK    3  A    between atoms: C_8  and  C_9
REMARK    4  A    between atoms: C_17  and  C_18
REMARK    5  A    between atoms: C_18  and  O_19
REMARK    6  A    between atoms: O_19  and  C_20
REMARK                            x       y       z     vdW  Elec       q    Type
REMARK                         _______ _______ _______ _____ _____    ______ ____
ROOT
ATOM      1  C   UNL     1       1.594   8.487  18.316  0.00  0.00    +0.000 C 
ATOM      2  O   UNL     1       0.905   9.075  17.485  0.00  0.00    +0.000 OA
ATOM      3  N   UNL     1       1.445   8.725  19.673  0.00  0.00    +0.000 N 
ATOM      4  C   UNL     1       0.620   9.832  20.154  0.00  0.00    +0.000 C 
ATOM      5  C   UNL     1       0.433   9.577  21.644  0.00  0.00    +0.000 C 
ATOM      6  F   UNL     1       0.415  10.712  22.367  0.00  0.00    +0.000 F 
ATOM      7  F   UNL     1      -0.729   8.922  21.873  0.00  0.00    +0.000 F 
ATOM      8  C   UNL     1       1.606   8.699  22.028  0.00  0.00    +0.000 C 
ATOM      9  C   UNL     1       1.800   7.829  20.783  0.00  0.00    +0.000 C 
ENDROOT
BRANCH   1  15
ATOM     10  C   UNL     1       6.182   5.219  16.158  0.00  0.00    +0.000 A 
ATOM     11  C   UNL     1       5.363   4.126  16.442  0.00  0.00    +0.000 A 
ATOM     12  C   UNL     1       4.116   4.307  17.047  0.00  0.00    +0.000 A 
ATOM     13  C   UNL     1       3.687   5.606  17.361  0.00  0.00    +0.000 A 
ATOM     14  C   UNL     1       2.512   6.123  17.951  0.00  0.00    +0.000 A 
ATOM     15  C   UNL     1       2.577   7.504  17.921  0.00  0.00    +0.000 A 
ATOM     16  N   UNL     1       3.854   7.821  17.497  0.00  0.00    +0.000 N 
ATOM     17  C   UNL     1       4.518   6.687  17.084  0.00  0.00    +0.000 A 
ATOM     18  C   UNL     1       5.782   6.520  16.500  0.00  0.00    +0.000 A 
ATOM     19  H   UNL     1       4.220   8.761  17.448  0.00  0.00    +0.000 HD
BRANCH  10  21
ATOM     20  C   UNL     1       7.416   4.956  14.158  0.00  0.00    +0.000 C 
ATOM     21  O   UNL     1       7.419   5.124  15.574  0.00  0.00    +0.000 OA
ENDBRANCH  10  21
ENDBRANCH   1  15
BRANCH   9  22
ATOM     22  C   UNL     1       0.946   6.545  20.802  0.00  0.00    +0.000 C 
BRANCH  22  23
ATOM     23  O   UNL     1       1.762   5.485  21.299  0.00  0.00    +0.000 OA
BRANCH  23  24
ATOM     24  C   UNL     1       1.769   4.321  20.590  0.00  0.00    +0.000 A 
ATOM     25  C   UNL     1       0.701   3.760  19.898  0.00  0.00    +0.000 A 
ATOM     26  C   UNL     1       0.878   2.545  19.233  0.00  0.00    +0.000 A 
ATOM     27  C   UNL     1       2.121   1.936  19.281  0.00  0.00    +0.000 A 
ATOM     28  N   UNL     1       3.182   2.456  19.930  0.00  0.00    +0.000 NA
ATOM     29  C   UNL     1       2.979   3.634  20.565  0.00  0.00    +0.000 A 
ENDBRANCH  23  24
ENDBRANCH  22  23
ENDBRANCH   9  22
TORSDOF 5
ENDMDL
MODEL 7
REMARK VINA RESULT:      -7.3      2.458      2.854
REMARK  Name = 
REMARK  6 active torsions:
REMARK  status: ('A' for Active; 'I' for Inactive)
REMARK    1  A    between atoms: C_1  and  O_2
REMARK    2  A    between atoms: O_2  and  C_3
REMARK    3  A    between atoms: C_8  and  C_9
REMARK    4  A    between atoms: C_17  and  C_18
REMARK    5  A    between atoms: C_18  and  O_19
REMARK    6  A    between atoms: O_19  and  C_20
REMARK                            x       y       z     vdW  Elec       q    Type
REMARK                         _______ _______ _______ _____ _____    ______ ____
ROOT
ATOM      1  C   UNL     1       4.632   2.774  19.554  0.00  0.00    +0.000 C 
ATOM      2  O   UNL     1       5.386   2.134  20.283  0.00  0.00    +0.000 OA
ATOM      3  N   UNL     1       3.350   3.109  19.961  0.00  0.00    +0.000 N 
ATOM      4  C   UNL     1       2.774   2.534  21.175  0.00  0.00    +0.000 C 
ATOM      5  C   UNL     1       1.532   3.366  21.465  0.00  0.00    +0.000 C 
ATOM      6  F   UNL     1       0.523   2.633  21.973  0.00  0.00    +0.000 F 
ATOM      7  F   UNL     1       1.813   4.351  22.350  0.00  0.00    +0.000 F 
ATOM      8  C   UNL     1       1.156   3.966  20.126  0.00  0.00    +0.000 C 
ATOM      9  C   UNL     1       2.518   4.219  19.474  0.00  0.00    +0.000 C 
ENDROOT
BRANCH   1  15
ATOM     10  C   UNL     1       7.185   5.182  14.648  0.00  0.00    +0.000 A 
ATOM     11  C   UNL     1       5.966   4.895  14.035  0.00  0.00    +0.000 A 
ATOM     12  C   UNL     1       4.951   4.239  14.738  0.00  0.00    +0.000 A 
ATOM     13  C   UNL     1       5.166   3.877  16.076  0.00  0.00    +0.000 A 
ATOM     14  C   UNL     1       4.367   3.231  17.046  0.00  0.00    +0.000 A 
ATOM     15  C   UNL     1       5.051   3.230  18.248  0.00  0.00    +0.000 A 
ATOM     16  N   UNL     1       6.323   3.693  17.968  0.00  0.00    +0.000 N 
ATOM     17  C   UNL     1       6.390   4.159  16.674  0.00  0.00    +0.000 A 
ATOM     18  C   UNL     1       7.428   4.794  15.975  0.00  0.00    +0.000 A 
ATOM     19  H   UNL     1       7.075   3.732  18.642  0.00  0.00    +0.000 HD
BRANCH  10  21
ATOM     20  C   UNL     1       8.258   5.700  12.606  0.00  0.00    +0.000 C 
ATOM     21  O   UNL     1       8.231   5.815  14.026  0.00  0.00    +0.000 OA
ENDBRANCH  10  21
ENDBRANCH   1  15
BRANCH   9  22
ATOM     22  C   UNL     1       3.109   5.600  19.827  0.00  0.00    +0.000 C 
BRANCH  22  23
ATOM     23  O   UNL     1       3.039   6.416  18.658  0.00  0.00    +0.000 OA
BRANCH  23  24
ATOM     24  C   UNL     1       2.363   7.595  18.762  0.00  0.00    +0.000 A 
ATOM     25  C   UNL     1       2.169   8.537  17.757  0.00  0.00    +0.000 A 
ATOM     26  C   UNL     1       1.460   9.705  18.039  0.00  0.00    +0.000 A 
ATOM     27  C   UNL     1       0.964   9.888  19.320  0.00  0.00    +0.000 A 
ATOM     28  N   UNL     1       1.120   8.993  20.315  0.00  0.00    +0.000 NA
ATOM     29  C   UNL     1       1.813   7.870  20.010  0.00  0.00    +0.000 A 
ENDBRANCH  23  24
ENDBRANCH  22  23
ENDBRANCH   9  22
TORSDOF 5
ENDMDL
MODEL 8
REMARK VINA RESULT:      -7.3      3.128      6.210
REMARK  Name = 
REMARK  6 active torsions:
REMARK  status: ('A' for Active; 'I' for Inactive)
REMARK    1  A    between atoms: C_1  and  O_2
REMARK    2  A    between atoms: O_2  and  C_3
REMARK    3  A    between atoms: C_8  and  C_9
REMARK    4  A    between atoms: C_17  and  C_18
REMARK    5  A    between atoms: C_18  and  O_19
REMARK    6  A    between atoms: O_19  and  C_20
REMARK                            x       y       z     vdW  Elec       q    Type
REMARK                         _______ _______ _______ _____ _____    ______ ____
ROOT
ATOM      1  C   UNL     1       5.058   6.917  17.017  0.00  0.00    +0.000 C 
ATOM      2  O   UNL     1       6.015   7.678  16.899  0.00  0.00    +0.000 OA
ATOM      3  N   UNL     1       5.015   5.704  16.347  0.00  0.00    +0.000 N 
ATOM      4  C   UNL     1       5.999   5.382  15.315  0.00  0.00    +0.000 C 
ATOM      5  C   UNL     1       5.840   3.889  15.058  0.00  0.00    +0.000 C 
ATOM      6  F   UNL     1       6.022   3.563  13.765  0.00  0.00    +0.000 F 
ATOM      7  F   UNL     1       6.729   3.181  15.792  0.00  0.00    +0.000 F 
ATOM      8  C   UNL     1       4.428   3.576  15.510  0.00  0.00    +0.000 C 
ATOM      9  C   UNL     1       4.243   4.508  16.711  0.00  0.00    +0.000 C 
ENDROOT
BRANCH   1  15
ATOM     10  C   UNL     1       0.441   9.239  20.128  0.00  0.00    +0.000 A 
ATOM     11  C   UNL     1       0.657   8.165  20.993  0.00  0.00    +0.000 A 
ATOM     12  C   UNL     1       1.637   7.209  20.712  0.00  0.00    +0.000 A 
ATOM     13  C   UNL     1       2.413   7.342  19.551  0.00  0.00    +0.000 A 
ATOM     14  C   UNL     1       3.462   6.577  18.993  0.00  0.00    +0.000 A 
ATOM     15  C   UNL     1       3.941   7.237  17.876  0.00  0.00    +0.000 A 
ATOM     16  N   UNL     1       3.070   8.286  17.646  0.00  0.00    +0.000 N 
ATOM     17  C   UNL     1       2.180   8.410  18.690  0.00  0.00    +0.000 A 
ATOM     18  C   UNL     1       1.185   9.364  18.945  0.00  0.00    +0.000 A 
ATOM     19  H   UNL     1       3.123   8.904  16.848  0.00  0.00    +0.000 HD
BRANCH  10  21
ATOM     20  C   UNL     1      -1.282  10.554  19.185  0.00  0.00    +0.000 C 
ATOM     21  O   UNL     1      -0.504  10.213  20.329  0.00  0.00    +0.000 OA
ENDBRANCH  10  21
ENDBRANCH   1  15
BRANCH   9  22
ATOM     22  C   UNL     1       4.713   3.882  18.040  0.00  0.00    +0.000 C 
BRANCH  22  23
ATOM     23  O   UNL     1       3.861   2.774  18.327  0.00  0.00    +0.000 OA
BRANCH  23  24
ATOM     24  C   UNL     1       2.990   2.911  19.367  0.00  0.00    +0.000 A 
ATOM     25  C   UNL     1       1.685   3.389  19.304  0.00  0.00    +0.000 A 
ATOM     26  C   UNL     1       0.931   3.479  20.475  0.00  0.00    +0.000 A 
ATOM     27  C   UNL     1       1.509   3.082  21.670  0.00  0.00    +0.000 A 
ATOM     28  N   UNL     1       2.765   2.603  21.768  0.00  0.00    +0.000 NA
ATOM     29  C   UNL     1       3.471   2.528  20.615  0.00  0.00    +0.000 A 
ENDBRANCH  23  24
ENDBRANCH  22  23
ENDBRANCH   9  22
TORSDOF 5
ENDMDL
MODEL 9
REMARK VINA RESULT:      -7.1      3.647      6.927
REMARK  Name = 
REMARK  6 active torsions:
REMARK  status: ('A' for Active; 'I' for Inactive)
REMARK    1  A    between atoms: C_1  and  O_2
REMARK    2  A    between atoms: O_2  and  C_3
REMARK    3  A    between atoms: C_8  and  C_9
REMARK    4  A    between atoms: C_17  and  C_18
REMARK    5  A    between atoms: C_18  and  O_19
REMARK    6  A    between atoms: O_19  and  C_20
REMARK                            x       y       z     vdW  Elec       q    Type
REMARK                         _______ _______ _______ _____ _____    ______ ____
ROOT
ATOM      1  C   UNL     1       3.999   5.303  19.137  0.00  0.00    +0.000 C 
ATOM      2  O   UNL     1       3.563   4.235  19.560  0.00  0.00    +0.000 OA
ATOM      3  N   UNL     1       5.303   5.418  18.682  0.00  0.00    +0.000 N 
ATOM      4  C   UNL     1       6.267   4.338  18.887  0.00  0.00    +0.000 C 
ATOM      5  C   UNL     1       7.449   4.677  17.988  0.00  0.00    +0.000 C 
ATOM      6  F   UNL     1       8.631   4.336  18.534  0.00  0.00    +0.000 F 
ATOM      7  F   UNL     1       7.344   4.038  16.800  0.00  0.00    +0.000 F 
ATOM      8  C   UNL     1       7.351   6.174  17.781  0.00  0.00    +0.000 C 
ATOM      9  C   UNL     1       5.839   6.412  17.740  0.00  0.00    +0.000 C 
ENDROOT
BRANCH   1  15
ATOM     10  C   UNL     1       0.182   9.919  19.848  0.00  0.00    +0.000 A 
ATOM     11  C   UNL     1       0.320  10.073  18.469  0.00  0.00    +0.000 A 
ATOM     12  C   UNL     1       1.186   9.251  17.742  0.00  0.00    +0.000 A 
ATOM     13  C   UNL     1       1.915   8.257  18.414  0.00  0.00    +0.000 A 
ATOM     14  C   UNL     1       2.842   7.280  17.988  0.00  0.00    +0.000 A 
ATOM     15  C   UNL     1       3.170   6.484  19.071  0.00  0.00    +0.000 A 
ATOM     16  N   UNL     1       2.602   7.087  20.178  0.00  0.00    +0.000 N 
ATOM     17  C   UNL     1       1.777   8.121  19.792  0.00  0.00    +0.000 A 
ATOM     18  C   UNL     1       0.931   8.954  20.539  0.00  0.00    +0.000 A 
ATOM     19  H   UNL     1       2.734   6.771  21.129  0.00  0.00    +0.000 HD
BRANCH  10  21
ATOM     20  C   UNL     1      -0.225  10.840  21.987  0.00  0.00    +0.000 C 
ATOM     21  O   UNL     1      -0.639  10.689  20.632  0.00  0.00    +0.000 OA
ENDBRANCH  10  21
ENDBRANCH   1  15
BRANCH   9  22
ATOM     22  C   UNL     1       5.242   6.266  16.326  0.00  0.00    +0.000 C 
BRANCH  22  23
ATOM     23  O   UNL     1       6.325   6.210  15.398  0.00  0.00    +0.000 OA
BRANCH  23  24
ATOM     24  C   UNL     1       6.251   5.272  14.411  0.00  0.00    +0.000 A 
ATOM     25  C   UNL     1       5.238   4.339  14.221  0.00  0.00    +0.000 A 
ATOM     26  C   UNL     1       5.327   3.436  13.161  0.00  0.00    +0.000 A 
ATOM     27  C   UNL     1       6.428   3.502  12.322  0.00  0.00    +0.000 A 
ATOM     28  N   UNL     1       7.422   4.401  12.467  0.00  0.00    +0.000 NA
ATOM     29  C   UNL     1       7.307   5.263  13.504  0.00  0.00    +0.000 A 
ENDBRANCH  23  24
ENDBRANCH  22  23
ENDBRANCH   9  22
TORSDOF 5
ENDMDL
