MODEL 1
REMARK VINA RESULT:      -7.5      0.000      0.000
REMARK  Name = 
REMARK  9 active torsions:
REMARK  status: ('A' for Active; 'I' for Inactive)
REMARK    1  A    between atoms: C_1  and  C_2
REMARK    2  A    between atoms: C_2  and  O_3
REMARK    3  A    between atoms: C_2  and  C_4
REMARK    4  A    between atoms: C_4  and  N_5
REMARK    5  A    between atoms: C_4  and  C_27
REMARK    6  A    between atoms: C_11  and  C_12
REMARK    7  A    between atoms: C_15  and  C_16
REMARK    8  A    between atoms: C_17  and  C_18
REMARK    9  A    between atoms: N_29  and  O_30
REMARK                            x       y       z     vdW  Elec       q    Type
REMARK                         _______ _______ _______ _____ _____    ______ ____
ROOT
ATOM      1  N   UNL     1      -4.839  13.129  19.722  0.00  0.00    +0.000 N 
ATOM      2  C   UNL     1      -4.763  12.728  21.023  0.00  0.00    +0.000 C 
ATOM      3  O   UNL     1      -5.770  12.463  21.674  0.00  0.00    +0.000 OA
ATOM      4  N   UNL     1      -3.486  12.666  21.528  0.00  0.00    +0.000 N 
ATOM      5  C   UNL     1      -3.220  12.251  22.893  0.00  0.00    +0.000 C 
ATOM      6  C   UNL     1      -1.755  12.599  23.119  0.00  0.00    +0.000 C 
ATOM      7  C   UNL     1      -1.103  12.489  21.731  0.00  0.00    +0.000 C 
ATOM      8  C   UNL     1      -2.255  12.753  20.754  0.00  0.00    +0.000 C 
ATOM      9  H   UNL     1      -4.033  13.567  19.299  0.00  0.00    +0.000 HD
ENDROOT
BRANCH   7  10
ATOM     10  C   UNL     1      -0.403  11.168  21.479  0.00  0.00    +0.000 A 
ATOM     11  C   UNL     1       0.080  10.813  20.211  0.00  0.00    +0.000 A 
ATOM     12  C   UNL     1       0.696   9.582  20.000  0.00  0.00    +0.000 A 
ATOM     13  C   UNL     1       0.857   8.696  21.059  0.00  0.00    +0.000 A 
ATOM     14  C   UNL     1       0.406   9.037  22.333  0.00  0.00    +0.000 A 
ATOM     15  C   UNL     1      -0.224  10.266  22.540  0.00  0.00    +0.000 A 
BRANCH  13  16
ATOM     16  C   UNL     1       1.458   7.431  20.825  0.00  0.00    +0.000 C 
ATOM     17  C   UNL     1       1.934   6.349  20.603  0.00  0.00    +0.000 C 
BRANCH  17  18
ATOM     18  C   UNL     1       2.461   5.047  20.331  0.00  0.00    +0.000 A 
ATOM     19  C   UNL     1       1.823   3.906  20.831  0.00  0.00    +0.000 A 
ATOM     20  C   UNL     1       2.355   2.638  20.579  0.00  0.00    +0.000 A 
ATOM     21  C   UNL     1       3.521   2.508  19.825  0.00  0.00    +0.000 A 
ATOM     22  C   UNL     1       4.157   3.643  19.321  0.00  0.00    +0.000 A 
ATOM     23  C   UNL     1       3.627   4.911  19.575  0.00  0.00    +0.000 A 
ENDBRANCH  17  18
ENDBRANCH  13  16
ENDBRANCH   7  10
BRANCH   1  24
ATOM     24  C   UNL     1      -6.089  13.251  18.966  0.00  0.00    +0.000 C 
BRANCH  24  25
ATOM     25  C   UNL     1      -6.409  14.732  18.681  0.00  0.00    +0.000 C 
ATOM     26  O   UNL     1      -7.310  15.106  17.925  0.00  0.00    +0.000 OA
ATOM     27  N   UNL     1      -5.656  15.644  19.373  0.00  0.00    +0.000 N 
ATOM     28  H   UNL     1      -4.949  15.399  20.068  0.00  0.00    +0.000 HD
BRANCH  27  29
ATOM     29  O   UNL     1      -6.007  17.002  19.210  0.00  0.00    +0.000 OA
ATOM     30  H   UNL     1      -6.722  17.112  19.875  0.00  0.00    +0.000 HD
ENDBRANCH  27  29
ENDBRANCH  24  25
BRANCH  24  32
ATOM     31  C   UNL     1      -5.434  11.029  17.823  0.00  0.00    +0.000 C 
ATOM     32  C   UNL     1      -5.937  12.457  17.647  0.00  0.00    +0.000 C 
BRANCH  32  33
ATOM     33  O   UNL     1      -7.173  12.450  16.918  0.00  0.00    +0.000 OA
ATOM     34  H   UNL     1      -7.302  13.359  16.575  0.00  0.00    +0.000 HD
ENDBRANCH  32  33
ENDBRANCH  24  32
ENDBRANCH   1  24
TORSDOF 8
ENDMDL
MODEL 2
REMARK VINA RESULT:      -7.4      1.678      2.191
REMARK  Name = 
REMARK  9 active torsions:
REMARK  status: ('A' for Active; 'I' for Inactive)
REMARK    1  A    between atoms: C_1  and  C_2
REMARK    2  A    between atoms: C_2  and  O_3
REMARK    3  A    between atoms: C_2  and  C_4
REMARK    4  A    between atoms: C_4  and  N_5
REMARK    5  A    between atoms: C_4  and  C_27
REMARK    6  A    between atoms: C_11  and  C_12
REMARK    7  A    between atoms: C_15  and  C_16
REMARK    8  A    between atoms: C_17  and  C_18
REMARK    9  A    between atoms: N_29  and  O_30
REMARK                            x       y       z     vdW  Elec       q    Type
REMARK                         _______ _______ _______ _____ _____    ______ ____
ROOT
ATOM      1  N   UNL     1      -4.584  13.500  19.968  0.00  0.00    +0.000 N 
ATOM      2  C   UNL     1      -4.233  12.866  21.122  0.00  0.00    +0.000 C 
ATOM      3  O   UNL     1      -5.078  12.426  21.897  0.00  0.00    +0.000 OA
ATOM      4  N   UNL     1      -2.878  12.780  21.337  0.00  0.00    +0.000 N 
ATOM      5  C   UNL     1      -2.327  12.130  22.512  0.00  0.00    +0.000 C 
ATOM      6  C   UNL     1      -0.852  12.509  22.502  0.00  0.00    +0.000 C 
ATOM      7  C   UNL     1      -0.502  12.701  21.017  0.00  0.00    +0.000 C 
ATOM      8  C   UNL     1      -1.836  13.080  20.363  0.00  0.00    +0.000 C 
ATOM      9  H   UNL     1      -3.891  14.054  19.486  0.00  0.00    +0.000 HD
ENDROOT
BRANCH   7  10
ATOM     10  C   UNL     1       0.150  11.493  20.375  0.00  0.00    +0.000 A 
ATOM     11  C   UNL     1       0.134  10.229  20.985  0.00  0.00    +0.000 A 
ATOM     12  C   UNL     1       0.763   9.139  20.386  0.00  0.00    +0.000 A 
ATOM     13  C   UNL     1       1.399   9.293  19.159  0.00  0.00    +0.000 A 
ATOM     14  C   UNL     1       1.407  10.534  18.524  0.00  0.00    +0.000 A 
ATOM     15  C   UNL     1       0.788  11.628  19.132  0.00  0.00    +0.000 A 
BRANCH  13  16
ATOM     16  C   UNL     1       2.064   8.183  18.575  0.00  0.00    +0.000 C 
ATOM     17  C   UNL     1       2.655   7.245  18.111  0.00  0.00    +0.000 C 
BRANCH  17  18
ATOM     18  C   UNL     1       3.395   6.142  17.577  0.00  0.00    +0.000 A 
ATOM     19  C   UNL     1       2.951   4.829  17.775  0.00  0.00    +0.000 A 
ATOM     20  C   UNL     1       3.689   3.755  17.269  0.00  0.00    +0.000 A 
ATOM     21  C   UNL     1       4.868   3.990  16.563  0.00  0.00    +0.000 A 
ATOM     22  C   UNL     1       5.311   5.298  16.360  0.00  0.00    +0.000 A 
ATOM     23  C   UNL     1       4.575   6.371  16.868  0.00  0.00    +0.000 A 
ENDBRANCH  17  18
ENDBRANCH  13  16
ENDBRANCH   7  10
BRANCH   1  24
ATOM     24  C   UNL     1      -5.966  13.693  19.518  0.00  0.00    +0.000 C 
BRANCH  24  25
ATOM     25  C   UNL     1      -6.322  15.193  19.487  0.00  0.00    +0.000 C 
ATOM     26  O   UNL     1      -7.472  15.628  19.602  0.00  0.00    +0.000 OA
ATOM     27  N   UNL     1      -5.261  16.052  19.378  0.00  0.00    +0.000 N 
ATOM     28  H   UNL     1      -4.282  15.760  19.355  0.00  0.00    +0.000 HD
BRANCH  27  29
ATOM     29  O   UNL     1      -5.555  17.431  19.459  0.00  0.00    +0.000 OA
ATOM     30  H   UNL     1      -5.457  17.719  18.524  0.00  0.00    +0.000 HD
ENDBRANCH  27  29
ENDBRANCH  24  25
BRANCH  24  32
ATOM     31  C   UNL     1      -7.162  11.965  18.016  0.00  0.00    +0.000 C 
ATOM     32  C   UNL     1      -6.110  13.064  18.112  0.00  0.00    +0.000 C 
BRANCH  32  33
ATOM     33  O   UNL     1      -6.376  14.077  17.131  0.00  0.00    +0.000 OA
ATOM     34  H   UNL     1      -7.304  14.364  17.268  0.00  0.00    +0.000 HD
ENDBRANCH  32  33
ENDBRANCH  24  32
ENDBRANCH   1  24
TORSDOF 8
ENDMDL
MODEL 3
REMARK VINA RESULT:      -7.4      0.674      1.409
REMARK  Name = 
REMARK  9 active torsions:
REMARK  status: ('A' for Active; 'I' for Inactive)
REMARK    1  A    between atoms: C_1  and  C_2
REMARK    2  A    between atoms: C_2  and  O_3
REMARK    3  A    between atoms: C_2  and  C_4
REMARK    4  A    between atoms: C_4  and  N_5
REMARK    5  A    between atoms: C_4  and  C_27
REMARK    6  A    between atoms: C_11  and  C_12
REMARK    7  A    between atoms: C_15  and  C_16
REMARK    8  A    between atoms: C_17  and  C_18
REMARK    9  A    between atoms: N_29  and  O_30
REMARK                            x       y       z     vdW  Elec       q    Type
REMARK                         _______ _______ _______ _____ _____    ______ ____
ROOT
ATOM      1  N   UNL     1      -5.214  12.942  19.874  0.00  0.00    +0.000 N 
ATOM      2  C   UNL     1      -5.047  12.666  21.199  0.00  0.00    +0.000 C 
ATOM      3  O   UNL     1      -6.006  12.476  21.942  0.00  0.00    +0.000 OA
ATOM      4  N   UNL     1      -3.738  12.637  21.616  0.00  0.00    +0.000 N 
ATOM      5  C   UNL     1      -3.376  12.351  22.991  0.00  0.00    +0.000 C 
ATOM      6  C   UNL     1      -1.897  12.701  23.078  0.00  0.00    +0.000 C 
ATOM      7  C   UNL     1      -1.346  12.453  21.665  0.00  0.00    +0.000 C 
ATOM      8  C   UNL     1      -2.564  12.636  20.751  0.00  0.00    +0.000 C 
ATOM      9  H   UNL     1      -4.439  13.329  19.355  0.00  0.00    +0.000 HD
ENDROOT
BRANCH   7  10
ATOM     10  C   UNL     1      -0.673  11.106  21.491  0.00  0.00    +0.000 A 
ATOM     11  C   UNL     1      -0.542  10.199  22.554  0.00  0.00    +0.000 A 
ATOM     12  C   UNL     1       0.104   8.978  22.375  0.00  0.00    +0.000 A 
ATOM     13  C   UNL     1       0.610   8.637  21.126  0.00  0.00    +0.000 A 
ATOM     14  C   UNL     1       0.471   9.512  20.050  0.00  0.00    +0.000 A 
ATOM     15  C   UNL     1      -0.165  10.742  20.235  0.00  0.00    +0.000 A 
BRANCH  13  16
ATOM     16  C   UNL     1       1.295   7.404  20.965  0.00  0.00    +0.000 C 
ATOM     17  C   UNL     1       1.866   6.360  20.787  0.00  0.00    +0.000 C 
BRANCH  17  18
ATOM     18  C   UNL     1       2.521   5.112  20.542  0.00  0.00    +0.000 A 
ATOM     19  C   UNL     1       3.533   5.021  19.579  0.00  0.00    +0.000 A 
ATOM     20  C   UNL     1       4.155   3.794  19.329  0.00  0.00    +0.000 A 
ATOM     21  C   UNL     1       3.770   2.659  20.042  0.00  0.00    +0.000 A 
ATOM     22  C   UNL     1       2.764   2.747  21.005  0.00  0.00    +0.000 A 
ATOM     23  C   UNL     1       2.141   3.973  21.253  0.00  0.00    +0.000 A 
ENDBRANCH  17  18
ENDBRANCH  13  16
ENDBRANCH   7  10
BRANCH   1  24
ATOM     24  C   UNL     1      -6.515  13.006  19.200  0.00  0.00    +0.000 C 
BRANCH  24  25
ATOM     25  C   UNL     1      -6.760  14.416  18.627  0.00  0.00    +0.000 C 
ATOM     26  O   UNL     1      -6.796  14.669  17.419  0.00  0.00    +0.000 OA
ATOM     27  N   UNL     1      -6.999  15.399  19.551  0.00  0.00    +0.000 N 
ATOM     28  H   UNL     1      -7.058  15.240  20.558  0.00  0.00    +0.000 HD
BRANCH  27  29
ATOM     29  O   UNL     1      -7.334  16.673  19.043  0.00  0.00    +0.000 OA
ATOM     30  H   UNL     1      -6.452  17.092  18.937  0.00  0.00    +0.000 HD
ENDBRANCH  27  29
ENDBRANCH  24  25
BRANCH  24  32
ATOM     31  C   UNL     1      -5.151  11.520  17.587  0.00  0.00    +0.000 C 
ATOM     32  C   UNL     1      -6.531  11.944  18.077  0.00  0.00    +0.000 C 
BRANCH  32  33
ATOM     33  O   UNL     1      -7.277  10.788  18.487  0.00  0.00    +0.000 OA
ATOM     34  H   UNL     1      -7.525  10.309  17.668  0.00  0.00    +0.000 HD
ENDBRANCH  32  33
ENDBRANCH  24  32
ENDBRANCH   1  24
TORSDOF 8
ENDMDL
MODEL 4
REMARK VINA RESULT:      -7.3      1.261      1.326
REMARK  Name = 
REMARK  9 active torsions:
REMARK  status: ('A' for Active; 'I' for Inactive)
REMARK    1  A    between atoms: C_1  and  C_2
REMARK    2  A    between atoms: C_2  and  O_3
REMARK    3  A    between atoms: C_2  and  C_4
REMARK    4  A    between atoms: C_4  and  N_5
REMARK    5  A    between atoms: C_4  and  C_27
REMARK    6  A    between atoms: C_11  and  C_12
REMARK    7  A    between atoms: C_15  and  C_16
REMARK    8  A    between atoms: C_17  and  C_18
REMARK    9  A    between atoms: N_29  and  O_30
REMARK                            x       y       z     vdW  Elec       q    Type
REMARK                         _______ _______ _______ _____ _____    ______ ____
ROOT
ATOM      1  N   UNL     1      -4.754  13.312  20.024  0.00  0.00    +0.000 N 
ATOM      2  C   UNL     1      -4.520  12.764  21.250  0.00  0.00    +0.000 C 
ATOM      3  O   UNL     1      -5.438  12.374  21.966  0.00  0.00    +0.000 OA
ATOM      4  N   UNL     1      -3.194  12.704  21.605  0.00  0.00    +0.000 N 
ATOM      5  C   UNL     1      -2.763  12.143  22.872  0.00  0.00    +0.000 C 
ATOM      6  C   UNL     1      -1.295  12.532  22.983  0.00  0.00    +0.000 C 
ATOM      7  C   UNL     1      -0.798  12.621  21.531  0.00  0.00    +0.000 C 
ATOM      8  C   UNL     1      -2.060  12.942  20.721  0.00  0.00    +0.000 C 
ATOM      9  H   UNL     1      -4.017  13.836  19.575  0.00  0.00    +0.000 HD
ENDROOT
BRANCH   7  10
ATOM     10  C   UNL     1      -0.084  11.375  21.045  0.00  0.00    +0.000 A 
ATOM     11  C   UNL     1       0.240  11.184  19.693  0.00  0.00    +0.000 A 
ATOM     12  C   UNL     1       0.873  10.018  19.268  0.00  0.00    +0.000 A 
ATOM     13  C   UNL     1       1.210   9.034  20.192  0.00  0.00    +0.000 A 
ATOM     14  C   UNL     1       0.918   9.213  21.544  0.00  0.00    +0.000 A 
ATOM     15  C   UNL     1       0.272  10.376  21.965  0.00  0.00    +0.000 A 
BRANCH  13  16
ATOM     16  C   UNL     1       1.825   7.837  19.742  0.00  0.00    +0.000 C 
ATOM     17  C   UNL     1       2.382   6.844  19.354  0.00  0.00    +0.000 C 
BRANCH  17  18
ATOM     18  C   UNL     1       3.071   5.687  18.871  0.00  0.00    +0.000 A 
ATOM     19  C   UNL     1       2.502   4.891  17.869  0.00  0.00    +0.000 A 
ATOM     20  C   UNL     1       3.171   3.750  17.416  0.00  0.00    +0.000 A 
ATOM     21  C   UNL     1       4.408   3.405  17.959  0.00  0.00    +0.000 A 
ATOM     22  C   UNL     1       4.980   4.199  18.955  0.00  0.00    +0.000 A 
ATOM     23  C   UNL     1       4.310   5.338  19.409  0.00  0.00    +0.000 A 
ENDBRANCH  17  18
ENDBRANCH  13  16
ENDBRANCH   7  10
BRANCH   1  24
ATOM     24  C   UNL     1      -6.084  13.463  19.425  0.00  0.00    +0.000 C 
BRANCH  24  25
ATOM     25  C   UNL     1      -6.457  14.953  19.298  0.00  0.00    +0.000 C 
ATOM     26  O   UNL     1      -6.757  15.669  20.257  0.00  0.00    +0.000 OA
ATOM     27  N   UNL     1      -6.382  15.477  18.034  0.00  0.00    +0.000 N 
ATOM     28  H   UNL     1      -6.067  14.958  17.213  0.00  0.00    +0.000 HD
BRANCH  27  29
ATOM     29  O   UNL     1      -6.611  16.865  17.913  0.00  0.00    +0.000 OA
ATOM     30  H   UNL     1      -7.567  16.898  17.685  0.00  0.00    +0.000 HD
ENDBRANCH  27  29
ENDBRANCH  24  25
BRANCH  24  32
ATOM     31  C   UNL     1      -5.347  11.437  18.002  0.00  0.00    +0.000 C 
ATOM     32  C   UNL     1      -6.071  12.777  18.038  0.00  0.00    +0.000 C 
BRANCH  32  33
ATOM     33  O   UNL     1      -7.409  12.620  17.542  0.00  0.00    +0.000 OA
ATOM     34  H   UNL     1      -7.814  11.888  18.054  0.00  0.00    +0.000 HD
ENDBRANCH  32  33
ENDBRANCH  24  32
ENDBRANCH   1  24
TORSDOF 8
ENDMDL
MODEL 5
REMARK VINA RESULT:      -7.3      1.122      1.438
REMARK  Name = 
REMARK  9 active torsions:
REMARK  status: ('A' for Active; 'I' for Inactive)
REMARK    1  A    between atoms: C_1  and  C_2
REMARK    2  A    between atoms: C_2  and  O_3
REMARK    3  A    between atoms: C_2  and  C_4
REMARK    4  A    between atoms: C_4  and  N_5
REMARK    5  A    between atoms: C_4  and  C_27
REMARK    6  A    between atoms: C_11  and  C_12
REMARK    7  A    between atoms: C_15  and  C_16
REMARK    8  A    between atoms: C_17  and  C_18
REMARK    9  A    between atoms: N_29  and  O_30
REMARK                            x       y       z     vdW  Elec       q    Type
REMARK                         _______ _______ _______ _____ _____    ______ ____
ROOT
ATOM      1  N   UNL     1      -4.787  13.334  20.000  0.00  0.00    +0.000 N 
ATOM      2  C   UNL     1      -4.590  12.799  21.239  0.00  0.00    +0.000 C 
ATOM      3  O   UNL     1      -5.531  12.442  21.942  0.00  0.00    +0.000 OA
ATOM      4  N   UNL     1      -3.272  12.712  21.620  0.00  0.00    +0.000 N 
ATOM      5  C   UNL     1      -2.880  12.160  22.903  0.00  0.00    +0.000 C 
ATOM      6  C   UNL     1      -1.405  12.515  23.036  0.00  0.00    +0.000 C 
ATOM      7  C   UNL     1      -0.878  12.570  21.593  0.00  0.00    +0.000 C 
ATOM      8  C   UNL     1      -2.116  12.909  20.755  0.00  0.00    +0.000 C 
ATOM      9  H   UNL     1      -4.029  13.833  19.559  0.00  0.00    +0.000 HD
ENDROOT
BRANCH   7  10
ATOM     10  C   UNL     1      -0.186  11.300  21.140  0.00  0.00    +0.000 A 
ATOM     11  C   UNL     1       0.118  10.260  22.032  0.00  0.00    +0.000 A 
ATOM     12  C   UNL     1       0.778   9.114  21.594  0.00  0.00    +0.000 A 
ATOM     13  C   UNL     1       1.125   8.981  20.254  0.00  0.00    +0.000 A 
ATOM     14  C   UNL     1       0.812   9.991  19.346  0.00  0.00    +0.000 A 
ATOM     15  C   UNL     1       0.163  11.145  19.789  0.00  0.00    +0.000 A 
BRANCH  13  16
ATOM     16  C   UNL     1       1.825   7.822  19.828  0.00  0.00    +0.000 C 
ATOM     17  C   UNL     1       2.394   6.839  19.433  0.00  0.00    +0.000 C 
BRANCH  17  18
ATOM     18  C   UNL     1       3.035   5.658  18.942  0.00  0.00    +0.000 A 
ATOM     19  C   UNL     1       2.389   4.836  18.011  0.00  0.00    +0.000 A 
ATOM     20  C   UNL     1       3.012   3.672  17.551  0.00  0.00    +0.000 A 
ATOM     21  C   UNL     1       4.281   3.330  18.017  0.00  0.00    +0.000 A 
ATOM     22  C   UNL     1       4.930   4.149  18.942  0.00  0.00    +0.000 A 
ATOM     23  C   UNL     1       4.306   5.311  19.403  0.00  0.00    +0.000 A 
ENDBRANCH  17  18
ENDBRANCH  13  16
ENDBRANCH   7  10
BRANCH   1  24
ATOM     24  C   UNL     1      -6.101  13.507  19.374  0.00  0.00    +0.000 C 
BRANCH  24  25
ATOM     25  C   UNL     1      -6.441  15.005  19.230  0.00  0.00    +0.000 C 
ATOM     26  O   UNL     1      -7.592  15.442  19.149  0.00  0.00    +0.000 OA
ATOM     27  N   UNL     1      -5.370  15.859  19.252  0.00  0.00    +0.000 N 
ATOM     28  H   UNL     1      -4.402  15.567  19.392  0.00  0.00    +0.000 HD
BRANCH  27  29
ATOM     29  O   UNL     1      -5.667  17.240  19.232  0.00  0.00    +0.000 OA
ATOM     30  H   UNL     1      -5.144  17.553  18.461  0.00  0.00    +0.000 HD
ENDBRANCH  27  29
ENDBRANCH  24  25
BRANCH  24  32
ATOM     31  C   UNL     1      -5.822  11.311  18.045  0.00  0.00    +0.000 C 
ATOM     32  C   UNL     1      -6.075  12.812  17.992  0.00  0.00    +0.000 C 
BRANCH  32  33
ATOM     33  O   UNL     1      -7.289  13.075  17.273  0.00  0.00    +0.000 OA
ATOM     34  H   UNL     1      -7.073  12.996  16.320  0.00  0.00    +0.000 HD
ENDBRANCH  32  33
ENDBRANCH  24  32
ENDBRANCH   1  24
TORSDOF 8
ENDMDL
MODEL 6
REMARK VINA RESULT:      -7.2      1.528      2.109
REMARK  Name = 
REMARK  9 active torsions:
REMARK  status: ('A' for Active; 'I' for Inactive)
REMARK    1  A    between atoms: C_1  and  C_2
REMARK    2  A    between atoms: C_2  and  O_3
REMARK    3  A    between atoms: C_2  and  C_4
REMARK    4  A    between atoms: C_4  and  N_5
REMARK    5  A    between atoms: C_4  and  C_27
REMARK    6  A    between atoms: C_11  and  C_12
REMARK    7  A    between atoms: C_15  and  C_16
REMARK    8  A    between atoms: C_17  and  C_18
REMARK    9  A    between atoms: N_29  and  O_30
REMARK                            x       y       z     vdW  Elec       q    Type
REMARK                         _______ _______ _______ _____ _____    ______ ____
ROOT
ATOM      1  N   UNL     1      -4.744  13.324  19.838  0.00  0.00    +0.000 N 
ATOM      2  C   UNL     1      -4.436  12.724  21.023  0.00  0.00    +0.000 C 
ATOM      3  O   UNL     1      -5.309  12.291  21.771  0.00  0.00    +0.000 OA
ATOM      4  N   UNL     1      -3.092  12.662  21.301  0.00  0.00    +0.000 N 
ATOM      5  C   UNL     1      -2.586  12.050  22.515  0.00  0.00    +0.000 C 
ATOM      6  C   UNL     1      -1.117  12.450  22.561  0.00  0.00    +0.000 C 
ATOM      7  C   UNL     1      -0.703  12.610  21.089  0.00  0.00    +0.000 C 
ATOM      8  C   UNL     1      -2.011  12.953  20.367  0.00  0.00    +0.000 C 
ATOM      9  H   UNL     1      -4.037  13.876  19.374  0.00  0.00    +0.000 HD
ENDROOT
BRANCH   7  10
ATOM     10  C   UNL     1      -0.007  11.395  20.508  0.00  0.00    +0.000 A 
ATOM     11  C   UNL     1       0.603  10.428  21.322  0.00  0.00    +0.000 A 
ATOM     12  C   UNL     1       1.258   9.334  20.762  0.00  0.00    +0.000 A 
ATOM     13  C   UNL     1       1.297   9.180  19.380  0.00  0.00    +0.000 A 
ATOM     14  C   UNL     1       0.678  10.116  18.553  0.00  0.00    +0.000 A 
ATOM     15  C   UNL     1       0.033  11.219  19.115  0.00  0.00    +0.000 A 
BRANCH  13  16
ATOM     16  C   UNL     1       1.995   8.078  18.821  0.00  0.00    +0.000 C 
ATOM     17  C   UNL     1       2.554   7.122  18.353  0.00  0.00    +0.000 C 
BRANCH  17  18
ATOM     18  C   UNL     1       3.191   5.958  17.817  0.00  0.00    +0.000 A 
ATOM     19  C   UNL     1       4.468   6.048  17.250  0.00  0.00    +0.000 A 
ATOM     20  C   UNL     1       5.077   4.911  16.709  0.00  0.00    +0.000 A 
ATOM     21  C   UNL     1       4.413   3.685  16.736  0.00  0.00    +0.000 A 
ATOM     22  C   UNL     1       3.142   3.591  17.304  0.00  0.00    +0.000 A 
ATOM     23  C   UNL     1       2.533   4.728  17.843  0.00  0.00    +0.000 A 
ENDBRANCH  17  18
ENDBRANCH  13  16
ENDBRANCH   7  10
BRANCH   1  24
ATOM     24  C   UNL     1      -6.106  13.486  19.322  0.00  0.00    +0.000 C 
BRANCH  24  25
ATOM     25  C   UNL     1      -6.478  14.980  19.230  0.00  0.00    +0.000 C 
ATOM     26  O   UNL     1      -7.639  15.400  19.244  0.00  0.00    +0.000 OA
ATOM     27  N   UNL     1      -5.422  15.851  19.186  0.00  0.00    +0.000 N 
ATOM     28  H   UNL     1      -4.441  15.572  19.248  0.00  0.00    +0.000 HD
BRANCH  27  29
ATOM     29  O   UNL     1      -5.739  17.227  19.214  0.00  0.00    +0.000 OA
ATOM     30  H   UNL     1      -6.588  17.253  18.720  0.00  0.00    +0.000 HD
ENDBRANCH  27  29
ENDBRANCH  24  25
BRANCH  24  32
ATOM     31  C   UNL     1      -5.861  11.323  17.933  0.00  0.00    +0.000 C 
ATOM     32  C   UNL     1      -6.181  12.813  17.932  0.00  0.00    +0.000 C 
BRANCH  32  33
ATOM     33  O   UNL     1      -7.467  13.033  17.334  0.00  0.00    +0.000 OA
ATOM     34  H   UNL     1      -8.136  12.759  17.998  0.00  0.00    +0.000 HD
ENDBRANCH  32  33
ENDBRANCH  24  32
ENDBRANCH   1  24
TORSDOF 8
ENDMDL
MODEL 7
REMARK VINA RESULT:      -7.2      9.015     12.971
REMARK  Name = 
REMARK  9 active torsions:
REMARK  status: ('A' for Active; 'I' for Inactive)
REMARK    1  A    between atoms: C_1  and  C_2
REMARK    2  A    between atoms: C_2  and  O_3
REMARK    3  A    between atoms: C_2  and  C_4
REMARK    4  A    between atoms: C_4  and  N_5
REMARK    5  A    between atoms: C_4  and  C_27
REMARK    6  A    between atoms: C_11  and  C_12
REMARK    7  A    between atoms: C_15  and  C_16
REMARK    8  A    between atoms: C_17  and  C_18
REMARK    9  A    between atoms: N_29  and  O_30
REMARK                            x       y       z     vdW  Elec       q    Type
REMARK                         _______ _______ _______ _____ _____    ______ ____
ROOT
ATOM      1  N   UNL     1       5.573   3.619  13.323  0.00  0.00    +0.000 N 
ATOM      2  C   UNL     1       6.487   4.376  13.994  0.00  0.00    +0.000 C 
ATOM      3  O   UNL     1       7.413   4.933  13.411  0.00  0.00    +0.000 OA
ATOM      4  N   UNL     1       6.288   4.441  15.353  0.00  0.00    +0.000 N 
ATOM      5  C   UNL     1       7.161   5.209  16.220  0.00  0.00    +0.000 C 
ATOM      6  C   UNL     1       6.771   4.782  17.629  0.00  0.00    +0.000 C 
ATOM      7  C   UNL     1       5.285   4.401  17.531  0.00  0.00    +0.000 C 
ATOM      8  C   UNL     1       5.099   3.991  16.065  0.00  0.00    +0.000 C 
ATOM      9  H   UNL     1       4.984   2.988  13.847  0.00  0.00    +0.000 HD
ENDROOT
BRANCH   7  10
ATOM     10  C   UNL     1       4.335   5.501  17.963  0.00  0.00    +0.000 A 
ATOM     11  C   UNL     1       3.566   5.401  19.133  0.00  0.00    +0.000 A 
ATOM     12  C   UNL     1       2.681   6.415  19.494  0.00  0.00    +0.000 A 
ATOM     13  C   UNL     1       2.568   7.553  18.703  0.00  0.00    +0.000 A 
ATOM     14  C   UNL     1       3.339   7.683  17.548  0.00  0.00    +0.000 A 
ATOM     15  C   UNL     1       4.215   6.660  17.180  0.00  0.00    +0.000 A 
BRANCH  13  16
ATOM     16  C   UNL     1       1.639   8.564  19.064  0.00  0.00    +0.000 C 
ATOM     17  C   UNL     1       0.841   9.422  19.331  0.00  0.00    +0.000 C 
BRANCH  17  18
ATOM     18  C   UNL     1      -0.108  10.456  19.608  0.00  0.00    +0.000 A 
ATOM     19  C   UNL     1      -0.194  11.015  20.889  0.00  0.00    +0.000 A 
ATOM     20  C   UNL     1      -1.137  12.011  21.159  0.00  0.00    +0.000 A 
ATOM     21  C   UNL     1      -1.994  12.451  20.150  0.00  0.00    +0.000 A 
ATOM     22  C   UNL     1      -1.909  11.900  18.871  0.00  0.00    +0.000 A 
ATOM     23  C   UNL     1      -0.967  10.903  18.602  0.00  0.00    +0.000 A 
ENDBRANCH  17  18
ENDBRANCH  13  16
ENDBRANCH   7  10
BRANCH   1  24
ATOM     24  C   UNL     1       5.571   3.419  11.871  0.00  0.00    +0.000 C 
BRANCH  24  25
ATOM     25  C   UNL     1       6.428   2.195  11.490  0.00  0.00    +0.000 C 
ATOM     26  O   UNL     1       7.595   2.271  11.093  0.00  0.00    +0.000 OA
ATOM     27  N   UNL     1       5.832   0.975  11.672  0.00  0.00    +0.000 N 
ATOM     28  H   UNL     1       4.900   0.842  12.068  0.00  0.00    +0.000 HD
BRANCH  27  29
ATOM     29  O   UNL     1       6.637  -0.161  11.435  0.00  0.00    +0.000 OA
ATOM     30  H   UNL     1       7.249  -0.145  12.204  0.00  0.00    +0.000 HD
ENDBRANCH  27  29
ENDBRANCH  24  25
BRANCH  24  32
ATOM     31  C   UNL     1       3.635   4.246  10.374  0.00  0.00    +0.000 C 
ATOM     32  C   UNL     1       4.107   3.232  11.409  0.00  0.00    +0.000 C 
BRANCH  32  33
ATOM     33  O   UNL     1       3.901   1.901  10.914  0.00  0.00    +0.000 OA
ATOM     34  H   UNL     1       4.432   1.304  11.484  0.00  0.00    +0.000 HD
ENDBRANCH  32  33
ENDBRANCH  24  32
ENDBRANCH   1  24
TORSDOF 8
ENDMDL
MODEL 8
REMARK VINA RESULT:      -7.1      2.051      2.425
REMARK  Name = 
REMARK  9 active torsions:
REMARK  status: ('A' for Active; 'I' for Inactive)
REMARK    1  A    between atoms: C_1  and  C_2
REMARK    2  A    between atoms: C_2  and  O_3
REMARK    3  A    between atoms: C_2  and  C_4
REMARK    4  A    between atoms: C_4  and  N_5
REMARK    5  A    between atoms: C_4  and  C_27
REMARK    6  A    between atoms: C_11  and  C_12
REMARK    7  A    between atoms: C_15  and  C_16
REMARK    8  A    between atoms: C_17  and  C_18
REMARK    9  A    between atoms: N_29  and  O_30
REMARK                            x       y       z     vdW  Elec       q    Type
REMARK                         _______ _______ _______ _____ _____    ______ ____
ROOT
ATOM      1  N   UNL     1      -5.262  12.642  22.300  0.00  0.00    +0.000 N 
ATOM      2  C   UNL     1      -4.277  12.832  23.223  0.00  0.00    +0.000 C 
ATOM      3  O   UNL     1      -4.528  12.932  24.421  0.00  0.00    +0.000 OA
ATOM      4  N   UNL     1      -3.009  12.913  22.698  0.00  0.00    +0.000 N 
ATOM      5  C   UNL     1      -1.842  13.106  23.537  0.00  0.00    +0.000 C 
ATOM      6  C   UNL     1      -0.718  13.426  22.560  0.00  0.00    +0.000 C 
ATOM      7  C   UNL     1      -1.100  12.695  21.263  0.00  0.00    +0.000 C 
ATOM      8  C   UNL     1      -2.628  12.585  21.330  0.00  0.00    +0.000 C 
ATOM      9  H   UNL     1      -5.055  12.807  21.326  0.00  0.00    +0.000 HD
ENDROOT
BRANCH   7  10
ATOM     10  C   UNL     1      -0.417  11.353  21.087  0.00  0.00    +0.000 A 
ATOM     11  C   UNL     1       0.112  10.945  19.853  0.00  0.00    +0.000 A 
ATOM     12  C   UNL     1       0.711   9.695  19.710  0.00  0.00    +0.000 A 
ATOM     13  C   UNL     1       0.809   8.844  20.805  0.00  0.00    +0.000 A 
ATOM     14  C   UNL     1       0.311   9.237  22.046  0.00  0.00    +0.000 A 
ATOM     15  C   UNL     1      -0.301  10.484  22.184  0.00  0.00    +0.000 A 
BRANCH  13  16
ATOM     16  C   UNL     1       1.393   7.560  20.640  0.00  0.00    +0.000 C 
ATOM     17  C   UNL     1       1.865   6.460  20.531  0.00  0.00    +0.000 C 
BRANCH  17  18
ATOM     18  C   UNL     1       2.418   5.143  20.444  0.00  0.00    +0.000 A 
ATOM     19  C   UNL     1       1.856   4.089  21.174  0.00  0.00    +0.000 A 
ATOM     20  C   UNL     1       2.413   2.809  21.100  0.00  0.00    +0.000 A 
ATOM     21  C   UNL     1       3.529   2.579  20.295  0.00  0.00    +0.000 A 
ATOM     22  C   UNL     1       4.089   3.627  19.563  0.00  0.00    +0.000 A 
ATOM     23  C   UNL     1       3.533   4.907  19.638  0.00  0.00    +0.000 A 
ENDBRANCH  17  18
ENDBRANCH  13  16
ENDBRANCH   7  10
BRANCH   1  24
ATOM     24  C   UNL     1      -6.685  12.506  22.625  0.00  0.00    +0.000 C 
BRANCH  24  25
ATOM     25  C   UNL     1      -7.309  13.884  22.920  0.00  0.00    +0.000 C 
ATOM     26  O   UNL     1      -7.891  14.163  23.973  0.00  0.00    +0.000 OA
ATOM     27  N   UNL     1      -7.133  14.834  21.948  0.00  0.00    +0.000 N 
ATOM     28  H   UNL     1      -6.598  14.689  21.091  0.00  0.00    +0.000 HD
BRANCH  27  29
ATOM     29  O   UNL     1      -7.601  16.133  22.246  0.00  0.00    +0.000 OA
ATOM     30  H   UNL     1      -8.435  16.176  21.729  0.00  0.00    +0.000 HD
ENDBRANCH  27  29
ENDBRANCH  24  25
BRANCH  24  32
ATOM     31  C   UNL     1      -6.530  11.687  20.181  0.00  0.00    +0.000 C 
ATOM     32  C   UNL     1      -7.392  11.825  21.430  0.00  0.00    +0.000 C 
BRANCH  32  33
ATOM     33  O   UNL     1      -7.901  10.539  21.812  0.00  0.00    +0.000 OA
ATOM     34  H   UNL     1      -7.250  10.153  22.436  0.00  0.00    +0.000 HD
ENDBRANCH  32  33
ENDBRANCH  24  32
ENDBRANCH   1  24
TORSDOF 8
ENDMDL
MODEL 9
REMARK VINA RESULT:      -7.1      1.793      2.402
REMARK  Name = 
REMARK  9 active torsions:
REMARK  status: ('A' for Active; 'I' for Inactive)
REMARK    1  A    between atoms: C_1  and  C_2
REMARK    2  A    between atoms: C_2  and  O_3
REMARK    3  A    between atoms: C_2  and  C_4
REMARK    4  A    between atoms: C_4  and  N_5
REMARK    5  A    between atoms: C_4  and  C_27
REMARK    6  A    between atoms: C_11  and  C_12
REMARK    7  A    between atoms: C_15  and  C_16
REMARK    8  A    between atoms: C_17  and  C_18
REMARK    9  A    between atoms: N_29  and  O_30
REMARK                            x       y       z     vdW  Elec       q    Type
REMARK                         _______ _______ _______ _____ _____    ______ ____
ROOT
ATOM      1  N   UNL     1      -4.052  12.658  19.264  0.00  0.00    +0.000 N 
ATOM      2  C   UNL     1      -3.340  12.642  20.427  0.00  0.00    +0.000 C 
ATOM      3  O   UNL     1      -3.896  12.686  21.521  0.00  0.00    +0.000 OA
ATOM      4  N   UNL     1      -1.977  12.586  20.262  0.00  0.00    +0.000 N 
ATOM      5  C   UNL     1      -1.068  12.553  21.392  0.00  0.00    +0.000 C 
ATOM      6  C   UNL     1       0.308  12.787  20.782  0.00  0.00    +0.000 C 
ATOM      7  C   UNL     1       0.214  12.213  19.359  0.00  0.00    +0.000 C 
ATOM      8  C   UNL     1      -1.277  12.311  19.013  0.00  0.00    +0.000 C 
ATOM      9  H   UNL     1      -3.570  12.865  18.401  0.00  0.00    +0.000 HD
ENDROOT
BRANCH   7  10
ATOM     10  C   UNL     1       0.762  10.807  19.222  0.00  0.00    +0.000 A 
ATOM     11  C   UNL     1       1.310  10.337  18.019  0.00  0.00    +0.000 A 
ATOM     12  C   UNL     1       1.784   9.031  17.911  0.00  0.00    +0.000 A 
ATOM     13  C   UNL     1       1.737   8.183  19.012  0.00  0.00    +0.000 A 
ATOM     14  C   UNL     1       1.218   8.636  20.225  0.00  0.00    +0.000 A 
ATOM     15  C   UNL     1       0.731   9.940  20.326  0.00  0.00    +0.000 A 
BRANCH  13  16
ATOM     16  C   UNL     1       2.193   6.845  18.881  0.00  0.00    +0.000 C 
ATOM     17  C   UNL     1       2.546   5.699  18.790  0.00  0.00    +0.000 C 
BRANCH  17  18
ATOM     18  C   UNL     1       2.942   4.326  18.716  0.00  0.00    +0.000 A 
ATOM     19  C   UNL     1       2.381   3.479  17.753  0.00  0.00    +0.000 A 
ATOM     20  C   UNL     1       2.757   2.133  17.699  0.00  0.00    +0.000 A 
ATOM     21  C   UNL     1       3.693   1.634  18.604  0.00  0.00    +0.000 A 
ATOM     22  C   UNL     1       4.257   2.477  19.562  0.00  0.00    +0.000 A 
ATOM     23  C   UNL     1       3.880   3.821  19.618  0.00  0.00    +0.000 A 
ENDBRANCH  17  18
ENDBRANCH  13  16
ENDBRANCH   7  10
BRANCH   1  24
ATOM     24  C   UNL     1      -5.516  12.695  19.190  0.00  0.00    +0.000 C 
BRANCH  24  25
ATOM     25  C   UNL     1      -5.978  13.064  17.766  0.00  0.00    +0.000 C 
ATOM     26  O   UNL     1      -5.562  12.509  16.745  0.00  0.00    +0.000 OA
ATOM     27  N   UNL     1      -6.946  14.029  17.689  0.00  0.00    +0.000 N 
ATOM     28  H   UNL     1      -7.386  14.471  18.498  0.00  0.00    +0.000 HD
BRANCH  27  29
ATOM     29  O   UNL     1      -7.463  14.303  16.403  0.00  0.00    +0.000 OA
ATOM     30  H   UNL     1      -7.128  13.541  15.880  0.00  0.00    +0.000 HD
ENDBRANCH  27  29
ENDBRANCH  24  25
BRANCH  24  32
ATOM     31  C   UNL     1      -7.147  11.344  20.668  0.00  0.00    +0.000 C 
ATOM     32  C   UNL     1      -6.057  11.307  19.604  0.00  0.00    +0.000 C 
BRANCH  32  33
ATOM     33  O   UNL     1      -6.525  10.586  18.454  0.00  0.00    +0.000 OA
ATOM     34  H   UNL     1      -5.756  10.486  17.853  0.00  0.00    +0.000 HD
ENDBRANCH  32  33
ENDBRANCH  24  32
ENDBRANCH   1  24
TORSDOF 8
ENDMDL
