MODEL 1
REMARK VINA RESULT:      -8.3      0.000      0.000
REMARK  Name = 
REMARK  21 active torsions:
REMARK  status: ('A' for Active; 'I' for Inactive)
REMARK    1  A    between atoms: C_1  and  N_2
REMARK    2  A    between atoms: N_2  and  C_3
REMARK    3  A    between atoms: C_3  and  C_4
REMARK    4  A    between atoms: C_3  and  C_24
REMARK    5  A    between atoms: N_6  and  C_7
REMARK    6  A    between atoms: C_7  and  C_8
REMARK    7  A    between atoms: C_7  and  C_20
REMARK    8  A    between atoms: N_10  and  C_11
REMARK    9  A    between atoms: N_10  and  C_12
REMARK   10  A    between atoms: C_12  and  C_13
REMARK   11  A    between atoms: C_12  and  C_14
REMARK   12  A    between atoms: C_15  and  C_16
REMARK   13  A    between atoms: C_15  and  C_17
REMARK   14  A    between atoms: C_17  and  O_19
REMARK   15  A    between atoms: C_20  and  C_21
REMARK   16  A    between atoms: C_20  and  C_22
REMARK   17  A    between atoms: C_20  and  C_23
REMARK   18  A    between atoms: C_24  and  C_25
REMARK   19  A    between atoms: C_24  and  C_26
REMARK   20  A    between atoms: C_24  and  C_27
REMARK   21  A    between atoms: N_29  and  C_30
REMARK                            x       y       z     vdW  Elec       q    Type
REMARK                         _______ _______ _______ _____ _____    ______ ____
ROOT
ATOM      1  C   UNL     1       2.103   6.779  20.164  0.00  0.00    +0.000 C 
ATOM      2  O   UNL     1       1.614   6.213  21.139  0.00  0.00    +0.000 OA
ATOM      3  N   UNL     1       2.724   6.046  19.178  0.00  0.00    +0.000 N 
ATOM      4  H   UNL     1       3.180   6.545  18.428  0.00  0.00    +0.000 HD
ENDROOT
BRANCH   1   5
ATOM      5  C   UNL     1       1.916   8.308  19.908  0.00  0.00    +0.000 C 
BRANCH   5   7
ATOM      6  C   UNL     1       2.414   9.353  17.705  0.00  0.00    +0.000 C 
ATOM      7  N   UNL     1       1.500   8.545  18.492  0.00  0.00    +0.000 NA
ATOM      8  H   UNL     1       1.372   7.638  18.045  0.00  0.00    +0.000 HD
ENDBRANCH   5   7
BRANCH   5   9
ATOM      9  C   UNL     1       0.859   8.925  20.935  0.00  0.00    +0.000 C 
ATOM     10  C   UNL     1      -0.360   7.980  21.107  0.00  0.00    +0.000 C 
ATOM     11  C   UNL     1       1.449   9.042  22.378  0.00  0.00    +0.000 C 
BRANCH   9  12
ATOM     12  C   UNL     1       0.365  10.292  20.417  0.00  0.00    +0.000 A 
ATOM     13  C   UNL     1       0.867  11.529  20.788  0.00  0.00    +0.000 A 
ATOM     14  N   UNL     1       0.271  12.500  20.037  0.00  0.00    +0.000 N 
ATOM     15  C   UNL     1       0.589  13.908  20.117  0.00  0.00    +0.000 C 
ATOM     16  C   UNL     1      -0.624  11.938  19.154  0.00  0.00    +0.000 A 
ATOM     17  C   UNL     1      -1.409  12.527  18.151  0.00  0.00    +0.000 A 
ATOM     18  C   UNL     1      -2.238  11.702  17.388  0.00  0.00    +0.000 A 
ATOM     19  C   UNL     1      -2.304  10.336  17.645  0.00  0.00    +0.000 A 
ATOM     20  C   UNL     1      -1.522   9.762  18.651  0.00  0.00    +0.000 A 
ATOM     21  C   UNL     1      -0.635  10.559  19.411  0.00  0.00    +0.000 A 
ENDBRANCH   9  12
ENDBRANCH   5   9
ENDBRANCH   1   5
BRANCH   3  22
ATOM     22  C   UNL     1       3.084   4.628  19.392  0.00  0.00    +0.000 C 
BRANCH  22  23
ATOM     23  C   UNL     1       4.622   4.357  19.196  0.00  0.00    +0.000 C 
ATOM     24  O   UNL     1       5.201   3.470  19.831  0.00  0.00    +0.000 OA
ATOM     25  N   UNL     1       5.345   5.154  18.300  0.00  0.00    +0.000 N 
ATOM     26  C   UNL     1       4.838   6.373  17.681  0.00  0.00    +0.000 C 
BRANCH  25  27
ATOM     27  C   UNL     1       6.766   4.790  18.097  0.00  0.00    +0.000 C 
ATOM     28  C   UNL     1       7.701   5.671  18.933  0.00  0.00    +0.000 C 
BRANCH  27  29
ATOM     29  C   UNL     1       7.110   4.849  16.632  0.00  0.00    +0.000 C 
ATOM     30  C   UNL     1       6.496   4.192  15.629  0.00  0.00    +0.000 C 
ATOM     31  C   UNL     1       5.403   3.181  15.821  0.00  0.00    +0.000 C 
BRANCH  30  32
ATOM     32  C   UNL     1       6.959   4.530  14.256  0.00  0.00    +0.000 C 
ATOM     33  O   UNL     1       7.645   5.505  13.990  0.00  0.00    +0.000 OA
BRANCH  32  34
ATOM     34  O   UNL     1       6.507   3.692  13.302  0.00  0.00    +0.000 OA
ATOM     35  H   UNL     1       6.119   4.113  12.516  0.00  0.00    +0.000 HD
ENDBRANCH  32  34
ENDBRANCH  30  32
ENDBRANCH  27  29
ENDBRANCH  25  27
ENDBRANCH  22  23
BRANCH  22  36
ATOM     36  C   UNL     1       2.134   3.595  18.679  0.00  0.00    +0.000 C 
ATOM     37  C   UNL     1       1.026   3.168  19.672  0.00  0.00    +0.000 C 
ATOM     38  C   UNL     1       1.429   4.268  17.478  0.00  0.00    +0.000 C 
ATOM     39  C   UNL     1       2.833   2.332  18.151  0.00  0.00    +0.000 C 
ENDBRANCH  22  36
ENDBRANCH   3  22
TORSDOF 11
ENDMDL
MODEL 2
REMARK VINA RESULT:      -8.0      1.647      2.403
REMARK  Name = 
REMARK  21 active torsions:
REMARK  status: ('A' for Active; 'I' for Inactive)
REMARK    1  A    between atoms: C_1  and  N_2
REMARK    2  A    between atoms: N_2  and  C_3
REMARK    3  A    between atoms: C_3  and  C_4
REMARK    4  A    between atoms: C_3  and  C_24
REMARK    5  A    between atoms: N_6  and  C_7
REMARK    6  A    between atoms: C_7  and  C_8
REMARK    7  A    between atoms: C_7  and  C_20
REMARK    8  A    between atoms: N_10  and  C_11
REMARK    9  A    between atoms: N_10  and  C_12
REMARK   10  A    between atoms: C_12  and  C_13
REMARK   11  A    between atoms: C_12  and  C_14
REMARK   12  A    between atoms: C_15  and  C_16
REMARK   13  A    between atoms: C_15  and  C_17
REMARK   14  A    between atoms: C_17  and  O_19
REMARK   15  A    between atoms: C_20  and  C_21
REMARK   16  A    between atoms: C_20  and  C_22
REMARK   17  A    between atoms: C_20  and  C_23
REMARK   18  A    between atoms: C_24  and  C_25
REMARK   19  A    between atoms: C_24  and  C_26
REMARK   20  A    between atoms: C_24  and  C_27
REMARK   21  A    between atoms: N_29  and  C_30
REMARK                            x       y       z     vdW  Elec       q    Type
REMARK                         _______ _______ _______ _____ _____    ______ ____
ROOT
ATOM      1  C   UNL     1       1.925   7.807  20.115  0.00  0.00    +0.000 C 
ATOM      2  O   UNL     1       1.612   7.308  21.194  0.00  0.00    +0.000 OA
ATOM      3  N   UNL     1       2.539   7.041  19.150  0.00  0.00    +0.000 N 
ATOM      4  H   UNL     1       2.850   7.497  18.305  0.00  0.00    +0.000 HD
ENDROOT
BRANCH   1   5
ATOM      5  C   UNL     1       1.514   9.260  19.719  0.00  0.00    +0.000 C 
BRANCH   5   7
ATOM      6  C   UNL     1       2.274  10.374  17.628  0.00  0.00    +0.000 C 
ATOM      7  N   UNL     1       1.408   9.379  18.233  0.00  0.00    +0.000 NA
ATOM      8  H   UNL     1       1.604   8.463  17.829  0.00  0.00    +0.000 HD
ENDBRANCH   5   7
BRANCH   5   9
ATOM      9  C   UNL     1       0.144   9.671  20.433  0.00  0.00    +0.000 C 
ATOM     10  C   UNL     1      -1.034   9.643  19.425  0.00  0.00    +0.000 C 
ATOM     11  C   UNL     1      -0.274   8.638  21.529  0.00  0.00    +0.000 C 
BRANCH   9  12
ATOM     12  C   UNL     1       0.269  11.093  21.020  0.00  0.00    +0.000 A 
ATOM     13  C   UNL     1       1.241  12.024  20.691  0.00  0.00    +0.000 A 
ATOM     14  N   UNL     1       0.962  13.206  21.314  0.00  0.00    +0.000 N 
ATOM     15  C   UNL     1       1.736  14.417  21.158  0.00  0.00    +0.000 C 
ATOM     16  C   UNL     1      -0.191  13.092  22.058  0.00  0.00    +0.000 A 
ATOM     17  C   UNL     1      -0.894  14.050  22.804  0.00  0.00    +0.000 A 
ATOM     18  C   UNL     1      -2.059  13.652  23.465  0.00  0.00    +0.000 A 
ATOM     19  C   UNL     1      -2.485  12.328  23.408  0.00  0.00    +0.000 A 
ATOM     20  C   UNL     1      -1.772  11.382  22.667  0.00  0.00    +0.000 A 
ATOM     21  C   UNL     1      -0.617  11.760  21.945  0.00  0.00    +0.000 A 
ENDBRANCH   9  12
ENDBRANCH   5   9
ENDBRANCH   1   5
BRANCH   3  22
ATOM     22  C   UNL     1       3.102   5.712  19.473  0.00  0.00    +0.000 C 
BRANCH  22  23
ATOM     23  C   UNL     1       4.630   5.598  19.113  0.00  0.00    +0.000 C 
ATOM     24  O   UNL     1       5.426   5.041  19.875  0.00  0.00    +0.000 OA
ATOM     25  N   UNL     1       5.093   6.161  17.918  0.00  0.00    +0.000 N 
ATOM     26  C   UNL     1       4.310   7.046  17.062  0.00  0.00    +0.000 C 
BRANCH  25  27
ATOM     27  C   UNL     1       6.521   5.943  17.598  0.00  0.00    +0.000 C 
ATOM     28  C   UNL     1       7.383   7.145  18.002  0.00  0.00    +0.000 C 
BRANCH  27  29
ATOM     29  C   UNL     1       6.680   5.613  16.137  0.00  0.00    +0.000 C 
ATOM     30  C   UNL     1       6.262   4.496  15.510  0.00  0.00    +0.000 C 
ATOM     31  C   UNL     1       5.646   3.315  16.201  0.00  0.00    +0.000 C 
BRANCH  30  32
ATOM     32  C   UNL     1       6.436   4.482  14.032  0.00  0.00    +0.000 C 
ATOM     33  O   UNL     1       5.771   3.792  13.276  0.00  0.00    +0.000 OA
BRANCH  32  34
ATOM     34  O   UNL     1       7.444   5.261  13.590  0.00  0.00    +0.000 OA
ATOM     35  H   UNL     1       8.046   5.605  14.271  0.00  0.00    +0.000 HD
ENDBRANCH  32  34
ENDBRANCH  30  32
ENDBRANCH  27  29
ENDBRANCH  25  27
ENDBRANCH  22  23
BRANCH  22  36
ATOM     36  C   UNL     1       2.220   4.495  19.006  0.00  0.00    +0.000 C 
ATOM     37  C   UNL     1       3.121   3.241  18.892  0.00  0.00    +0.000 C 
ATOM     38  C   UNL     1       1.144   4.182  20.071  0.00  0.00    +0.000 C 
ATOM     39  C   UNL     1       1.494   4.700  17.667  0.00  0.00    +0.000 C 
ENDBRANCH  22  36
ENDBRANCH   3  22
TORSDOF 11
ENDMDL
MODEL 3
REMARK VINA RESULT:      -7.4      6.516     11.184
REMARK  Name = 
REMARK  21 active torsions:
REMARK  status: ('A' for Active; 'I' for Inactive)
REMARK    1  A    between atoms: C_1  and  N_2
REMARK    2  A    between atoms: N_2  and  C_3
REMARK    3  A    between atoms: C_3  and  C_4
REMARK    4  A    between atoms: C_3  and  C_24
REMARK    5  A    between atoms: N_6  and  C_7
REMARK    6  A    between atoms: C_7  and  C_8
REMARK    7  A    between atoms: C_7  and  C_20
REMARK    8  A    between atoms: N_10  and  C_11
REMARK    9  A    between atoms: N_10  and  C_12
REMARK   10  A    between atoms: C_12  and  C_13
REMARK   11  A    between atoms: C_12  and  C_14
REMARK   12  A    between atoms: C_15  and  C_16
REMARK   13  A    between atoms: C_15  and  C_17
REMARK   14  A    between atoms: C_17  and  O_19
REMARK   15  A    between atoms: C_20  and  C_21
REMARK   16  A    between atoms: C_20  and  C_22
REMARK   17  A    between atoms: C_20  and  C_23
REMARK   18  A    between atoms: C_24  and  C_25
REMARK   19  A    between atoms: C_24  and  C_26
REMARK   20  A    between atoms: C_24  and  C_27
REMARK   21  A    between atoms: N_29  and  C_30
REMARK                            x       y       z     vdW  Elec       q    Type
REMARK                         _______ _______ _______ _____ _____    ______ ____
ROOT
ATOM      1  C   UNL     1       0.483  13.790  19.906  0.00  0.00    +0.000 C 
ATOM      2  O   UNL     1       1.409  14.064  20.666  0.00  0.00    +0.000 OA
ATOM      3  N   UNL     1      -0.360  14.781  19.456  0.00  0.00    +0.000 N 
ATOM      4  H   UNL     1      -1.154  14.513  18.894  0.00  0.00    +0.000 HD
ENDROOT
BRANCH   1   5
ATOM      5  C   UNL     1       0.304  12.366  19.292  0.00  0.00    +0.000 C 
BRANCH   5   7
ATOM      6  C   UNL     1       2.412  11.957  18.035  0.00  0.00    +0.000 C 
ATOM      7  N   UNL     1       1.623  11.668  19.218  0.00  0.00    +0.000 NA
ATOM      8  H   UNL     1       2.155  11.911  20.053  0.00  0.00    +0.000 HD
ENDBRANCH   5   7
BRANCH   5   9
ATOM      9  C   UNL     1      -0.756  11.518  20.136  0.00  0.00    +0.000 C 
ATOM     10  C   UNL     1      -0.332  10.028  20.218  0.00  0.00    +0.000 C 
ATOM     11  C   UNL     1      -0.810  11.976  21.630  0.00  0.00    +0.000 C 
BRANCH   9  12
ATOM     12  C   UNL     1      -2.145  11.608  19.470  0.00  0.00    +0.000 A 
ATOM     13  C   UNL     1      -3.243  12.288  19.973  0.00  0.00    +0.000 A 
ATOM     14  N   UNL     1      -4.254  12.250  19.058  0.00  0.00    +0.000 N 
ATOM     15  C   UNL     1      -5.534  12.901  19.223  0.00  0.00    +0.000 C 
ATOM     16  C   UNL     1      -3.856  11.558  17.936  0.00  0.00    +0.000 A 
ATOM     17  C   UNL     1      -4.523  11.322  16.724  0.00  0.00    +0.000 A 
ATOM     18  C   UNL     1      -3.866  10.581  15.739  0.00  0.00    +0.000 A 
ATOM     19  C   UNL     1      -2.595  10.064  15.974  0.00  0.00    +0.000 A 
ATOM     20  C   UNL     1      -1.944  10.301  17.188  0.00  0.00    +0.000 A 
ATOM     21  C   UNL     1      -2.558  11.089  18.189  0.00  0.00    +0.000 A 
ENDBRANCH   9  12
ENDBRANCH   5   9
ENDBRANCH   1   5
BRANCH   3  22
ATOM     22  C   UNL     1      -0.371  16.119  20.085  0.00  0.00    +0.000 C 
BRANCH  22  23
ATOM     23  C   UNL     1      -1.744  16.448  20.783  0.00  0.00    +0.000 C 
ATOM     24  O   UNL     1      -2.751  16.711  20.119  0.00  0.00    +0.000 OA
ATOM     25  N   UNL     1      -1.811  16.465  22.181  0.00  0.00    +0.000 N 
ATOM     26  C   UNL     1      -0.652  16.412  23.066  0.00  0.00    +0.000 C 
BRANCH  25  27
ATOM     27  C   UNL     1      -3.148  16.695  22.772  0.00  0.00    +0.000 C 
ATOM     28  C   UNL     1      -3.055  17.417  24.120  0.00  0.00    +0.000 C 
BRANCH  27  29
ATOM     29  C   UNL     1      -3.892  15.391  22.891  0.00  0.00    +0.000 C 
ATOM     30  C   UNL     1      -3.840  14.519  23.917  0.00  0.00    +0.000 C 
ATOM     31  C   UNL     1      -2.923  14.653  25.098  0.00  0.00    +0.000 C 
BRANCH  30  32
ATOM     32  C   UNL     1      -4.775  13.366  23.833  0.00  0.00    +0.000 C 
ATOM     33  O   UNL     1      -4.500  12.304  23.297  0.00  0.00    +0.000 OA
BRANCH  32  34
ATOM     34  O   UNL     1      -5.995  13.608  24.354  0.00  0.00    +0.000 OA
ATOM     35  H   UNL     1      -6.675  13.905  23.725  0.00  0.00    +0.000 HD
ENDBRANCH  32  34
ENDBRANCH  30  32
ENDBRANCH  27  29
ENDBRANCH  25  27
ENDBRANCH  22  23
BRANCH  22  36
ATOM     36  C   UNL     1       0.207  17.272  19.185  0.00  0.00    +0.000 C 
ATOM     37  C   UNL     1      -0.635  17.363  17.889  0.00  0.00    +0.000 C 
ATOM     38  C   UNL     1       0.065  18.631  19.911  0.00  0.00    +0.000 C 
ATOM     39  C   UNL     1       1.686  17.111  18.799  0.00  0.00    +0.000 C 
ENDBRANCH  22  36
ENDBRANCH   3  22
TORSDOF 11
ENDMDL
MODEL 4
REMARK VINA RESULT:      -7.4      6.929     11.461
REMARK  Name = 
REMARK  21 active torsions:
REMARK  status: ('A' for Active; 'I' for Inactive)
REMARK    1  A    between atoms: C_1  and  N_2
REMARK    2  A    between atoms: N_2  and  C_3
REMARK    3  A    between atoms: C_3  and  C_4
REMARK    4  A    between atoms: C_3  and  C_24
REMARK    5  A    between atoms: N_6  and  C_7
REMARK    6  A    between atoms: C_7  and  C_8
REMARK    7  A    between atoms: C_7  and  C_20
REMARK    8  A    between atoms: N_10  and  C_11
REMARK    9  A    between atoms: N_10  and  C_12
REMARK   10  A    between atoms: C_12  and  C_13
REMARK   11  A    between atoms: C_12  and  C_14
REMARK   12  A    between atoms: C_15  and  C_16
REMARK   13  A    between atoms: C_15  and  C_17
REMARK   14  A    between atoms: C_17  and  O_19
REMARK   15  A    between atoms: C_20  and  C_21
REMARK   16  A    between atoms: C_20  and  C_22
REMARK   17  A    between atoms: C_20  and  C_23
REMARK   18  A    between atoms: C_24  and  C_25
REMARK   19  A    between atoms: C_24  and  C_26
REMARK   20  A    between atoms: C_24  and  C_27
REMARK   21  A    between atoms: N_29  and  C_30
REMARK                            x       y       z     vdW  Elec       q    Type
REMARK                         _______ _______ _______ _____ _____    ______ ____
ROOT
ATOM      1  C   UNL     1      -0.052  14.205  19.738  0.00  0.00    +0.000 C 
ATOM      2  O   UNL     1       0.683  14.525  20.670  0.00  0.00    +0.000 OA
ATOM      3  N   UNL     1      -0.971  15.102  19.243  0.00  0.00    +0.000 N 
ATOM      4  H   UNL     1      -1.609  14.785  18.528  0.00  0.00    +0.000 HD
ENDROOT
BRANCH   1   5
ATOM      5  C   UNL     1       0.115  12.855  18.971  0.00  0.00    +0.000 C 
BRANCH   5   7
ATOM      6  C   UNL     1       2.472  13.115  18.218  0.00  0.00    +0.000 C 
ATOM      7  N   UNL     1       1.532  12.389  19.053  0.00  0.00    +0.000 NA
ATOM      8  H   UNL     1       1.827  12.444  20.027  0.00  0.00    +0.000 HD
ENDBRANCH   5   7
BRANCH   5   9
ATOM      9  C   UNL     1      -0.892  11.755  19.545  0.00  0.00    +0.000 C 
ATOM     10  C   UNL     1      -0.220  10.358  19.585  0.00  0.00    +0.000 C 
ATOM     11  C   UNL     1      -1.271  12.033  21.037  0.00  0.00    +0.000 C 
BRANCH   9  12
ATOM     12  C   UNL     1      -2.148  11.682  18.651  0.00  0.00    +0.000 A 
ATOM     13  C   UNL     1      -2.189  11.216  17.347  0.00  0.00    +0.000 A 
ATOM     14  N   UNL     1      -3.485  11.185  16.920  0.00  0.00    +0.000 N 
ATOM     15  C   UNL     1      -3.910  10.705  15.625  0.00  0.00    +0.000 C 
ATOM     16  C   UNL     1      -4.327  11.618  17.921  0.00  0.00    +0.000 A 
ATOM     17  C   UNL     1      -5.727  11.693  17.966  0.00  0.00    +0.000 A 
ATOM     18  C   UNL     1      -6.328  12.173  19.132  0.00  0.00    +0.000 A 
ATOM     19  C   UNL     1      -5.549  12.597  20.205  0.00  0.00    +0.000 A 
ATOM     20  C   UNL     1      -4.154  12.523  20.145  0.00  0.00    +0.000 A 
ATOM     21  C   UNL     1      -3.513  11.996  19.000  0.00  0.00    +0.000 A 
ENDBRANCH   9  12
ENDBRANCH   5   9
ENDBRANCH   1   5
BRANCH   3  22
ATOM     22  C   UNL     1      -1.311  16.336  19.983  0.00  0.00    +0.000 C 
BRANCH  22  23
ATOM     23  C   UNL     1      -2.656  16.208  20.790  0.00  0.00    +0.000 C 
ATOM     24  O   UNL     1      -3.716  15.924  20.224  0.00  0.00    +0.000 OA
ATOM     25  N   UNL     1      -2.648  16.444  22.170  0.00  0.00    +0.000 N 
ATOM     26  C   UNL     1      -1.526  17.017  22.905  0.00  0.00    +0.000 C 
BRANCH  25  27
ATOM     27  C   UNL     1      -3.926  16.221  22.882  0.00  0.00    +0.000 C 
ATOM     28  C   UNL     1      -4.042  17.105  24.128  0.00  0.00    +0.000 C 
BRANCH  27  29
ATOM     29  C   UNL     1      -4.083  14.762  23.220  0.00  0.00    +0.000 C 
ATOM     30  C   UNL     1      -3.648  14.138  24.332  0.00  0.00    +0.000 C 
ATOM     31  C   UNL     1      -2.818  14.788  25.401  0.00  0.00    +0.000 C 
BRANCH  30  32
ATOM     32  C   UNL     1      -4.047  12.711  24.470  0.00  0.00    +0.000 C 
ATOM     33  O   UNL     1      -3.588  11.808  23.789  0.00  0.00    +0.000 OA
BRANCH  32  34
ATOM     34  O   UNL     1      -5.016  12.497  25.383  0.00  0.00    +0.000 OA
ATOM     35  H   UNL     1      -4.786  12.708  26.304  0.00  0.00    +0.000 HD
ENDBRANCH  32  34
ENDBRANCH  30  32
ENDBRANCH  27  29
ENDBRANCH  25  27
ENDBRANCH  22  23
BRANCH  22  36
ATOM     36  C   UNL     1      -1.163  17.663  19.149  0.00  0.00    +0.000 C 
ATOM     37  C   UNL     1      -2.540  18.370  19.089  0.00  0.00    +0.000 C 
ATOM     38  C   UNL     1      -0.190  18.630  19.863  0.00  0.00    +0.000 C 
ATOM     39  C   UNL     1      -0.648  17.470  17.714  0.00  0.00    +0.000 C 
ENDBRANCH  22  36
ENDBRANCH   3  22
TORSDOF 11
ENDMDL
MODEL 5
REMARK VINA RESULT:      -7.3      6.083      9.354
REMARK  Name = 
REMARK  21 active torsions:
REMARK  status: ('A' for Active; 'I' for Inactive)
REMARK    1  A    between atoms: C_1  and  N_2
REMARK    2  A    between atoms: N_2  and  C_3
REMARK    3  A    between atoms: C_3  and  C_4
REMARK    4  A    between atoms: C_3  and  C_24
REMARK    5  A    between atoms: N_6  and  C_7
REMARK    6  A    between atoms: C_7  and  C_8
REMARK    7  A    between atoms: C_7  and  C_20
REMARK    8  A    between atoms: N_10  and  C_11
REMARK    9  A    between atoms: N_10  and  C_12
REMARK   10  A    between atoms: C_12  and  C_13
REMARK   11  A    between atoms: C_12  and  C_14
REMARK   12  A    between atoms: C_15  and  C_16
REMARK   13  A    between atoms: C_15  and  C_17
REMARK   14  A    between atoms: C_17  and  O_19
REMARK   15  A    between atoms: C_20  and  C_21
REMARK   16  A    between atoms: C_20  and  C_22
REMARK   17  A    between atoms: C_20  and  C_23
REMARK   18  A    between atoms: C_24  and  C_25
REMARK   19  A    between atoms: C_24  and  C_26
REMARK   20  A    between atoms: C_24  and  C_27
REMARK   21  A    between atoms: N_29  and  C_30
REMARK                            x       y       z     vdW  Elec       q    Type
REMARK                         _______ _______ _______ _____ _____    ______ ____
ROOT
ATOM      1  C   UNL     1      -1.298  12.456  21.767  0.00  0.00    +0.000 C 
ATOM      2  O   UNL     1      -0.326  12.514  22.518  0.00  0.00    +0.000 OA
ATOM      3  N   UNL     1      -1.153  11.976  20.485  0.00  0.00    +0.000 N 
ATOM      4  H   UNL     1      -1.953  12.011  19.870  0.00  0.00    +0.000 HD
ENDROOT
BRANCH   1   5
ATOM      5  C   UNL     1      -2.748  12.766  22.255  0.00  0.00    +0.000 C 
BRANCH   5   7
ATOM      6  C   UNL     1      -4.019  12.303  24.343  0.00  0.00    +0.000 C 
ATOM      7  N   UNL     1      -2.791  12.798  23.748  0.00  0.00    +0.000 NA
ATOM      8  H   UNL     1      -1.999  12.260  24.099  0.00  0.00    +0.000 HD
ENDBRANCH   5   7
BRANCH   5   9
ATOM      9  C   UNL     1      -3.270  14.140  21.629  0.00  0.00    +0.000 C 
ATOM     10  C   UNL     1      -3.631  15.155  22.746  0.00  0.00    +0.000 C 
ATOM     11  C   UNL     1      -2.157  14.867  20.806  0.00  0.00    +0.000 C 
BRANCH   9  12
ATOM     12  C   UNL     1      -4.524  13.877  20.767  0.00  0.00    +0.000 A 
ATOM     13  C   UNL     1      -5.733  14.545  20.870  0.00  0.00    +0.000 A 
ATOM     14  N   UNL     1      -6.563  14.130  19.869  0.00  0.00    +0.000 N 
ATOM     15  C   UNL     1      -7.890  14.653  19.636  0.00  0.00    +0.000 C 
ATOM     16  C   UNL     1      -5.931  13.192  19.083  0.00  0.00    +0.000 A 
ATOM     17  C   UNL     1      -6.359  12.542  17.916  0.00  0.00    +0.000 A 
ATOM     18  C   UNL     1      -5.493  11.626  17.312  0.00  0.00    +0.000 A 
ATOM     19  C   UNL     1      -4.254  11.346  17.880  0.00  0.00    +0.000 A 
ATOM     20  C   UNL     1      -3.842  11.996  19.048  0.00  0.00    +0.000 A 
ATOM     21  C   UNL     1      -4.671  12.965  19.658  0.00  0.00    +0.000 A 
ENDBRANCH   9  12
ENDBRANCH   5   9
ENDBRANCH   1   5
BRANCH   3  22
ATOM     22  C   UNL     1       0.184  11.800  19.880  0.00  0.00    +0.000 C 
BRANCH  22  23
ATOM     23  C   UNL     1       0.625  13.037  19.014  0.00  0.00    +0.000 C 
ATOM     24  O   UNL     1       0.046  13.319  17.960  0.00  0.00    +0.000 OA
ATOM     25  N   UNL     1       1.709  13.816  19.439  0.00  0.00    +0.000 N 
ATOM     26  C   UNL     1       2.617  13.450  20.521  0.00  0.00    +0.000 C 
BRANCH  25  27
ATOM     27  C   UNL     1       2.016  15.014  18.627  0.00  0.00    +0.000 C 
ATOM     28  C   UNL     1       3.482  15.038  18.184  0.00  0.00    +0.000 C 
BRANCH  27  29
ATOM     29  C   UNL     1       1.644  16.262  19.385  0.00  0.00    +0.000 C 
ATOM     30  C   UNL     1       0.539  17.014  19.215  0.00  0.00    +0.000 C 
ATOM     31  C   UNL     1      -0.482  16.789  18.138  0.00  0.00    +0.000 C 
BRANCH  30  32
ATOM     32  C   UNL     1       0.359  18.126  20.186  0.00  0.00    +0.000 C 
ATOM     33  O   UNL     1       1.238  18.526  20.933  0.00  0.00    +0.000 OA
BRANCH  32  34
ATOM     34  O   UNL     1      -0.892  18.629  20.221  0.00  0.00    +0.000 OA
ATOM     35  H   UNL     1      -1.554  18.089  20.683  0.00  0.00    +0.000 HD
ENDBRANCH  32  34
ENDBRANCH  30  32
ENDBRANCH  27  29
ENDBRANCH  25  27
ENDBRANCH  22  23
BRANCH  22  36
ATOM     36  C   UNL     1       0.418  10.400  19.200  0.00  0.00    +0.000 C 
ATOM     37  C   UNL     1       1.743  10.449  18.401  0.00  0.00    +0.000 C 
ATOM     38  C   UNL     1       0.585   9.308  20.283  0.00  0.00    +0.000 C 
ATOM     39  C   UNL     1      -0.707   9.943  18.258  0.00  0.00    +0.000 C 
ENDBRANCH  22  36
ENDBRANCH   3  22
TORSDOF 11
ENDMDL
MODEL 6
REMARK VINA RESULT:      -7.2      6.540     11.606
REMARK  Name = 
REMARK  21 active torsions:
REMARK  status: ('A' for Active; 'I' for Inactive)
REMARK    1  A    between atoms: C_1  and  N_2
REMARK    2  A    between atoms: N_2  and  C_3
REMARK    3  A    between atoms: C_3  and  C_4
REMARK    4  A    between atoms: C_3  and  C_24
REMARK    5  A    between atoms: N_6  and  C_7
REMARK    6  A    between atoms: C_7  and  C_8
REMARK    7  A    between atoms: C_7  and  C_20
REMARK    8  A    between atoms: N_10  and  C_11
REMARK    9  A    between atoms: N_10  and  C_12
REMARK   10  A    between atoms: C_12  and  C_13
REMARK   11  A    between atoms: C_12  and  C_14
REMARK   12  A    between atoms: C_15  and  C_16
REMARK   13  A    between atoms: C_15  and  C_17
REMARK   14  A    between atoms: C_17  and  O_19
REMARK   15  A    between atoms: C_20  and  C_21
REMARK   16  A    between atoms: C_20  and  C_22
REMARK   17  A    between atoms: C_20  and  C_23
REMARK   18  A    between atoms: C_24  and  C_25
REMARK   19  A    between atoms: C_24  and  C_26
REMARK   20  A    between atoms: C_24  and  C_27
REMARK   21  A    between atoms: N_29  and  C_30
REMARK                            x       y       z     vdW  Elec       q    Type
REMARK                         _______ _______ _______ _____ _____    ______ ____
ROOT
ATOM      1  C   UNL     1      -1.124  14.704  21.565  0.00  0.00    +0.000 C 
ATOM      2  O   UNL     1      -0.604  13.948  22.383  0.00  0.00    +0.000 OA
ATOM      3  N   UNL     1      -2.242  15.430  21.906  0.00  0.00    +0.000 N 
ATOM      4  H   UNL     1      -2.687  15.985  21.190  0.00  0.00    +0.000 HD
ENDROOT
BRANCH   1   5
ATOM      5  C   UNL     1      -0.473  15.003  20.177  0.00  0.00    +0.000 C 
BRANCH   5   7
ATOM      6  C   UNL     1      -1.037  17.086  18.938  0.00  0.00    +0.000 C 
ATOM      7  N   UNL     1      -0.272  16.474  20.009  0.00  0.00    +0.000 NA
ATOM      8  H   UNL     1      -0.500  16.926  20.894  0.00  0.00    +0.000 HD
ENDBRANCH   5   7
BRANCH   5   9
ATOM      9  C   UNL     1       0.903  14.207  20.018  0.00  0.00    +0.000 C 
ATOM     10  C   UNL     1       1.677  14.687  18.762  0.00  0.00    +0.000 C 
ATOM     11  C   UNL     1       1.885  14.499  21.199  0.00  0.00    +0.000 C 
BRANCH   9  12
ATOM     12  C   UNL     1       0.619  12.696  19.885  0.00  0.00    +0.000 A 
ATOM     13  C   UNL     1       1.191  11.693  20.652  0.00  0.00    +0.000 A 
ATOM     14  N   UNL     1       0.611  10.499  20.335  0.00  0.00    +0.000 N 
ATOM     15  C   UNL     1       0.923   9.241  20.974  0.00  0.00    +0.000 C 
ATOM     16  C   UNL     1      -0.352  10.678  19.367  0.00  0.00    +0.000 A 
ATOM     17  C   UNL     1      -1.244   9.763  18.785  0.00  0.00    +0.000 A 
ATOM     18  C   UNL     1      -2.133  10.230  17.815  0.00  0.00    +0.000 A 
ATOM     19  C   UNL     1      -2.107  11.564  17.415  0.00  0.00    +0.000 A 
ATOM     20  C   UNL     1      -1.209  12.463  17.998  0.00  0.00    +0.000 A 
ATOM     21  C   UNL     1      -0.328  12.037  19.018  0.00  0.00    +0.000 A 
ENDBRANCH   9  12
ENDBRANCH   5   9
ENDBRANCH   1   5
BRANCH   3  22
ATOM     22  C   UNL     1      -3.016  15.114  23.125  0.00  0.00    +0.000 C 
BRANCH  22  23
ATOM     23  C   UNL     1      -4.550  14.917  22.835  0.00  0.00    +0.000 C 
ATOM     24  O   UNL     1      -5.198  15.767  22.217  0.00  0.00    +0.000 OA
ATOM     25  N   UNL     1      -5.190  13.764  23.307  0.00  0.00    +0.000 N 
ATOM     26  C   UNL     1      -4.601  12.815  24.245  0.00  0.00    +0.000 C 
BRANCH  25  27
ATOM     27  C   UNL     1      -6.610  13.598  22.924  0.00  0.00    +0.000 C 
ATOM     28  C   UNL     1      -7.524  13.533  24.152  0.00  0.00    +0.000 C 
BRANCH  27  29
ATOM     29  C   UNL     1      -6.771  12.384  22.048  0.00  0.00    +0.000 C 
ATOM     30  C   UNL     1      -7.189  12.360  20.767  0.00  0.00    +0.000 C 
ATOM     31  C   UNL     1      -7.681  13.560  20.012  0.00  0.00    +0.000 C 
BRANCH  30  32
ATOM     32  C   UNL     1      -7.136  11.033  20.095  0.00  0.00    +0.000 C 
ATOM     33  O   UNL     1      -6.951  10.884  18.897  0.00  0.00    +0.000 OA
BRANCH  32  34
ATOM     34  O   UNL     1      -7.370   9.990  20.917  0.00  0.00    +0.000 OA
ATOM     35  H   UNL     1      -7.058  10.092  21.832  0.00  0.00    +0.000 HD
ENDBRANCH  32  34
ENDBRANCH  30  32
ENDBRANCH  27  29
ENDBRANCH  25  27
ENDBRANCH  22  23
BRANCH  22  36
ATOM     36  C   UNL     1      -2.690  16.028  24.365  0.00  0.00    +0.000 C 
ATOM     37  C   UNL     1      -2.017  17.328  23.863  0.00  0.00    +0.000 C 
ATOM     38  C   UNL     1      -4.000  16.443  25.074  0.00  0.00    +0.000 C 
ATOM     39  C   UNL     1      -1.781  15.381  25.422  0.00  0.00    +0.000 C 
ENDBRANCH  22  36
ENDBRANCH   3  22
TORSDOF 11
ENDMDL
MODEL 7
REMARK VINA RESULT:      -7.2      6.454     11.278
REMARK  Name = 
REMARK  21 active torsions:
REMARK  status: ('A' for Active; 'I' for Inactive)
REMARK    1  A    between atoms: C_1  and  N_2
REMARK    2  A    between atoms: N_2  and  C_3
REMARK    3  A    between atoms: C_3  and  C_4
REMARK    4  A    between atoms: C_3  and  C_24
REMARK    5  A    between atoms: N_6  and  C_7
REMARK    6  A    between atoms: C_7  and  C_8
REMARK    7  A    between atoms: C_7  and  C_20
REMARK    8  A    between atoms: N_10  and  C_11
REMARK    9  A    between atoms: N_10  and  C_12
REMARK   10  A    between atoms: C_12  and  C_13
REMARK   11  A    between atoms: C_12  and  C_14
REMARK   12  A    between atoms: C_15  and  C_16
REMARK   13  A    between atoms: C_15  and  C_17
REMARK   14  A    between atoms: C_17  and  O_19
REMARK   15  A    between atoms: C_20  and  C_21
REMARK   16  A    between atoms: C_20  and  C_22
REMARK   17  A    between atoms: C_20  and  C_23
REMARK   18  A    between atoms: C_24  and  C_25
REMARK   19  A    between atoms: C_24  and  C_26
REMARK   20  A    between atoms: C_24  and  C_27
REMARK   21  A    between atoms: N_29  and  C_30
REMARK                            x       y       z     vdW  Elec       q    Type
REMARK                         _______ _______ _______ _____ _____    ______ ____
ROOT
ATOM      1  C   UNL     1       0.031  13.905  19.399  0.00  0.00    +0.000 C 
ATOM      2  O   UNL     1       0.754  13.916  20.394  0.00  0.00    +0.000 OA
ATOM      3  N   UNL     1      -0.707  15.019  19.069  0.00  0.00    +0.000 N 
ATOM      4  H   UNL     1      -1.346  14.954  18.290  0.00  0.00    +0.000 HD
ENDROOT
BRANCH   1   5
ATOM      5  C   UNL     1       0.026  12.718  18.386  0.00  0.00    +0.000 C 
BRANCH   5   7
ATOM      6  C   UNL     1       2.464  12.945  17.946  0.00  0.00    +0.000 C 
ATOM      7  N   UNL     1       1.373  12.073  18.342  0.00  0.00    +0.000 NA
ATOM      8  H   UNL     1       1.565  11.680  19.263  0.00  0.00    +0.000 HD
ENDBRANCH   5   7
BRANCH   5   9
ATOM      9  C   UNL     1      -1.112  11.661  18.766  0.00  0.00    +0.000 C 
ATOM     10  C   UNL     1      -2.492  12.117  18.223  0.00  0.00    +0.000 C 
ATOM     11  C   UNL     1      -0.875  10.278  18.077  0.00  0.00    +0.000 C 
BRANCH   9  12
ATOM     12  C   UNL     1      -1.199  11.517  20.299  0.00  0.00    +0.000 A 
ATOM     13  C   UNL     1      -2.150  12.108  21.116  0.00  0.00    +0.000 A 
ATOM     14  N   UNL     1      -1.987  11.658  22.395  0.00  0.00    +0.000 N 
ATOM     15  C   UNL     1      -2.836  12.023  23.506  0.00  0.00    +0.000 C 
ATOM     16  C   UNL     1      -0.941  10.764  22.456  0.00  0.00    +0.000 A 
ATOM     17  C   UNL     1      -0.453  10.003  23.529  0.00  0.00    +0.000 A 
ATOM     18  C   UNL     1       0.636   9.158  23.301  0.00  0.00    +0.000 A 
ATOM     19  C   UNL     1       1.237   9.104  22.047  0.00  0.00    +0.000 A 
ATOM     20  C   UNL     1       0.746   9.872  20.988  0.00  0.00    +0.000 A 
ATOM     21  C   UNL     1      -0.386  10.701  21.169  0.00  0.00    +0.000 A 
ENDBRANCH   9  12
ENDBRANCH   5   9
ENDBRANCH   1   5
BRANCH   3  22
ATOM     22  C   UNL     1      -0.888  16.129  20.029  0.00  0.00    +0.000 C 
BRANCH  22  23
ATOM     23  C   UNL     1      -2.378  16.273  20.514  0.00  0.00    +0.000 C 
ATOM     24  O   UNL     1      -3.239  16.784  19.791  0.00  0.00    +0.000 OA
ATOM     25  N   UNL     1      -2.723  15.833  21.797  0.00  0.00    +0.000 N 
ATOM     26  C   UNL     1      -1.763  15.441  22.824  0.00  0.00    +0.000 C 
BRANCH  25  27
ATOM     27  C   UNL     1      -4.156  15.916  22.158  0.00  0.00    +0.000 C 
ATOM     28  C   UNL     1      -4.358  16.566  23.530  0.00  0.00    +0.000 C 
BRANCH  27  29
ATOM     29  C   UNL     1      -4.786  14.550  22.093  0.00  0.00    +0.000 C 
ATOM     30  C   UNL     1      -5.670  14.108  21.177  0.00  0.00    +0.000 C 
ATOM     31  C   UNL     1      -6.274  14.962  20.100  0.00  0.00    +0.000 C 
BRANCH  30  32
ATOM     32  C   UNL     1      -6.037  12.670  21.274  0.00  0.00    +0.000 C 
ATOM     33  O   UNL     1      -6.212  12.083  22.330  0.00  0.00    +0.000 OA
BRANCH  32  34
ATOM     34  O   UNL     1      -6.107  12.038  20.085  0.00  0.00    +0.000 OA
ATOM     35  H   UNL     1      -6.986  11.717  19.825  0.00  0.00    +0.000 HD
ENDBRANCH  32  34
ENDBRANCH  30  32
ENDBRANCH  27  29
ENDBRANCH  25  27
ENDBRANCH  22  23
BRANCH  22  36
ATOM     36  C   UNL     1      -0.195  17.479  19.610  0.00  0.00    +0.000 C 
ATOM     37  C   UNL     1      -0.618  17.829  18.163  0.00  0.00    +0.000 C 
ATOM     38  C   UNL     1      -0.691  18.630  20.516  0.00  0.00    +0.000 C 
ATOM     39  C   UNL     1       1.340  17.467  19.684  0.00  0.00    +0.000 C 
ENDBRANCH  22  36
ENDBRANCH   3  22
TORSDOF 11
ENDMDL
MODEL 8
REMARK VINA RESULT:      -7.2      4.854      9.499
REMARK  Name = 
REMARK  21 active torsions:
REMARK  status: ('A' for Active; 'I' for Inactive)
REMARK    1  A    between atoms: C_1  and  N_2
REMARK    2  A    between atoms: N_2  and  C_3
REMARK    3  A    between atoms: C_3  and  C_4
REMARK    4  A    between atoms: C_3  and  C_24
REMARK    5  A    between atoms: N_6  and  C_7
REMARK    6  A    between atoms: C_7  and  C_8
REMARK    7  A    between atoms: C_7  and  C_20
REMARK    8  A    between atoms: N_10  and  C_11
REMARK    9  A    between atoms: N_10  and  C_12
REMARK   10  A    between atoms: C_12  and  C_13
REMARK   11  A    between atoms: C_12  and  C_14
REMARK   12  A    between atoms: C_15  and  C_16
REMARK   13  A    between atoms: C_15  and  C_17
REMARK   14  A    between atoms: C_17  and  O_19
REMARK   15  A    between atoms: C_20  and  C_21
REMARK   16  A    between atoms: C_20  and  C_22
REMARK   17  A    between atoms: C_20  and  C_23
REMARK   18  A    between atoms: C_24  and  C_25
REMARK   19  A    between atoms: C_24  and  C_26
REMARK   20  A    between atoms: C_24  and  C_27
REMARK   21  A    between atoms: N_29  and  C_30
REMARK                            x       y       z     vdW  Elec       q    Type
REMARK                         _______ _______ _______ _____ _____    ______ ____
ROOT
ATOM      1  C   UNL     1       3.351  14.451  20.887  0.00  0.00    +0.000 C 
ATOM      2  O   UNL     1       3.085  13.763  21.871  0.00  0.00    +0.000 OA
ATOM      3  N   UNL     1       2.338  14.975  20.116  0.00  0.00    +0.000 N 
ATOM      4  H   UNL     1       2.589  15.473  19.274  0.00  0.00    +0.000 HD
ENDROOT
BRANCH   1   5
ATOM      5  C   UNL     1       4.809  14.896  20.551  0.00  0.00    +0.000 C 
BRANCH   5   7
ATOM      6  C   UNL     1       5.347  14.741  18.126  0.00  0.00    +0.000 C 
ATOM      7  N   UNL     1       4.848  15.563  19.215  0.00  0.00    +0.000 NA
ATOM      8  H   UNL     1       3.907  15.886  18.996  0.00  0.00    +0.000 HD
ENDBRANCH   5   7
BRANCH   5   9
ATOM      9  C   UNL     1       5.383  15.852  21.695  0.00  0.00    +0.000 C 
ATOM     10  C   UNL     1       6.623  16.636  21.189  0.00  0.00    +0.000 C 
ATOM     11  C   UNL     1       4.364  16.973  22.084  0.00  0.00    +0.000 C 
BRANCH   9  12
ATOM     12  C   UNL     1       5.789  15.011  22.924  0.00  0.00    +0.000 A 
ATOM     13  C   UNL     1       5.252  15.124  24.196  0.00  0.00    +0.000 A 
ATOM     14  N   UNL     1       5.765  14.138  24.989  0.00  0.00    +0.000 N 
ATOM     15  C   UNL     1       5.390  13.918  26.368  0.00  0.00    +0.000 C 
ATOM     16  C   UNL     1       6.638  13.353  24.270  0.00  0.00    +0.000 A 
ATOM     17  C   UNL     1       7.343  12.198  24.641  0.00  0.00    +0.000 A 
ATOM     18  C   UNL     1       8.168  11.591  23.690  0.00  0.00    +0.000 A 
ATOM     19  C   UNL     1       8.308  12.145  22.420  0.00  0.00    +0.000 A 
ATOM     20  C   UNL     1       7.605  13.300  22.066  0.00  0.00    +0.000 A 
ATOM     21  C   UNL     1       6.723  13.913  22.986  0.00  0.00    +0.000 A 
ENDBRANCH   9  12
ENDBRANCH   5   9
ENDBRANCH   1   5
BRANCH   3  22
ATOM     22  C   UNL     1       0.946  14.499  20.256  0.00  0.00    +0.000 C 
BRANCH  22  23
ATOM     23  C   UNL     1       0.644  13.239  19.363  0.00  0.00    +0.000 C 
ATOM     24  O   UNL     1       0.659  13.310  18.130  0.00  0.00    +0.000 OA
ATOM     25  N   UNL     1       0.331  12.023  19.983  0.00  0.00    +0.000 N 
ATOM     26  C   UNL     1       0.045  11.869  21.405  0.00  0.00    +0.000 C 
BRANCH  25  27
ATOM     27  C   UNL     1       0.144  10.858  19.089  0.00  0.00    +0.000 C 
ATOM     28  C   UNL     1      -1.322  10.687  18.679  0.00  0.00    +0.000 C 
BRANCH  27  29
ATOM     29  C   UNL     1       0.687   9.614  19.741  0.00  0.00    +0.000 C 
ATOM     30  C   UNL     1       1.550   8.729  19.205  0.00  0.00    +0.000 C 
ATOM     31  C   UNL     1       2.046   8.779  17.789  0.00  0.00    +0.000 C 
BRANCH  30  32
ATOM     32  C   UNL     1       2.020   7.651  20.116  0.00  0.00    +0.000 C 
ATOM     33  O   UNL     1       2.486   6.590  19.732  0.00  0.00    +0.000 OA
BRANCH  32  34
ATOM     34  O   UNL     1       1.836   7.919  21.425  0.00  0.00    +0.000 OA
ATOM     35  H   UNL     1       2.531   8.446  21.854  0.00  0.00    +0.000 HD
ENDBRANCH  32  34
ENDBRANCH  30  32
ENDBRANCH  27  29
ENDBRANCH  25  27
ENDBRANCH  22  23
BRANCH  22  36
ATOM     36  C   UNL     1      -0.145  15.632  20.192  0.00  0.00    +0.000 C 
ATOM     37  C   UNL     1      -1.536  15.000  20.446  0.00  0.00    +0.000 C 
ATOM     38  C   UNL     1       0.096  16.662  21.320  0.00  0.00    +0.000 C 
ATOM     39  C   UNL     1      -0.193  16.407  18.865  0.00  0.00    +0.000 C 
ENDBRANCH  22  36
ENDBRANCH   3  22
TORSDOF 11
ENDMDL
MODEL 9
REMARK VINA RESULT:      -7.2      2.125      3.168
REMARK  Name = 
REMARK  21 active torsions:
REMARK  status: ('A' for Active; 'I' for Inactive)
REMARK    1  A    between atoms: C_1  and  N_2
REMARK    2  A    between atoms: N_2  and  C_3
REMARK    3  A    between atoms: C_3  and  C_4
REMARK    4  A    between atoms: C_3  and  C_24
REMARK    5  A    between atoms: N_6  and  C_7
REMARK    6  A    between atoms: C_7  and  C_8
REMARK    7  A    between atoms: C_7  and  C_20
REMARK    8  A    between atoms: N_10  and  C_11
REMARK    9  A    between atoms: N_10  and  C_12
REMARK   10  A    between atoms: C_12  and  C_13
REMARK   11  A    between atoms: C_12  and  C_14
REMARK   12  A    between atoms: C_15  and  C_16
REMARK   13  A    between atoms: C_15  and  C_17
REMARK   14  A    between atoms: C_17  and  O_19
REMARK   15  A    between atoms: C_20  and  C_21
REMARK   16  A    between atoms: C_20  and  C_22
REMARK   17  A    between atoms: C_20  and  C_23
REMARK   18  A    between atoms: C_24  and  C_25
REMARK   19  A    between atoms: C_24  and  C_26
REMARK   20  A    between atoms: C_24  and  C_27
REMARK   21  A    between atoms: N_29  and  C_30
REMARK                            x       y       z     vdW  Elec       q    Type
REMARK                         _______ _______ _______ _____ _____    ______ ____
ROOT
ATOM      1  C   UNL     1       1.763   7.584  20.224  0.00  0.00    +0.000 C 
ATOM      2  O   UNL     1       2.931   7.879  19.982  0.00  0.00    +0.000 OA
ATOM      3  N   UNL     1       1.407   6.269  20.421  0.00  0.00    +0.000 N 
ATOM      4  H   UNL     1       0.429   6.053  20.543  0.00  0.00    +0.000 HD
ENDROOT
BRANCH   1   5
ATOM      5  C   UNL     1       0.666   8.667  20.473  0.00  0.00    +0.000 C 
BRANCH   5   7
ATOM      6  C   UNL     1      -0.255   9.115  22.741  0.00  0.00    +0.000 C 
ATOM      7  N   UNL     1       0.853   9.288  21.819  0.00  0.00    +0.000 NA
ATOM      8  H   UNL     1       1.703   8.902  22.229  0.00  0.00    +0.000 HD
ENDBRANCH   5   7
BRANCH   5   9
ATOM      9  C   UNL     1       0.691   9.769  19.316  0.00  0.00    +0.000 C 
ATOM     10  C   UNL     1       1.763  10.851  19.607  0.00  0.00    +0.000 C 
ATOM     11  C   UNL     1       1.131   9.164  17.943  0.00  0.00    +0.000 C 
BRANCH   9  12
ATOM     12  C   UNL     1      -0.691  10.448  19.213  0.00  0.00    +0.000 A 
ATOM     13  C   UNL     1      -1.228  11.336  20.131  0.00  0.00    +0.000 A 
ATOM     14  N   UNL     1      -2.409  11.822  19.649  0.00  0.00    +0.000 N 
ATOM     15  C   UNL     1      -3.222  12.813  20.318  0.00  0.00    +0.000 C 
ATOM     16  C   UNL     1      -2.678  11.281  18.412  0.00  0.00    +0.000 A 
ATOM     17  C   UNL     1      -3.728  11.531  17.515  0.00  0.00    +0.000 A 
ATOM     18  C   UNL     1      -3.749  10.830  16.306  0.00  0.00    +0.000 A 
ATOM     19  C   UNL     1      -2.767   9.885  16.021  0.00  0.00    +0.000 A 
ATOM     20  C   UNL     1      -1.730   9.641  16.926  0.00  0.00    +0.000 A 
ATOM     21  C   UNL     1      -1.650  10.367  18.137  0.00  0.00    +0.000 A 
ENDBRANCH   9  12
ENDBRANCH   5   9
ENDBRANCH   1   5
BRANCH   3  22
ATOM     22  C   UNL     1       2.325   5.167  20.064  0.00  0.00    +0.000 C 
BRANCH  22  23
ATOM     23  C   UNL     1       3.053   5.406  18.689  0.00  0.00    +0.000 C 
ATOM     24  O   UNL     1       2.428   5.775  17.690  0.00  0.00    +0.000 OA
ATOM     25  N   UNL     1       4.431   5.174  18.598  0.00  0.00    +0.000 N 
ATOM     26  C   UNL     1       5.228   4.513  19.626  0.00  0.00    +0.000 C 
BRANCH  25  27
ATOM     27  C   UNL     1       5.069   5.502  17.303  0.00  0.00    +0.000 C 
ATOM     28  C   UNL     1       5.824   4.302  16.724  0.00  0.00    +0.000 C 
BRANCH  27  29
ATOM     29  C   UNL     1       5.967   6.701  17.459  0.00  0.00    +0.000 C 
ATOM     30  C   UNL     1       7.199   6.724  18.004  0.00  0.00    +0.000 C 
ATOM     31  C   UNL     1       7.857   5.548  18.664  0.00  0.00    +0.000 C 
BRANCH  30  32
ATOM     32  C   UNL     1       7.919   8.023  17.917  0.00  0.00    +0.000 C 
ATOM     33  O   UNL     1       7.739   8.843  17.030  0.00  0.00    +0.000 OA
BRANCH  32  34
ATOM     34  O   UNL     1       8.845   8.204  18.880  0.00  0.00    +0.000 OA
ATOM     35  H   UNL     1       8.764   7.631  19.661  0.00  0.00    +0.000 HD
ENDBRANCH  32  34
ENDBRANCH  30  32
ENDBRANCH  27  29
ENDBRANCH  25  27
ENDBRANCH  22  23
BRANCH  22  36
ATOM     36  C   UNL     1       1.723   3.725  20.251  0.00  0.00    +0.000 C 
ATOM     37  C   UNL     1       0.207   3.772  19.940  0.00  0.00    +0.000 C 
ATOM     38  C   UNL     1       2.362   2.750  19.234  0.00  0.00    +0.000 C 
ATOM     39  C   UNL     1       1.918   3.120  21.651  0.00  0.00    +0.000 C 
ENDBRANCH  22  36
ENDBRANCH   3  22
TORSDOF 11
ENDMDL
