MODEL 1
REMARK VINA RESULT:      -8.4      0.000      0.000
REMARK  Name = 
REMARK  7 active torsions:
REMARK  status: ('A' for Active; 'I' for Inactive)
REMARK    1  A    between atoms: C_1  and  O_2
REMARK    2  A    between atoms: O_2  and  C_3
REMARK    3  A    between atoms: C_6  and  C_7
REMARK    4  A    between atoms: C_9  and  C_10
REMARK    5  A    between atoms: C_16  and  C_17
REMARK    6  A    between atoms: C_26  and  O_27
REMARK    7  A    between atoms: O_27  and  C_28
REMARK                            x       y       z     vdW  Elec       q    Type
REMARK                         _______ _______ _______ _____ _____    ______ ____
ROOT
ATOM      1  C   UNL     1       1.672   7.687  20.143  0.00  0.00    +0.000 A 
ATOM      2  C   UNL     1       1.477   6.283  20.630  0.00  0.00    +0.000 A 
ATOM      3  C   UNL     1       2.109   5.309  19.942  0.00  0.00    +0.000 A 
ATOM      4  N   UNL     1       2.886   5.647  18.840  0.00  0.00    +0.000 N 
ATOM      5  N   UNL     1       3.570   4.833  17.998  0.00  0.00    +0.000 NA
ATOM      6  C   UNL     1       4.221   5.656  17.171  0.00  0.00    +0.000 A 
ATOM      7  C   UNL     1       3.922   7.004  17.417  0.00  0.00    +0.000 A 
ATOM      8  C   UNL     1       3.038   6.988  18.468  0.00  0.00    +0.000 A 
ATOM      9  N   UNL     1       2.404   8.005  19.117  0.00  0.00    +0.000 NA
ENDROOT
BRANCH   1  13
ATOM     10  C   UNL     1      -0.316  10.797  22.350  0.00  0.00    +0.000 A 
ATOM     11  C   UNL     1      -0.150   9.514  22.892  0.00  0.00    +0.000 A 
ATOM     12  C   UNL     1       0.488   8.508  22.167  0.00  0.00    +0.000 A 
ATOM     13  C   UNL     1       0.943   8.763  20.871  0.00  0.00    +0.000 A 
ATOM     14  C   UNL     1       0.689  10.008  20.293  0.00  0.00    +0.000 A 
ATOM     15  C   UNL     1       0.061  11.031  21.019  0.00  0.00    +0.000 A 
BRANCH  10  17
ATOM     16  C   UNL     1      -2.295  11.876  23.080  0.00  0.00    +0.000 C 
ATOM     17  O   UNL     1      -0.869  11.809  23.088  0.00  0.00    +0.000 OA
ENDBRANCH  10  17
BRANCH  15  18
ATOM     18  O   UNL     1      -0.066  12.171  20.271  0.00  0.00    +0.000 OA
ATOM     19  C   UNL     1      -1.023  12.209  19.225  0.00  0.00    +0.000 C 
ENDBRANCH  15  18
ENDBRANCH   1  13
BRANCH   6  20
ATOM     20  C   UNL     1       5.158   5.161  16.125  0.00  0.00    +0.000 A 
ATOM     21  C   UNL     1       5.408   3.837  15.819  0.00  0.00    +0.000 A 
ATOM     22  C   UNL     1       6.381   3.832  14.791  0.00  0.00    +0.000 A 
ATOM     23  C   UNL     1       6.667   5.151  14.532  0.00  0.00    +0.000 A 
ATOM     24  O   UNL     1       5.922   5.965  15.323  0.00  0.00    +0.000 OA
ENDBRANCH   6  20
BRANCH   3  25
ATOM     25  C   UNL     1       2.004   3.887  20.350  0.00  0.00    +0.000 C 
ATOM     26  F   UNL     1       3.146   3.275  20.741  0.00  0.00    +0.000 F 
ATOM     27  F   UNL     1       1.132   3.757  21.390  0.00  0.00    +0.000 F 
ATOM     28  F   UNL     1       1.487   3.132  19.342  0.00  0.00    +0.000 F 
ENDBRANCH   3  25
TORSDOF 5
ENDMDL
MODEL 2
REMARK VINA RESULT:      -8.1      0.953      1.226
REMARK  Name = 
REMARK  7 active torsions:
REMARK  status: ('A' for Active; 'I' for Inactive)
REMARK    1  A    between atoms: C_1  and  O_2
REMARK    2  A    between atoms: O_2  and  C_3
REMARK    3  A    between atoms: C_6  and  C_7
REMARK    4  A    between atoms: C_9  and  C_10
REMARK    5  A    between atoms: C_16  and  C_17
REMARK    6  A    between atoms: C_26  and  O_27
REMARK    7  A    between atoms: O_27  and  C_28
REMARK                            x       y       z     vdW  Elec       q    Type
REMARK                         _______ _______ _______ _____ _____    ______ ____
ROOT
ATOM      1  C   UNL     1       2.238   7.426  19.530  0.00  0.00    +0.000 A 
ATOM      2  C   UNL     1       2.107   6.009  19.998  0.00  0.00    +0.000 A 
ATOM      3  C   UNL     1       2.736   5.066  19.264  0.00  0.00    +0.000 A 
ATOM      4  N   UNL     1       3.451   5.447  18.135  0.00  0.00    +0.000 N 
ATOM      5  N   UNL     1       4.119   4.670  17.247  0.00  0.00    +0.000 NA
ATOM      6  C   UNL     1       4.706   5.526  16.407  0.00  0.00    +0.000 A 
ATOM      7  C   UNL     1       4.379   6.861  16.692  0.00  0.00    +0.000 A 
ATOM      8  C   UNL     1       3.545   6.799  17.781  0.00  0.00    +0.000 A 
ATOM      9  N   UNL     1       2.911   7.785  18.477  0.00  0.00    +0.000 NA
ENDROOT
BRANCH   1  13
ATOM     10  C   UNL     1       0.274  10.465  21.856  0.00  0.00    +0.000 A 
ATOM     11  C   UNL     1       0.787   9.306  22.459  0.00  0.00    +0.000 A 
ATOM     12  C   UNL     1       1.415   8.321  21.697  0.00  0.00    +0.000 A 
ATOM     13  C   UNL     1       1.511   8.466  20.311  0.00  0.00    +0.000 A 
ATOM     14  C   UNL     1       0.913   9.569  19.698  0.00  0.00    +0.000 A 
ATOM     15  C   UNL     1       0.293  10.573  20.457  0.00  0.00    +0.000 A 
BRANCH  10  17
ATOM     16  C   UNL     1      -1.582  11.226  23.115  0.00  0.00    +0.000 C 
ATOM     17  O   UNL     1      -0.269  11.470  22.610  0.00  0.00    +0.000 OA
ENDBRANCH  10  17
BRANCH  15  18
ATOM     18  O   UNL     1      -0.203  11.570  19.660  0.00  0.00    +0.000 OA
ATOM     19  C   UNL     1       0.599  12.710  19.398  0.00  0.00    +0.000 C 
ENDBRANCH  15  18
ENDBRANCH   1  13
BRANCH   6  20
ATOM     20  C   UNL     1       5.608   5.079  15.310  0.00  0.00    +0.000 A 
ATOM     21  C   UNL     1       5.352   4.062  14.411  0.00  0.00    +0.000 A 
ATOM     22  C   UNL     1       6.488   3.963  13.572  0.00  0.00    +0.000 A 
ATOM     23  C   UNL     1       7.368   4.923  14.009  0.00  0.00    +0.000 A 
ATOM     24  O   UNL     1       6.841   5.614  15.051  0.00  0.00    +0.000 OA
ENDBRANCH   6  20
BRANCH   3  25
ATOM     25  C   UNL     1       2.692   3.635  19.650  0.00  0.00    +0.000 C 
ATOM     26  F   UNL     1       2.275   2.758  18.708  0.00  0.00    +0.000 F 
ATOM     27  F   UNL     1       3.930   3.213  20.036  0.00  0.00    +0.000 F 
ATOM     28  F   UNL     1       1.888   3.451  20.733  0.00  0.00    +0.000 F 
ENDBRANCH   3  25
TORSDOF 5
ENDMDL
MODEL 3
REMARK VINA RESULT:      -8.1      1.368      1.794
REMARK  Name = 
REMARK  7 active torsions:
REMARK  status: ('A' for Active; 'I' for Inactive)
REMARK    1  A    between atoms: C_1  and  O_2
REMARK    2  A    between atoms: O_2  and  C_3
REMARK    3  A    between atoms: C_6  and  C_7
REMARK    4  A    between atoms: C_9  and  C_10
REMARK    5  A    between atoms: C_16  and  C_17
REMARK    6  A    between atoms: C_26  and  O_27
REMARK    7  A    between atoms: O_27  and  C_28
REMARK                            x       y       z     vdW  Elec       q    Type
REMARK                         _______ _______ _______ _____ _____    ______ ____
ROOT
ATOM      1  C   UNL     1       2.661   7.080  18.876  0.00  0.00    +0.000 A 
ATOM      2  C   UNL     1       2.567   5.644  19.290  0.00  0.00    +0.000 A 
ATOM      3  C   UNL     1       3.226   4.747  18.528  0.00  0.00    +0.000 A 
ATOM      4  N   UNL     1       3.940   5.189  17.419  0.00  0.00    +0.000 N 
ATOM      5  N   UNL     1       4.636   4.463  16.509  0.00  0.00    +0.000 NA
ATOM      6  C   UNL     1       5.206   5.366  15.706  0.00  0.00    +0.000 A 
ATOM      7  C   UNL     1       4.840   6.679  16.038  0.00  0.00    +0.000 A 
ATOM      8  C   UNL     1       3.999   6.554  17.117  0.00  0.00    +0.000 A 
ATOM      9  N   UNL     1       3.333   7.496  17.843  0.00  0.00    +0.000 NA
ENDROOT
BRANCH   1  13
ATOM     10  C   UNL     1       0.591   9.959  21.310  0.00  0.00    +0.000 A 
ATOM     11  C   UNL     1       0.972   8.711  21.826  0.00  0.00    +0.000 A 
ATOM     12  C   UNL     1       1.636   7.780  21.028  0.00  0.00    +0.000 A 
ATOM     13  C   UNL     1       1.901   8.071  19.688  0.00  0.00    +0.000 A 
ATOM     14  C   UNL     1       1.433   9.270  19.146  0.00  0.00    +0.000 A 
ATOM     15  C   UNL     1       0.777  10.220  19.944  0.00  0.00    +0.000 A 
BRANCH  10  17
ATOM     16  C   UNL     1      -0.868  10.412  23.120  0.00  0.00    +0.000 C 
ATOM     17  O   UNL     1       0.013  10.906  22.111  0.00  0.00    +0.000 OA
ENDBRANCH  10  17
BRANCH  15  18
ATOM     18  O   UNL     1       0.427  11.328  19.219  0.00  0.00    +0.000 OA
ATOM     19  C   UNL     1      -0.901  11.448  18.737  0.00  0.00    +0.000 C 
ENDBRANCH  15  18
ENDBRANCH   1  13
BRANCH   6  20
ATOM     20  C   UNL     1       6.129   4.985  14.602  0.00  0.00    +0.000 A 
ATOM     21  C   UNL     1       5.872   4.053  13.615  0.00  0.00    +0.000 A 
ATOM     22  C   UNL     1       7.030   3.990  12.802  0.00  0.00    +0.000 A 
ATOM     23  C   UNL     1       7.922   4.885  13.342  0.00  0.00    +0.000 A 
ATOM     24  O   UNL     1       7.383   5.503  14.423  0.00  0.00    +0.000 OA
ENDBRANCH   6  20
BRANCH   3  25
ATOM     25  C   UNL     1       3.220   3.302  18.860  0.00  0.00    +0.000 C 
ATOM     26  F   UNL     1       4.413   2.731  19.141  0.00  0.00    +0.000 F 
ATOM     27  F   UNL     1       2.427   3.070  19.944  0.00  0.00    +0.000 F 
ATOM     28  F   UNL     1       2.674   2.575  17.846  0.00  0.00    +0.000 F 
ENDBRANCH   3  25
TORSDOF 5
ENDMDL
MODEL 4
REMARK VINA RESULT:      -8.0      0.781      1.121
REMARK  Name = 
REMARK  7 active torsions:
REMARK  status: ('A' for Active; 'I' for Inactive)
REMARK    1  A    between atoms: C_1  and  O_2
REMARK    2  A    between atoms: O_2  and  C_3
REMARK    3  A    between atoms: C_6  and  C_7
REMARK    4  A    between atoms: C_9  and  C_10
REMARK    5  A    between atoms: C_16  and  C_17
REMARK    6  A    between atoms: C_26  and  O_27
REMARK    7  A    between atoms: O_27  and  C_28
REMARK                            x       y       z     vdW  Elec       q    Type
REMARK                         _______ _______ _______ _____ _____    ______ ____
ROOT
ATOM      1  C   UNL     1       2.095   7.481  19.810  0.00  0.00    +0.000 A 
ATOM      2  C   UNL     1       1.964   6.084  20.337  0.00  0.00    +0.000 A 
ATOM      3  C   UNL     1       2.597   5.113  19.646  0.00  0.00    +0.000 A 
ATOM      4  N   UNL     1       3.318   5.447  18.506  0.00  0.00    +0.000 N 
ATOM      5  N   UNL     1       3.992   4.634  17.655  0.00  0.00    +0.000 NA
ATOM      6  C   UNL     1       4.583   5.455  16.783  0.00  0.00    +0.000 A 
ATOM      7  C   UNL     1       4.253   6.800  17.010  0.00  0.00    +0.000 A 
ATOM      8  C   UNL     1       3.413   6.782  18.096  0.00  0.00    +0.000 A 
ATOM      9  N   UNL     1       2.774   7.796  18.747  0.00  0.00    +0.000 NA
ENDROOT
BRANCH   1  13
ATOM     10  C   UNL     1       0.114  10.607  22.001  0.00  0.00    +0.000 A 
ATOM     11  C   UNL     1       0.575   9.448  22.645  0.00  0.00    +0.000 A 
ATOM     12  C   UNL     1       1.209   8.435  21.926  0.00  0.00    +0.000 A 
ATOM     13  C   UNL     1       1.363   8.552  20.542  0.00  0.00    +0.000 A 
ATOM     14  C   UNL     1       0.815   9.656  19.887  0.00  0.00    +0.000 A 
ATOM     15  C   UNL     1       0.189  10.688  20.602  0.00  0.00    +0.000 A 
BRANCH  10  17
ATOM     16  C   UNL     1      -1.765  11.427  23.187  0.00  0.00    +0.000 C 
ATOM     17  O   UNL     1      -0.435  11.638  22.714  0.00  0.00    +0.000 OA
ENDBRANCH  10  17
BRANCH  15  18
ATOM     18  O   UNL     1      -0.252  11.680  19.768  0.00  0.00    +0.000 OA
ATOM     19  C   UNL     1      -1.607  11.682  19.351  0.00  0.00    +0.000 C 
ENDBRANCH  15  18
ENDBRANCH   1  13
BRANCH   6  20
ATOM     20  C   UNL     1       5.492   4.964  15.711  0.00  0.00    +0.000 A 
ATOM     21  C   UNL     1       6.835   5.262  15.585  0.00  0.00    +0.000 A 
ATOM     22  C   UNL     1       7.290   4.610  14.414  0.00  0.00    +0.000 A 
ATOM     23  C   UNL     1       6.200   3.954  13.896  0.00  0.00    +0.000 A 
ATOM     24  O   UNL     1       5.109   4.149  14.680  0.00  0.00    +0.000 OA
ENDBRANCH   6  20
BRANCH   3  25
ATOM     25  C   UNL     1       2.553   3.699  20.091  0.00  0.00    +0.000 C 
ATOM     26  F   UNL     1       1.858   3.432  21.220  0.00  0.00    +0.000 F 
ATOM     27  F   UNL     1       2.008   2.915  19.118  0.00  0.00    +0.000 F 
ATOM     28  F   UNL     1       3.811   3.215  20.289  0.00  0.00    +0.000 F 
ENDBRANCH   3  25
TORSDOF 5
ENDMDL
MODEL 5
REMARK VINA RESULT:      -7.5      3.395      8.828
REMARK  Name = 
REMARK  7 active torsions:
REMARK  status: ('A' for Active; 'I' for Inactive)
REMARK    1  A    between atoms: C_1  and  O_2
REMARK    2  A    between atoms: O_2  and  C_3
REMARK    3  A    between atoms: C_6  and  C_7
REMARK    4  A    between atoms: C_9  and  C_10
REMARK    5  A    between atoms: C_16  and  C_17
REMARK    6  A    between atoms: C_26  and  O_27
REMARK    7  A    between atoms: O_27  and  C_28
REMARK                            x       y       z     vdW  Elec       q    Type
REMARK                         _______ _______ _______ _____ _____    ______ ____
ROOT
ATOM      1  C   UNL     1       1.554   7.353  20.444  0.00  0.00    +0.000 A 
ATOM      2  C   UNL     1       1.787   8.331  19.332  0.00  0.00    +0.000 A 
ATOM      3  C   UNL     1       1.195   9.538  19.452  0.00  0.00    +0.000 A 
ATOM      4  N   UNL     1       0.415   9.807  20.570  0.00  0.00    +0.000 N 
ATOM      5  N   UNL     1      -0.289  10.927  20.869  0.00  0.00    +0.000 NA
ATOM      6  C   UNL     1      -0.784  10.711  22.091  0.00  0.00    +0.000 A 
ATOM      7  C   UNL     1      -0.470   9.433  22.575  0.00  0.00    +0.000 A 
ATOM      8  C   UNL     1       0.271   8.846  21.578  0.00  0.00    +0.000 A 
ATOM      9  N   UNL     1       0.830   7.605  21.494  0.00  0.00    +0.000 NA
ENDROOT
BRANCH   1  13
ATOM     10  C   UNL     1       3.208   3.416  19.933  0.00  0.00    +0.000 A 
ATOM     11  C   UNL     1       2.012   3.616  20.639  0.00  0.00    +0.000 A 
ATOM     12  C   UNL     1       1.486   4.897  20.807  0.00  0.00    +0.000 A 
ATOM     13  C   UNL     1       2.169   6.004  20.298  0.00  0.00    +0.000 A 
ATOM     14  C   UNL     1       3.409   5.817  19.685  0.00  0.00    +0.000 A 
ATOM     15  C   UNL     1       3.939   4.531  19.497  0.00  0.00    +0.000 A 
BRANCH  10  17
ATOM     16  C   UNL     1       3.379   1.608  18.413  0.00  0.00    +0.000 C 
ATOM     17  O   UNL     1       3.684   2.155  19.696  0.00  0.00    +0.000 OA
ENDBRANCH  10  17
BRANCH  15  18
ATOM     18  O   UNL     1       5.148   4.577  18.855  0.00  0.00    +0.000 OA
ATOM     19  C   UNL     1       5.400   5.620  17.928  0.00  0.00    +0.000 C 
ENDBRANCH  15  18
ENDBRANCH   1  13
BRANCH   6  20
ATOM     20  C   UNL     1      -1.568  11.739  22.828  0.00  0.00    +0.000 A 
ATOM     21  C   UNL     1      -1.186  13.048  23.050  0.00  0.00    +0.000 A 
ATOM     22  C   UNL     1      -2.213  13.651  23.815  0.00  0.00    +0.000 A 
ATOM     23  C   UNL     1      -3.160  12.675  24.014  0.00  0.00    +0.000 A 
ATOM     24  O   UNL     1      -2.787  11.518  23.410  0.00  0.00    +0.000 OA
ENDBRANCH   6  20
BRANCH   3  25
ATOM     25  C   UNL     1       1.377  10.589  18.421  0.00  0.00    +0.000 C 
ATOM     26  F   UNL     1       1.964  11.741  18.817  0.00  0.00    +0.000 F 
ATOM     27  F   UNL     1       2.134  10.115  17.391  0.00  0.00    +0.000 F 
ATOM     28  F   UNL     1       0.181  10.935  17.868  0.00  0.00    +0.000 F 
ENDBRANCH   3  25
TORSDOF 5
ENDMDL
MODEL 6
REMARK VINA RESULT:      -7.4      1.130      2.018
REMARK  Name = 
REMARK  7 active torsions:
REMARK  status: ('A' for Active; 'I' for Inactive)
REMARK    1  A    between atoms: C_1  and  O_2
REMARK    2  A    between atoms: O_2  and  C_3
REMARK    3  A    between atoms: C_6  and  C_7
REMARK    4  A    between atoms: C_9  and  C_10
REMARK    5  A    between atoms: C_16  and  C_17
REMARK    6  A    between atoms: C_26  and  O_27
REMARK    7  A    between atoms: O_27  and  C_28
REMARK                            x       y       z     vdW  Elec       q    Type
REMARK                         _______ _______ _______ _____ _____    ______ ____
ROOT
ATOM      1  C   UNL     1       1.836   8.277  19.265  0.00  0.00    +0.000 A 
ATOM      2  C   UNL     1       1.835   7.014  20.070  0.00  0.00    +0.000 A 
ATOM      3  C   UNL     1       2.572   5.989  19.593  0.00  0.00    +0.000 A 
ATOM      4  N   UNL     1       3.274   6.150  18.404  0.00  0.00    +0.000 N 
ATOM      5  N   UNL     1       4.039   5.250  17.737  0.00  0.00    +0.000 NA
ATOM      6  C   UNL     1       4.560   5.928  16.711  0.00  0.00    +0.000 A 
ATOM      7  C   UNL     1       4.095   7.251  16.656  0.00  0.00    +0.000 A 
ATOM      8  C   UNL     1       3.243   7.375  17.727  0.00  0.00    +0.000 A 
ATOM      9  N   UNL     1       2.498   8.432  18.156  0.00  0.00    +0.000 NA
ENDROOT
BRANCH   1  13
ATOM     10  C   UNL     1      -0.727  11.448  20.635  0.00  0.00    +0.000 A 
ATOM     11  C   UNL     1      -0.452  11.274  19.269  0.00  0.00    +0.000 A 
ATOM     12  C   UNL     1       0.387  10.248  18.834  0.00  0.00    +0.000 A 
ATOM     13  C   UNL     1       0.991   9.398  19.763  0.00  0.00    +0.000 A 
ATOM     14  C   UNL     1       0.800   9.633  21.126  0.00  0.00    +0.000 A 
ATOM     15  C   UNL     1      -0.054  10.652  21.574  0.00  0.00    +0.000 A 
BRANCH  10  17
ATOM     16  C   UNL     1      -1.110  13.736  21.113  0.00  0.00    +0.000 C 
ATOM     17  O   UNL     1      -1.613  12.401  21.059  0.00  0.00    +0.000 OA
ENDBRANCH  10  17
BRANCH  15  18
ATOM     18  O   UNL     1      -0.115  10.690  22.942  0.00  0.00    +0.000 OA
ATOM     19  C   UNL     1       0.006   9.481  23.673  0.00  0.00    +0.000 C 
ENDBRANCH  15  18
ENDBRANCH   1  13
BRANCH   6  20
ATOM     20  C   UNL     1       5.529   5.319  15.760  0.00  0.00    +0.000 A 
ATOM     21  C   UNL     1       5.289   4.234  14.939  0.00  0.00    +0.000 A 
ATOM     22  C   UNL     1       6.491   3.981  14.234  0.00  0.00    +0.000 A 
ATOM     23  C   UNL     1       7.390   4.925  14.667  0.00  0.00    +0.000 A 
ATOM     24  O   UNL     1       6.816   5.749  15.580  0.00  0.00    +0.000 OA
ENDBRANCH   6  20
BRANCH   3  25
ATOM     25  C   UNL     1       2.660   4.700  20.322  0.00  0.00    +0.000 C 
ATOM     26  F   UNL     1       2.324   4.711  21.631  0.00  0.00    +0.000 F 
ATOM     27  F   UNL     1       1.856   3.769  19.734  0.00  0.00    +0.000 F 
ATOM     28  F   UNL     1       3.922   4.191  20.251  0.00  0.00    +0.000 F 
ENDBRANCH   3  25
TORSDOF 5
ENDMDL
MODEL 7
REMARK VINA RESULT:      -7.4      1.045      1.250
REMARK  Name = 
REMARK  7 active torsions:
REMARK  status: ('A' for Active; 'I' for Inactive)
REMARK    1  A    between atoms: C_1  and  O_2
REMARK    2  A    between atoms: O_2  and  C_3
REMARK    3  A    between atoms: C_6  and  C_7
REMARK    4  A    between atoms: C_9  and  C_10
REMARK    5  A    between atoms: C_16  and  C_17
REMARK    6  A    between atoms: C_26  and  O_27
REMARK    7  A    between atoms: O_27  and  C_28
REMARK                            x       y       z     vdW  Elec       q    Type
REMARK                         _______ _______ _______ _____ _____    ______ ____
ROOT
ATOM      1  C   UNL     1       1.926   8.023  19.382  0.00  0.00    +0.000 A 
ATOM      2  C   UNL     1       1.929   6.715  20.113  0.00  0.00    +0.000 A 
ATOM      3  C   UNL     1       2.677   5.725  19.583  0.00  0.00    +0.000 A 
ATOM      4  N   UNL     1       3.387   5.960  18.412  0.00  0.00    +0.000 N 
ATOM      5  N   UNL     1       4.164   5.106  17.699  0.00  0.00    +0.000 NA
ATOM      6  C   UNL     1       4.687   5.847  16.718  0.00  0.00    +0.000 A 
ATOM      7  C   UNL     1       4.212   7.167  16.736  0.00  0.00    +0.000 A 
ATOM      8  C   UNL     1       3.351   7.222  17.806  0.00  0.00    +0.000 A 
ATOM      9  N   UNL     1       2.594   8.247  18.290  0.00  0.00    +0.000 NA
ENDROOT
BRANCH   1  13
ATOM     10  C   UNL     1      -0.444  11.176  21.098  0.00  0.00    +0.000 A 
ATOM     11  C   UNL     1      -0.228   9.972  21.786  0.00  0.00    +0.000 A 
ATOM     12  C   UNL     1       0.535   8.951  21.220  0.00  0.00    +0.000 A 
ATOM     13  C   UNL     1       1.068   9.107  19.938  0.00  0.00    +0.000 A 
ATOM     14  C   UNL     1       0.770  10.261  19.212  0.00  0.00    +0.000 A 
ATOM     15  C   UNL     1       0.016  11.301  19.778  0.00  0.00    +0.000 A 
BRANCH  10  17
ATOM     16  C   UNL     1      -1.280  12.127  23.099  0.00  0.00    +0.000 C 
ATOM     17  O   UNL     1      -1.122  12.210  21.683  0.00  0.00    +0.000 OA
ENDBRANCH  10  17
BRANCH  15  18
ATOM     18  O   UNL     1      -0.135  12.344  18.904  0.00  0.00    +0.000 OA
ATOM     19  C   UNL     1       0.907  13.298  18.779  0.00  0.00    +0.000 C 
ENDBRANCH  15  18
ENDBRANCH   1  13
BRANCH   6  20
ATOM     20  C   UNL     1       5.668   5.301  15.741  0.00  0.00    +0.000 A 
ATOM     21  C   UNL     1       5.403   4.363  14.761  0.00  0.00    +0.000 A 
ATOM     22  C   UNL     1       6.625   4.117  14.090  0.00  0.00    +0.000 A 
ATOM     23  C   UNL     1       7.561   4.918  14.700  0.00  0.00    +0.000 A 
ATOM     24  O   UNL     1       6.991   5.649  15.691  0.00  0.00    +0.000 OA
ENDBRANCH   6  20
BRANCH   3  25
ATOM     25  C   UNL     1       2.771   4.397  20.236  0.00  0.00    +0.000 C 
ATOM     26  F   UNL     1       2.401   4.325  21.535  0.00  0.00    +0.000 F 
ATOM     27  F   UNL     1       1.999   3.489  19.574  0.00  0.00    +0.000 F 
ATOM     28  F   UNL     1       4.043   3.914  20.170  0.00  0.00    +0.000 F 
ENDBRANCH   3  25
TORSDOF 5
ENDMDL
MODEL 8
REMARK VINA RESULT:      -7.3      1.145      2.012
REMARK  Name = 
REMARK  7 active torsions:
REMARK  status: ('A' for Active; 'I' for Inactive)
REMARK    1  A    between atoms: C_1  and  O_2
REMARK    2  A    between atoms: O_2  and  C_3
REMARK    3  A    between atoms: C_6  and  C_7
REMARK    4  A    between atoms: C_9  and  C_10
REMARK    5  A    between atoms: C_16  and  C_17
REMARK    6  A    between atoms: C_26  and  O_27
REMARK    7  A    between atoms: O_27  and  C_28
REMARK                            x       y       z     vdW  Elec       q    Type
REMARK                         _______ _______ _______ _____ _____    ______ ____
ROOT
ATOM      1  C   UNL     1       1.825   8.264  19.308  0.00  0.00    +0.000 A 
ATOM      2  C   UNL     1       1.748   6.994  20.098  0.00  0.00    +0.000 A 
ATOM      3  C   UNL     1       2.454   5.943  19.630  0.00  0.00    +0.000 A 
ATOM      4  N   UNL     1       3.195   6.086  18.462  0.00  0.00    +0.000 N 
ATOM      5  N   UNL     1       3.938   5.161  17.806  0.00  0.00    +0.000 NA
ATOM      6  C   UNL     1       4.515   5.827  16.801  0.00  0.00    +0.000 A 
ATOM      7  C   UNL     1       4.109   7.168  16.749  0.00  0.00    +0.000 A 
ATOM      8  C   UNL     1       3.234   7.318  17.798  0.00  0.00    +0.000 A 
ATOM      9  N   UNL     1       2.522   8.401  18.219  0.00  0.00    +0.000 NA
ENDROOT
BRANCH   1  13
ATOM     10  C   UNL     1      -0.639  11.526  20.645  0.00  0.00    +0.000 A 
ATOM     11  C   UNL     1      -0.342  11.350  19.284  0.00  0.00    +0.000 A 
ATOM     12  C   UNL     1       0.465  10.294  18.860  0.00  0.00    +0.000 A 
ATOM     13  C   UNL     1       1.014   9.415  19.795  0.00  0.00    +0.000 A 
ATOM     14  C   UNL     1       0.803   9.649  21.156  0.00  0.00    +0.000 A 
ATOM     15  C   UNL     1      -0.019  10.698  21.593  0.00  0.00    +0.000 A 
BRANCH  10  17
ATOM     16  C   UNL     1      -1.535  13.681  20.240  0.00  0.00    +0.000 C 
ATOM     17  O   UNL     1      -1.495  12.511  21.057  0.00  0.00    +0.000 OA
ENDBRANCH  10  17
BRANCH  15  18
ATOM     18  O   UNL     1      -0.107  10.730  22.959  0.00  0.00    +0.000 OA
ATOM     19  C   UNL     1      -0.122   9.509  23.680  0.00  0.00    +0.000 C 
ENDBRANCH  15  18
ENDBRANCH   1  13
BRANCH   6  20
ATOM     20  C   UNL     1       5.484   5.186  15.870  0.00  0.00    +0.000 A 
ATOM     21  C   UNL     1       6.853   5.369  15.870  0.00  0.00    +0.000 A 
ATOM     22  C   UNL     1       7.369   4.596  14.802  0.00  0.00    +0.000 A 
ATOM     23  C   UNL     1       6.285   3.989  14.215  0.00  0.00    +0.000 A 
ATOM     24  O   UNL     1       5.140   4.327  14.861  0.00  0.00    +0.000 OA
ENDBRANCH   6  20
BRANCH   3  25
ATOM     25  C   UNL     1       2.468   4.644  20.346  0.00  0.00    +0.000 C 
ATOM     26  F   UNL     1       3.567   3.871  20.193  0.00  0.00    +0.000 F 
ATOM     27  F   UNL     1       2.331   4.844  21.687  0.00  0.00    +0.000 F 
ATOM     28  F   UNL     1       1.403   3.879  19.979  0.00  0.00    +0.000 F 
ENDBRANCH   3  25
TORSDOF 5
ENDMDL
MODEL 9
REMARK VINA RESULT:      -7.3      3.908      9.183
REMARK  Name = 
REMARK  7 active torsions:
REMARK  status: ('A' for Active; 'I' for Inactive)
REMARK    1  A    between atoms: C_1  and  O_2
REMARK    2  A    between atoms: O_2  and  C_3
REMARK    3  A    between atoms: C_6  and  C_7
REMARK    4  A    between atoms: C_9  and  C_10
REMARK    5  A    between atoms: C_16  and  C_17
REMARK    6  A    between atoms: C_26  and  O_27
REMARK    7  A    between atoms: O_27  and  C_28
REMARK                            x       y       z     vdW  Elec       q    Type
REMARK                         _______ _______ _______ _____ _____    ______ ____
ROOT
ATOM      1  C   UNL     1       1.395   8.304  20.311  0.00  0.00    +0.000 A 
ATOM      2  C   UNL     1       1.691   9.449  19.392  0.00  0.00    +0.000 A 
ATOM      3  C   UNL     1       1.066  10.616  19.654  0.00  0.00    +0.000 A 
ATOM      4  N   UNL     1       0.194  10.694  20.733  0.00  0.00    +0.000 N 
ATOM      5  N   UNL     1      -0.556  11.745  21.149  0.00  0.00    +0.000 NA
ATOM      6  C   UNL     1      -1.141  11.331  22.276  0.00  0.00    +0.000 A 
ATOM      7  C   UNL     1      -0.837   9.995  22.575  0.00  0.00    +0.000 A 
ATOM      8  C   UNL     1      -0.007   9.583  21.560  0.00  0.00    +0.000 A 
ATOM      9  N   UNL     1       0.584   8.377  21.326  0.00  0.00    +0.000 NA
ENDROOT
BRANCH   1  13
ATOM     10  C   UNL     1       3.421   4.613  19.436  0.00  0.00    +0.000 A 
ATOM     11  C   UNL     1       3.479   5.701  18.552  0.00  0.00    +0.000 A 
ATOM     12  C   UNL     1       2.813   6.892  18.839  0.00  0.00    +0.000 A 
ATOM     13  C   UNL     1       2.049   7.001  20.003  0.00  0.00    +0.000 A 
ATOM     14  C   UNL     1       1.908   5.887  20.833  0.00  0.00    +0.000 A 
ATOM     15  C   UNL     1       2.586   4.689  20.561  0.00  0.00    +0.000 A 
BRANCH  10  17
ATOM     16  C   UNL     1       3.562   2.558  18.267  0.00  0.00    +0.000 C 
ATOM     17  O   UNL     1       4.140   3.472  19.198  0.00  0.00    +0.000 OA
ENDBRANCH  10  17
BRANCH  15  18
ATOM     18  O   UNL     1       2.326   3.739  21.512  0.00  0.00    +0.000 OA
ATOM     19  C   UNL     1       1.285   2.803  21.288  0.00  0.00    +0.000 C 
ENDBRANCH  15  18
ENDBRANCH   1  13
BRANCH   6  20
ATOM     20  C   UNL     1      -2.003  12.220  23.102  0.00  0.00    +0.000 A 
ATOM     21  C   UNL     1      -1.717  13.523  23.464  0.00  0.00    +0.000 A 
ATOM     22  C   UNL     1      -2.793  13.970  24.269  0.00  0.00    +0.000 A 
ATOM     23  C   UNL     1      -3.669  12.915  24.350  0.00  0.00    +0.000 A 
ATOM     24  O   UNL     1      -3.210  11.855  23.637  0.00  0.00    +0.000 OA
ENDBRANCH   6  20
BRANCH   3  25
ATOM     25  C   UNL     1       1.304  11.820  18.822  0.00  0.00    +0.000 C 
ATOM     26  F   UNL     1       1.756  12.925  19.457  0.00  0.00    +0.000 F 
ATOM     27  F   UNL     1       2.216  11.547  17.846  0.00  0.00    +0.000 F 
ATOM     28  F   UNL     1       0.167  12.188  18.168  0.00  0.00    +0.000 F 
ENDBRANCH   3  25
TORSDOF 5
ENDMDL
