MODEL 1
REMARK VINA RESULT:      -7.1      0.000      0.000
REMARK  Name = 
REMARK  11 active torsions:
REMARK  status: ('A' for Active; 'I' for Inactive)
REMARK    1  A    between atoms: C_1  and  C_2
REMARK    2  A    between atoms: C_2  and  C_3
REMARK    3  A    between atoms: C_2  and  O_4
REMARK    4  A    between atoms: O_4  and  C_5
REMARK    5  A    between atoms: C_8  and  C_9
REMARK    6  A    between atoms: C_9  and  N_10
REMARK    7  A    between atoms: C_13  and  C_14
REMARK    8  A    between atoms: C_14  and  C_15
REMARK    9  A    between atoms: C_15  and  C_16
REMARK   10  A    between atoms: C_16  and  C_17
REMARK   11  A    between atoms: C_17  and  C_19
REMARK                            x       y       z     vdW  Elec       q    Type
REMARK                         _______ _______ _______ _____ _____    ______ ____
ROOT
ATOM      1  N   UNL     1       2.740   6.122  19.090  0.00  0.00    +0.000 NA
ATOM      2  C   UNL     1       1.776   5.368  18.271  0.00  0.00    +0.000 C 
ATOM      3  C   UNL     1       1.858   3.849  18.464  0.00  0.00    +0.000 C 
ATOM      4  C   UNL     1       3.274   3.297  18.249  0.00  0.00    +0.000 C 
ATOM      5  C   UNL     1       4.204   4.067  19.191  0.00  0.00    +0.000 C 
ATOM      6  C   UNL     1       4.109   5.584  19.008  0.00  0.00    +0.000 C 
ENDROOT
BRANCH   1   7
ATOM      7  C   UNL     1       2.764   7.552  18.693  0.00  0.00    +0.000 C 
BRANCH   7  11
ATOM      8  C   UNL     1      -0.188  10.057  20.662  0.00  0.00    +0.000 A 
ATOM      9  C   UNL     1       0.452   9.038  21.359  0.00  0.00    +0.000 A 
ATOM     10  C   UNL     1       1.408   8.229  20.722  0.00  0.00    +0.000 A 
ATOM     11  C   UNL     1       1.724   8.421  19.373  0.00  0.00    +0.000 A 
ATOM     12  C   UNL     1       1.086   9.455  18.676  0.00  0.00    +0.000 A 
ATOM     13  C   UNL     1       0.135  10.261  19.320  0.00  0.00    +0.000 A 
BRANCH   8  14
ATOM     14  O   UNL     1      -1.142  10.903  21.159  0.00  0.00    +0.000 OA
BRANCH  14  16
ATOM     15  C   UNL     1      -0.226  12.960  21.934  0.00  0.00    +0.000 C 
ATOM     16  C   UNL     1      -0.869  11.640  22.355  0.00  0.00    +0.000 C 
ATOM     17  C   UNL     1      -2.166  11.920  23.115  0.00  0.00    +0.000 C 
ENDBRANCH  14  16
ENDBRANCH   8  14
ENDBRANCH   7  11
ENDBRANCH   1   7
BRANCH   4  18
ATOM     18  C   UNL     1       3.693   3.328  16.757  0.00  0.00    +0.000 C 
BRANCH  18  19
ATOM     19  C   UNL     1       5.170   3.694  16.558  0.00  0.00    +0.000 C 
BRANCH  19  20
ATOM     20  C   UNL     1       5.373   4.918  15.656  0.00  0.00    +0.000 C 
BRANCH  20  21
ATOM     21  C   UNL     1       6.832   5.371  15.647  0.00  0.00    +0.000 C 
ATOM     22  O   UNL     1       7.562   5.145  14.678  0.00  0.00    +0.000 OA
BRANCH  21  23
ATOM     23  C   UNL     1       7.289   6.070  16.836  0.00  0.00    +0.000 A 
ATOM     24  N   UNL     1       7.464   7.376  16.970  0.00  0.00    +0.000 NA
ATOM     25  C   UNL     1       7.898   7.517  18.265  0.00  0.00    +0.000 A 
ATOM     26  C   UNL     1       7.976   6.289  18.870  0.00  0.00    +0.000 A 
ATOM     27  O   UNL     1       7.585   5.349  17.967  0.00  0.00    +0.000 OA
ENDBRANCH  21  23
ENDBRANCH  20  21
ENDBRANCH  19  20
ENDBRANCH  18  19
ENDBRANCH   4  18
TORSDOF 9
ENDMDL
MODEL 2
REMARK VINA RESULT:      -6.9      3.086      4.611
REMARK  Name = 
REMARK  11 active torsions:
REMARK  status: ('A' for Active; 'I' for Inactive)
REMARK    1  A    between atoms: C_1  and  C_2
REMARK    2  A    between atoms: C_2  and  C_3
REMARK    3  A    between atoms: C_2  and  O_4
REMARK    4  A    between atoms: O_4  and  C_5
REMARK    5  A    between atoms: C_8  and  C_9
REMARK    6  A    between atoms: C_9  and  N_10
REMARK    7  A    between atoms: C_13  and  C_14
REMARK    8  A    between atoms: C_14  and  C_15
REMARK    9  A    between atoms: C_15  and  C_16
REMARK   10  A    between atoms: C_16  and  C_17
REMARK   11  A    between atoms: C_17  and  C_19
REMARK                            x       y       z     vdW  Elec       q    Type
REMARK                         _______ _______ _______ _____ _____    ______ ____
ROOT
ATOM      1  N   UNL     1       4.411   4.478  17.954  0.00  0.00    +0.000 NA
ATOM      2  C   UNL     1       5.017   4.836  16.660  0.00  0.00    +0.000 C 
ATOM      3  C   UNL     1       6.550   4.823  16.672  0.00  0.00    +0.000 C 
ATOM      4  C   UNL     1       7.144   5.693  17.789  0.00  0.00    +0.000 C 
ATOM      5  C   UNL     1       6.535   5.209  19.108  0.00  0.00    +0.000 C 
ATOM      6  C   UNL     1       5.004   5.208  19.088  0.00  0.00    +0.000 C 
ENDROOT
BRANCH   1   7
ATOM      7  C   UNL     1       2.948   4.728  17.938  0.00  0.00    +0.000 C 
BRANCH   7  11
ATOM      8  C   UNL     1       1.696   8.542  19.598  0.00  0.00    +0.000 A 
ATOM      9  C   UNL     1       2.124   8.453  18.279  0.00  0.00    +0.000 A 
ATOM     10  C   UNL     1       2.528   7.218  17.742  0.00  0.00    +0.000 A 
ATOM     11  C   UNL     1       2.521   6.060  18.525  0.00  0.00    +0.000 A 
ATOM     12  C   UNL     1       2.080   6.151  19.852  0.00  0.00    +0.000 A 
ATOM     13  C   UNL     1       1.675   7.386  20.380  0.00  0.00    +0.000 A 
BRANCH   8  14
ATOM     14  O   UNL     1       1.292   9.680  20.243  0.00  0.00    +0.000 OA
BRANCH  14  16
ATOM     15  C   UNL     1      -0.152  10.937  21.659  0.00  0.00    +0.000 C 
ATOM     16  C   UNL     1      -0.081   9.819  20.620  0.00  0.00    +0.000 C 
ATOM     17  C   UNL     1      -0.931  10.192  19.405  0.00  0.00    +0.000 C 
ENDBRANCH  14  16
ENDBRANCH   8  14
ENDBRANCH   7  11
ENDBRANCH   1   7
BRANCH   4  18
ATOM     18  C   UNL     1       6.964   7.207  17.509  0.00  0.00    +0.000 C 
BRANCH  18  19
ATOM     19  C   UNL     1       8.240   8.020  17.766  0.00  0.00    +0.000 C 
BRANCH  19  20
ATOM     20  C   UNL     1       8.009   9.536  17.732  0.00  0.00    +0.000 C 
BRANCH  20  21
ATOM     21  C   UNL     1       9.007  10.275  18.622  0.00  0.00    +0.000 C 
ATOM     22  O   UNL     1       9.388   9.787  19.690  0.00  0.00    +0.000 OA
BRANCH  21  23
ATOM     23  C   UNL     1       9.464  11.563  18.131  0.00  0.00    +0.000 A 
ATOM     24  N   UNL     1       8.714  12.620  17.859  0.00  0.00    +0.000 NA
ATOM     25  C   UNL     1       9.619  13.562  17.435  0.00  0.00    +0.000 A 
ATOM     26  C   UNL     1      10.886  13.041  17.459  0.00  0.00    +0.000 A 
ATOM     27  O   UNL     1      10.805  11.758  17.906  0.00  0.00    +0.000 OA
ENDBRANCH  21  23
ENDBRANCH  20  21
ENDBRANCH  19  20
ENDBRANCH  18  19
ENDBRANCH   4  18
TORSDOF 9
ENDMDL
MODEL 3
REMARK VINA RESULT:      -6.9      1.866      2.316
REMARK  Name = 
REMARK  11 active torsions:
REMARK  status: ('A' for Active; 'I' for Inactive)
REMARK    1  A    between atoms: C_1  and  C_2
REMARK    2  A    between atoms: C_2  and  C_3
REMARK    3  A    between atoms: C_2  and  O_4
REMARK    4  A    between atoms: O_4  and  C_5
REMARK    5  A    between atoms: C_8  and  C_9
REMARK    6  A    between atoms: C_9  and  N_10
REMARK    7  A    between atoms: C_13  and  C_14
REMARK    8  A    between atoms: C_14  and  C_15
REMARK    9  A    between atoms: C_15  and  C_16
REMARK   10  A    between atoms: C_16  and  C_17
REMARK   11  A    between atoms: C_17  and  C_19
REMARK                            x       y       z     vdW  Elec       q    Type
REMARK                         _______ _______ _______ _____ _____    ______ ____
ROOT
ATOM      1  N   UNL     1       2.542   4.465  19.842  0.00  0.00    +0.000 NA
ATOM      2  C   UNL     1       1.837   4.747  18.580  0.00  0.00    +0.000 C 
ATOM      3  C   UNL     1       2.123   3.725  17.472  0.00  0.00    +0.000 C 
ATOM      4  C   UNL     1       3.623   3.543  17.205  0.00  0.00    +0.000 C 
ATOM      5  C   UNL     1       4.275   3.170  18.540  0.00  0.00    +0.000 C 
ATOM      6  C   UNL     1       3.975   4.182  19.649  0.00  0.00    +0.000 C 
ENDROOT
BRANCH   1   7
ATOM      7  C   UNL     1       2.403   5.600  20.788  0.00  0.00    +0.000 C 
BRANCH   7  11
ATOM      8  C   UNL     1       1.347   9.405  18.978  0.00  0.00    +0.000 A 
ATOM      9  C   UNL     1       0.874   9.069  20.241  0.00  0.00    +0.000 A 
ATOM     10  C   UNL     1       1.217   7.838  20.826  0.00  0.00    +0.000 A 
ATOM     11  C   UNL     1       2.027   6.923  20.147  0.00  0.00    +0.000 A 
ATOM     12  C   UNL     1       2.510   7.269  18.879  0.00  0.00    +0.000 A 
ATOM     13  C   UNL     1       2.167   8.500  18.302  0.00  0.00    +0.000 A 
BRANCH   8  14
ATOM     14  O   UNL     1       1.078  10.560  18.294  0.00  0.00    +0.000 OA
BRANCH  14  16
ATOM     15  C   UNL     1       2.529  12.440  18.111  0.00  0.00    +0.000 C 
ATOM     16  C   UNL     1       1.378  11.820  18.902  0.00  0.00    +0.000 C 
ATOM     17  C   UNL     1       0.159  12.741  18.845  0.00  0.00    +0.000 C 
ENDBRANCH  14  16
ENDBRANCH   8  14
ENDBRANCH   7  11
ENDBRANCH   1   7
BRANCH   4  18
ATOM     18  C   UNL     1       4.247   4.775  16.502  0.00  0.00    +0.000 C 
BRANCH  18  19
ATOM     19  C   UNL     1       4.781   4.457  15.099  0.00  0.00    +0.000 C 
BRANCH  19  20
ATOM     20  C   UNL     1       6.202   3.878  15.109  0.00  0.00    +0.000 C 
BRANCH  20  21
ATOM     21  C   UNL     1       7.253   4.976  15.255  0.00  0.00    +0.000 C 
ATOM     22  O   UNL     1       7.856   5.413  14.270  0.00  0.00    +0.000 OA
BRANCH  21  23
ATOM     23  C   UNL     1       7.487   5.459  16.605  0.00  0.00    +0.000 A 
ATOM     24  N   UNL     1       7.657   4.722  17.692  0.00  0.00    +0.000 NA
ATOM     25  C   UNL     1       7.839   5.648  18.689  0.00  0.00    +0.000 A 
ATOM     26  C   UNL     1       7.768   6.915  18.172  0.00  0.00    +0.000 A 
ATOM     27  O   UNL     1       7.545   6.812  16.834  0.00  0.00    +0.000 OA
ENDBRANCH  21  23
ENDBRANCH  20  21
ENDBRANCH  19  20
ENDBRANCH  18  19
ENDBRANCH   4  18
TORSDOF 9
ENDMDL
MODEL 4
REMARK VINA RESULT:      -6.9      3.279      4.851
REMARK  Name = 
REMARK  11 active torsions:
REMARK  status: ('A' for Active; 'I' for Inactive)
REMARK    1  A    between atoms: C_1  and  C_2
REMARK    2  A    between atoms: C_2  and  C_3
REMARK    3  A    between atoms: C_2  and  O_4
REMARK    4  A    between atoms: O_4  and  C_5
REMARK    5  A    between atoms: C_8  and  C_9
REMARK    6  A    between atoms: C_9  and  N_10
REMARK    7  A    between atoms: C_13  and  C_14
REMARK    8  A    between atoms: C_14  and  C_15
REMARK    9  A    between atoms: C_15  and  C_16
REMARK   10  A    between atoms: C_16  and  C_17
REMARK   11  A    between atoms: C_17  and  C_19
REMARK                            x       y       z     vdW  Elec       q    Type
REMARK                         _______ _______ _______ _____ _____    ______ ____
ROOT
ATOM      1  N   UNL     1       4.858   4.763  17.828  0.00  0.00    +0.000 NA
ATOM      2  C   UNL     1       5.431   5.389  16.624  0.00  0.00    +0.000 C 
ATOM      3  C   UNL     1       6.957   5.538  16.674  0.00  0.00    +0.000 C 
ATOM      4  C   UNL     1       7.442   6.274  17.931  0.00  0.00    +0.000 C 
ATOM      5  C   UNL     1       6.878   5.520  19.139  0.00  0.00    +0.000 C 
ATOM      6  C   UNL     1       5.357   5.358  19.079  0.00  0.00    +0.000 C 
ENDROOT
BRANCH   1   7
ATOM      7  C   UNL     1       3.376   4.854  17.814  0.00  0.00    +0.000 C 
BRANCH   7  11
ATOM      8  C   UNL     1       1.786   8.572  19.400  0.00  0.00    +0.000 A 
ATOM      9  C   UNL     1       1.786   7.417  20.173  0.00  0.00    +0.000 A 
ATOM     10  C   UNL     1       2.302   6.215  19.660  0.00  0.00    +0.000 A 
ATOM     11  C   UNL     1       2.811   6.151  18.359  0.00  0.00    +0.000 A 
ATOM     12  C   UNL     1       2.819   7.319  17.585  0.00  0.00    +0.000 A 
ATOM     13  C   UNL     1       2.306   8.516  18.105  0.00  0.00    +0.000 A 
BRANCH   8  14
ATOM     14  O   UNL     1       1.304   9.797  19.774  0.00  0.00    +0.000 OA
BRANCH  14  16
ATOM     15  C   UNL     1      -0.112  11.043  21.228  0.00  0.00    +0.000 C 
ATOM     16  C   UNL     1      -0.056   9.913  20.201  0.00  0.00    +0.000 C 
ATOM     17  C   UNL     1      -0.960  10.252  19.015  0.00  0.00    +0.000 C 
ENDBRANCH  14  16
ENDBRANCH   8  14
ENDBRANCH   7  11
ENDBRANCH   1   7
BRANCH   4  18
ATOM     18  C   UNL     1       7.098   7.785  17.893  0.00  0.00    +0.000 C 
BRANCH  18  19
ATOM     19  C   UNL     1       8.309   8.666  17.556  0.00  0.00    +0.000 C 
BRANCH  19  20
ATOM     20  C   UNL     1       8.118  10.135  17.957  0.00  0.00    +0.000 C 
BRANCH  20  21
ATOM     21  C   UNL     1       9.246  10.617  18.868  0.00  0.00    +0.000 C 
ATOM     22  O   UNL     1       9.352  10.197  20.023  0.00  0.00    +0.000 OA
BRANCH  21  23
ATOM     23  C   UNL     1      10.163  11.584  18.289  0.00  0.00    +0.000 A 
ATOM     24  N   UNL     1      11.473  11.641  18.469  0.00  0.00    +0.000 NA
ATOM     25  C   UNL     1      11.861  12.720  17.713  0.00  0.00    +0.000 A 
ATOM     26  C   UNL     1      10.769  13.282  17.105  0.00  0.00    +0.000 A 
ATOM     27  O   UNL     1       9.671  12.563  17.461  0.00  0.00    +0.000 OA
ENDBRANCH  21  23
ENDBRANCH  20  21
ENDBRANCH  19  20
ENDBRANCH  18  19
ENDBRANCH   4  18
TORSDOF 9
ENDMDL
MODEL 5
REMARK VINA RESULT:      -6.9      2.308      3.001
REMARK  Name = 
REMARK  11 active torsions:
REMARK  status: ('A' for Active; 'I' for Inactive)
REMARK    1  A    between atoms: C_1  and  C_2
REMARK    2  A    between atoms: C_2  and  C_3
REMARK    3  A    between atoms: C_2  and  O_4
REMARK    4  A    between atoms: O_4  and  C_5
REMARK    5  A    between atoms: C_8  and  C_9
REMARK    6  A    between atoms: C_9  and  N_10
REMARK    7  A    between atoms: C_13  and  C_14
REMARK    8  A    between atoms: C_14  and  C_15
REMARK    9  A    between atoms: C_15  and  C_16
REMARK   10  A    between atoms: C_16  and  C_17
REMARK   11  A    between atoms: C_17  and  C_19
REMARK                            x       y       z     vdW  Elec       q    Type
REMARK                         _______ _______ _______ _____ _____    ______ ____
ROOT
ATOM      1  N   UNL     1       2.252   4.954  19.831  0.00  0.00    +0.000 NA
ATOM      2  C   UNL     1       1.726   4.638  18.492  0.00  0.00    +0.000 C 
ATOM      3  C   UNL     1       1.080   3.250  18.395  0.00  0.00    +0.000 C 
ATOM      4  C   UNL     1       2.011   2.127  18.871  0.00  0.00    +0.000 C 
ATOM      5  C   UNL     1       2.449   2.480  20.296  0.00  0.00    +0.000 C 
ATOM      6  C   UNL     1       3.078   3.872  20.394  0.00  0.00    +0.000 C 
ENDROOT
BRANCH   1   7
ATOM      7  C   UNL     1       3.055   6.202  19.801  0.00  0.00    +0.000 C 
BRANCH   7  11
ATOM      8  C   UNL     1       0.802   9.839  19.049  0.00  0.00    +0.000 A 
ATOM      9  C   UNL     1       0.719   9.199  20.280  0.00  0.00    +0.000 A 
ATOM     10  C   UNL     1       1.449   8.023  20.522  0.00  0.00    +0.000 A 
ATOM     11  C   UNL     1       2.261   7.466  19.530  0.00  0.00    +0.000 A 
ATOM     12  C   UNL     1       2.351   8.119  18.294  0.00  0.00    +0.000 A 
ATOM     13  C   UNL     1       1.623   9.294  18.059  0.00  0.00    +0.000 A 
BRANCH   8  14
ATOM     14  O   UNL     1       0.137  10.978  18.681  0.00  0.00    +0.000 OA
BRANCH  14  16
ATOM     15  C   UNL     1      -1.748  12.408  18.418  0.00  0.00    +0.000 C 
ATOM     16  C   UNL     1      -1.292  10.965  18.626  0.00  0.00    +0.000 C 
ATOM     17  C   UNL     1      -1.772  10.101  17.459  0.00  0.00    +0.000 C 
ENDBRANCH  14  16
ENDBRANCH   8  14
ENDBRANCH   7  11
ENDBRANCH   1   7
BRANCH   4  18
ATOM     18  C   UNL     1       3.176   1.872  17.880  0.00  0.00    +0.000 C 
BRANCH  18  19
ATOM     19  C   UNL     1       3.464   3.075  16.972  0.00  0.00    +0.000 C 
BRANCH  19  20
ATOM     20  C   UNL     1       4.911   3.575  17.071  0.00  0.00    +0.000 C 
BRANCH  20  21
ATOM     21  C   UNL     1       5.117   4.854  16.263  0.00  0.00    +0.000 C 
ATOM     22  O   UNL     1       4.588   5.915  16.606  0.00  0.00    +0.000 OA
BRANCH  21  23
ATOM     23  C   UNL     1       5.963   4.735  15.087  0.00  0.00    +0.000 A 
ATOM     24  N   UNL     1       7.127   5.331  14.884  0.00  0.00    +0.000 NA
ATOM     25  C   UNL     1       7.507   4.891  13.640  0.00  0.00    +0.000 A 
ATOM     26  C   UNL     1       6.556   4.047  13.130  0.00  0.00    +0.000 A 
ATOM     27  O   UNL     1       5.558   3.933  14.048  0.00  0.00    +0.000 OA
ENDBRANCH  21  23
ENDBRANCH  20  21
ENDBRANCH  19  20
ENDBRANCH  18  19
ENDBRANCH   4  18
TORSDOF 9
ENDMDL
MODEL 6
REMARK VINA RESULT:      -6.9      3.383      5.172
REMARK  Name = 
REMARK  11 active torsions:
REMARK  status: ('A' for Active; 'I' for Inactive)
REMARK    1  A    between atoms: C_1  and  C_2
REMARK    2  A    between atoms: C_2  and  C_3
REMARK    3  A    between atoms: C_2  and  O_4
REMARK    4  A    between atoms: O_4  and  C_5
REMARK    5  A    between atoms: C_8  and  C_9
REMARK    6  A    between atoms: C_9  and  N_10
REMARK    7  A    between atoms: C_13  and  C_14
REMARK    8  A    between atoms: C_14  and  C_15
REMARK    9  A    between atoms: C_15  and  C_16
REMARK   10  A    between atoms: C_16  and  C_17
REMARK   11  A    between atoms: C_17  and  C_19
REMARK                            x       y       z     vdW  Elec       q    Type
REMARK                         _______ _______ _______ _____ _____    ______ ____
ROOT
ATOM      1  N   UNL     1       5.346   4.755  17.962  0.00  0.00    +0.000 NA
ATOM      2  C   UNL     1       5.683   5.424  16.694  0.00  0.00    +0.000 C 
ATOM      3  C   UNL     1       7.171   5.771  16.557  0.00  0.00    +0.000 C 
ATOM      4  C   UNL     1       7.701   6.592  17.741  0.00  0.00    +0.000 C 
ATOM      5  C   UNL     1       7.391   5.797  19.013  0.00  0.00    +0.000 C 
ATOM      6  C   UNL     1       5.908   5.438  19.140  0.00  0.00    +0.000 C 
ENDROOT
BRANCH   1   7
ATOM      7  C   UNL     1       3.874   4.652  18.127  0.00  0.00    +0.000 C 
BRANCH   7  11
ATOM      8  C   UNL     1       1.868   8.349  19.211  0.00  0.00    +0.000 A 
ATOM      9  C   UNL     1       2.434   8.197  17.951  0.00  0.00    +0.000 A 
ATOM     10  C   UNL     1       3.082   7.000  17.601  0.00  0.00    +0.000 A 
ATOM     11  C   UNL     1       3.183   5.946  18.514  0.00  0.00    +0.000 A 
ATOM     12  C   UNL     1       2.602   6.099  19.780  0.00  0.00    +0.000 A 
ATOM     13  C   UNL     1       1.954   7.295  20.121  0.00  0.00    +0.000 A 
BRANCH   8  14
ATOM     14  O   UNL     1       1.223   9.462  19.680  0.00  0.00    +0.000 OA
BRANCH  14  16
ATOM     15  C   UNL     1      -0.861  10.332  18.926  0.00  0.00    +0.000 C 
ATOM     16  C   UNL     1       0.655  10.387  18.748  0.00  0.00    +0.000 C 
ATOM     17  C   UNL     1       1.156  11.804  19.032  0.00  0.00    +0.000 C 
ENDBRANCH  14  16
ENDBRANCH   8  14
ENDBRANCH   7  11
ENDBRANCH   1   7
BRANCH   4  18
ATOM     18  C   UNL     1       7.159   8.044  17.736  0.00  0.00    +0.000 C 
BRANCH  18  19
ATOM     19  C   UNL     1       8.267   9.096  17.589  0.00  0.00    +0.000 C 
BRANCH  19  20
ATOM     20  C   UNL     1       8.869   9.532  18.932  0.00  0.00    +0.000 C 
BRANCH  20  21
ATOM     21  C   UNL     1       9.567  10.886  18.819  0.00  0.00    +0.000 C 
ATOM     22  O   UNL     1      10.148  11.217  17.781  0.00  0.00    +0.000 OA
BRANCH  21  23
ATOM     23  C   UNL     1       9.500  11.736  19.995  0.00  0.00    +0.000 A 
ATOM     24  N   UNL     1       9.918  12.989  20.092  0.00  0.00    +0.000 NA
ATOM     25  C   UNL     1       9.629  13.330  21.391  0.00  0.00    +0.000 A 
ATOM     26  C   UNL     1       9.051  12.269  22.037  0.00  0.00    +0.000 A 
ATOM     27  O   UNL     1       8.958  11.238  21.154  0.00  0.00    +0.000 OA
ENDBRANCH  21  23
ENDBRANCH  20  21
ENDBRANCH  19  20
ENDBRANCH  18  19
ENDBRANCH   4  18
TORSDOF 9
ENDMDL
MODEL 7
REMARK VINA RESULT:      -6.8      3.420      5.088
REMARK  Name = 
REMARK  11 active torsions:
REMARK  status: ('A' for Active; 'I' for Inactive)
REMARK    1  A    between atoms: C_1  and  C_2
REMARK    2  A    between atoms: C_2  and  C_3
REMARK    3  A    between atoms: C_2  and  O_4
REMARK    4  A    between atoms: O_4  and  C_5
REMARK    5  A    between atoms: C_8  and  C_9
REMARK    6  A    between atoms: C_9  and  N_10
REMARK    7  A    between atoms: C_13  and  C_14
REMARK    8  A    between atoms: C_14  and  C_15
REMARK    9  A    between atoms: C_15  and  C_16
REMARK   10  A    between atoms: C_16  and  C_17
REMARK   11  A    between atoms: C_17  and  C_19
REMARK                            x       y       z     vdW  Elec       q    Type
REMARK                         _______ _______ _______ _____ _____    ______ ____
ROOT
ATOM      1  N   UNL     1       5.168   4.784  17.723  0.00  0.00    +0.000 NA
ATOM      2  C   UNL     1       5.640   5.458  16.501  0.00  0.00    +0.000 C 
ATOM      3  C   UNL     1       7.144   5.757  16.503  0.00  0.00    +0.000 C 
ATOM      4  C   UNL     1       7.593   6.543  17.743  0.00  0.00    +0.000 C 
ATOM      5  C   UNL     1       7.144   5.742  18.970  0.00  0.00    +0.000 C 
ATOM      6  C   UNL     1       5.645   5.431  18.957  0.00  0.00    +0.000 C 
ENDROOT
BRANCH   1   7
ATOM      7  C   UNL     1       3.685   4.728  17.755  0.00  0.00    +0.000 C 
BRANCH   7  11
ATOM      8  C   UNL     1       1.789   8.230  19.490  0.00  0.00    +0.000 A 
ATOM      9  C   UNL     1       1.910   7.056  20.224  0.00  0.00    +0.000 A 
ATOM     10  C   UNL     1       2.525   5.924  19.662  0.00  0.00    +0.000 A 
ATOM     11  C   UNL     1       3.013   5.949  18.353  0.00  0.00    +0.000 A 
ATOM     12  C   UNL     1       2.899   7.137  17.618  0.00  0.00    +0.000 A 
ATOM     13  C   UNL     1       2.287   8.264  18.187  0.00  0.00    +0.000 A 
BRANCH   8  14
ATOM     14  O   UNL     1       1.203   9.393  19.913  0.00  0.00    +0.000 OA
BRANCH  14  16
ATOM     15  C   UNL     1      -0.659  10.305  18.742  0.00  0.00    +0.000 C 
ATOM     16  C   UNL     1       0.852  10.390  18.949  0.00  0.00    +0.000 C 
ATOM     17  C   UNL     1       1.223  11.781  19.463  0.00  0.00    +0.000 C 
ENDBRANCH  14  16
ENDBRANCH   8  14
ENDBRANCH   7  11
ENDBRANCH   1   7
BRANCH   4  18
ATOM     18  C   UNL     1       7.100   8.013  17.713  0.00  0.00    +0.000 C 
BRANCH  18  19
ATOM     19  C   UNL     1       8.245   9.025  17.570  0.00  0.00    +0.000 C 
BRANCH  19  20
ATOM     20  C   UNL     1       8.848   9.451  18.915  0.00  0.00    +0.000 C 
BRANCH  20  21
ATOM     21  C   UNL     1       9.551  10.803  18.810  0.00  0.00    +0.000 C 
ATOM     22  O   UNL     1      10.084  11.162  17.757  0.00  0.00    +0.000 OA
BRANCH  21  23
ATOM     23  C   UNL     1       9.546  11.617  20.013  0.00  0.00    +0.000 A 
ATOM     24  N   UNL     1       9.065  11.277  21.199  0.00  0.00    +0.000 NA
ATOM     25  C   UNL     1       9.303  12.383  21.978  0.00  0.00    +0.000 A 
ATOM     26  C   UNL     1       9.916  13.358  21.234  0.00  0.00    +0.000 A 
ATOM     27  O   UNL     1      10.082  12.881  19.970  0.00  0.00    +0.000 OA
ENDBRANCH  21  23
ENDBRANCH  20  21
ENDBRANCH  19  20
ENDBRANCH  18  19
ENDBRANCH   4  18
TORSDOF 9
ENDMDL
MODEL 8
REMARK VINA RESULT:      -6.8      1.344      2.317
REMARK  Name = 
REMARK  11 active torsions:
REMARK  status: ('A' for Active; 'I' for Inactive)
REMARK    1  A    between atoms: C_1  and  C_2
REMARK    2  A    between atoms: C_2  and  C_3
REMARK    3  A    between atoms: C_2  and  O_4
REMARK    4  A    between atoms: O_4  and  C_5
REMARK    5  A    between atoms: C_8  and  C_9
REMARK    6  A    between atoms: C_9  and  N_10
REMARK    7  A    between atoms: C_13  and  C_14
REMARK    8  A    between atoms: C_14  and  C_15
REMARK    9  A    between atoms: C_15  and  C_16
REMARK   10  A    between atoms: C_16  and  C_17
REMARK   11  A    between atoms: C_17  and  C_19
REMARK                            x       y       z     vdW  Elec       q    Type
REMARK                         _______ _______ _______ _____ _____    ______ ____
ROOT
ATOM      1  N   UNL     1       1.921   5.946  19.534  0.00  0.00    +0.000 NA
ATOM      2  C   UNL     1       1.955   5.557  18.114  0.00  0.00    +0.000 C 
ATOM      3  C   UNL     1       1.584   4.089  17.869  0.00  0.00    +0.000 C 
ATOM      4  C   UNL     1       2.430   3.115  18.700  0.00  0.00    +0.000 C 
ATOM      5  C   UNL     1       2.279   3.528  20.167  0.00  0.00    +0.000 C 
ATOM      6  C   UNL     1       2.634   4.998  20.408  0.00  0.00    +0.000 C 
ENDROOT
BRANCH   1   7
ATOM      7  C   UNL     1       2.503   7.299  19.723  0.00  0.00    +0.000 C 
BRANCH   7  11
ATOM      8  C   UNL     1      -0.387  10.377  20.747  0.00  0.00    +0.000 A 
ATOM      9  C   UNL     1       0.244  10.385  19.509  0.00  0.00    +0.000 A 
ATOM     10  C   UNL     1       1.178   9.388  19.178  0.00  0.00    +0.000 A 
ATOM     11  C   UNL     1       1.502   8.379  20.089  0.00  0.00    +0.000 A 
ATOM     12  C   UNL     1       0.857   8.367  21.333  0.00  0.00    +0.000 A 
ATOM     13  C   UNL     1      -0.077   9.363  21.655  0.00  0.00    +0.000 A 
BRANCH   8  14
ATOM     14  O   UNL     1      -1.301  11.292  21.197  0.00  0.00    +0.000 OA
BRANCH  14  16
ATOM     15  C   UNL     1      -0.507  13.231  22.327  0.00  0.00    +0.000 C 
ATOM     16  C   UNL     1      -1.144  11.854  22.503  0.00  0.00    +0.000 C 
ATOM     17  C   UNL     1      -2.504  12.000  23.186  0.00  0.00    +0.000 C 
ENDBRANCH  14  16
ENDBRANCH   8  14
ENDBRANCH   7  11
ENDBRANCH   1   7
BRANCH   4  18
ATOM     18  C   UNL     1       3.894   3.034  18.197  0.00  0.00    +0.000 C 
BRANCH  18  19
ATOM     19  C   UNL     1       4.912   3.512  19.240  0.00  0.00    +0.000 C 
BRANCH  19  20
ATOM     20  C   UNL     1       5.492   4.899  18.929  0.00  0.00    +0.000 C 
BRANCH  20  21
ATOM     21  C   UNL     1       6.803   4.796  18.153  0.00  0.00    +0.000 C 
ATOM     22  O   UNL     1       7.881   4.665  18.741  0.00  0.00    +0.000 OA
BRANCH  21  23
ATOM     23  C   UNL     1       6.693   4.861  16.706  0.00  0.00    +0.000 A 
ATOM     24  N   UNL     1       7.623   4.528  15.824  0.00  0.00    +0.000 NA
ATOM     25  C   UNL     1       7.026   4.772  14.612  0.00  0.00    +0.000 A 
ATOM     26  C   UNL     1       5.756   5.250  14.802  0.00  0.00    +0.000 A 
ATOM     27  O   UNL     1       5.525   5.311  16.141  0.00  0.00    +0.000 OA
ENDBRANCH  21  23
ENDBRANCH  20  21
ENDBRANCH  19  20
ENDBRANCH  18  19
ENDBRANCH   4  18
TORSDOF 9
ENDMDL
MODEL 9
REMARK VINA RESULT:      -6.7      2.242      2.832
REMARK  Name = 
REMARK  11 active torsions:
REMARK  status: ('A' for Active; 'I' for Inactive)
REMARK    1  A    between atoms: C_1  and  C_2
REMARK    2  A    between atoms: C_2  and  C_3
REMARK    3  A    between atoms: C_2  and  O_4
REMARK    4  A    between atoms: O_4  and  C_5
REMARK    5  A    between atoms: C_8  and  C_9
REMARK    6  A    between atoms: C_9  and  N_10
REMARK    7  A    between atoms: C_13  and  C_14
REMARK    8  A    between atoms: C_14  and  C_15
REMARK    9  A    between atoms: C_15  and  C_16
REMARK   10  A    between atoms: C_16  and  C_17
REMARK   11  A    between atoms: C_17  and  C_19
REMARK                            x       y       z     vdW  Elec       q    Type
REMARK                         _______ _______ _______ _____ _____    ______ ____
ROOT
ATOM      1  N   UNL     1       2.113   3.049  20.429  0.00  0.00    +0.000 NA
ATOM      2  C   UNL     1       1.276   2.821  19.238  0.00  0.00    +0.000 C 
ATOM      3  C   UNL     1       1.845   1.770  18.277  0.00  0.00    +0.000 C 
ATOM      4  C   UNL     1       3.289   2.072  17.853  0.00  0.00    +0.000 C 
ATOM      5  C   UNL     1       4.114   2.213  19.136  0.00  0.00    +0.000 C 
ATOM      6  C   UNL     1       3.535   3.250  20.102  0.00  0.00    +0.000 C 
ENDROOT
BRANCH   1   7
ATOM      7  C   UNL     1       1.629   4.224  21.195  0.00  0.00    +0.000 C 
BRANCH   7  11
ATOM      8  C   UNL     1       2.060   8.044  19.171  0.00  0.00    +0.000 A 
ATOM      9  C   UNL     1       1.609   7.988  20.485  0.00  0.00    +0.000 A 
ATOM     10  C   UNL     1       1.471   6.752  21.139  0.00  0.00    +0.000 A 
ATOM     11  C   UNL     1       1.769   5.555  20.481  0.00  0.00    +0.000 A 
ATOM     12  C   UNL     1       2.233   5.615  19.160  0.00  0.00    +0.000 A 
ATOM     13  C   UNL     1       2.372   6.852  18.514  0.00  0.00    +0.000 A 
BRANCH   8  14
ATOM     14  O   UNL     1       2.225   9.175  18.419  0.00  0.00    +0.000 OA
BRANCH  14  16
ATOM     15  C   UNL     1       2.065  11.523  18.054  0.00  0.00    +0.000 C 
ATOM     16  C   UNL     1       1.371  10.299  18.649  0.00  0.00    +0.000 C 
ATOM     17  C   UNL     1       0.021  10.090  17.962  0.00  0.00    +0.000 C 
ENDBRANCH  14  16
ENDBRANCH   8  14
ENDBRANCH   7  11
ENDBRANCH   1   7
BRANCH   4  18
ATOM     18  C   UNL     1       3.376   3.286  16.892  0.00  0.00    +0.000 C 
BRANCH  18  19
ATOM     19  C   UNL     1       4.815   3.769  16.666  0.00  0.00    +0.000 C 
BRANCH  19  20
ATOM     20  C   UNL     1       4.904   5.261  16.317  0.00  0.00    +0.000 C 
BRANCH  20  21
ATOM     21  C   UNL     1       6.332   5.667  15.957  0.00  0.00    +0.000 C 
ATOM     22  O   UNL     1       6.805   5.408  14.847  0.00  0.00    +0.000 OA
BRANCH  21  23
ATOM     23  C   UNL     1       7.076   6.363  16.993  0.00  0.00    +0.000 A 
ATOM     24  N   UNL     1       7.491   7.619  16.962  0.00  0.00    +0.000 NA
ATOM     25  C   UNL     1       8.133   7.781  18.166  0.00  0.00    +0.000 A 
ATOM     26  C   UNL     1       8.088   6.614  18.882  0.00  0.00    +0.000 A 
ATOM     27  O   UNL     1       7.410   5.693  18.145  0.00  0.00    +0.000 OA
ENDBRANCH  21  23
ENDBRANCH  20  21
ENDBRANCH  19  20
ENDBRANCH  18  19
ENDBRANCH   4  18
TORSDOF 9
ENDMDL
