MODEL 1
REMARK VINA RESULT:      -6.4      0.000      0.000
REMARK  Name = 
REMARK  3 active torsions:
REMARK  status: ('A' for Active; 'I' for Inactive)
REMARK    1  A    between atoms: C_2  and  C_3
REMARK    2  A    between atoms: C_2  and  C_12
REMARK    3  A    between atoms: C_7  and  N_8
REMARK                            x       y       z     vdW  Elec       q    Type
REMARK                         _______ _______ _______ _____ _____    ______ ____
ROOT
ATOM      1  C   UNL     1       3.887   4.725  18.133  0.00  0.00    +0.000 A 
ATOM      2  C   UNL     1       3.439   6.047  18.004  0.00  0.00    +0.000 A 
ATOM      3  C   UNL     1       4.216   6.991  17.319  0.00  0.00    +0.000 A 
ATOM      4  C   UNL     1       5.448   6.629  16.774  0.00  0.00    +0.000 A 
ATOM      5  C   UNL     1       5.911   5.318  16.930  0.00  0.00    +0.000 A 
ATOM      6  C   UNL     1       5.137   4.363  17.604  0.00  0.00    +0.000 A 
ENDROOT
BRANCH   5   7
ATOM      7  N   UNL     1       7.218   4.937  16.380  0.00  0.00    +0.000 N 
ATOM      8  O   UNL     1       7.961   4.245  17.091  0.00  0.00    +0.000 OA
ATOM      9  O   UNL     1       7.496   5.320  15.236  0.00  0.00    +0.000 OA
ENDBRANCH   5   7
BRANCH   1  11
ATOM     10  O   UNL     1       3.646   2.625  19.112  0.00  0.00    +0.000 OA
ATOM     11  C   UNL     1       3.061   3.649  18.763  0.00  0.00    +0.000 C 
BRANCH  11  12
ATOM     12  C   UNL     1       1.568   3.874  18.928  0.00  0.00    +0.000 C 
ATOM     13 CL   UNL     1       0.719   2.329  18.727  0.00  0.00    +0.000 Cl
ATOM     14 CL   UNL     1       1.221   4.560  20.531  0.00  0.00    +0.000 Cl
ENDBRANCH  11  12
ENDBRANCH   1  11
TORSDOF 3
ENDMDL
MODEL 2
REMARK VINA RESULT:      -6.3      0.734      1.105
REMARK  Name = 
REMARK  3 active torsions:
REMARK  status: ('A' for Active; 'I' for Inactive)
REMARK    1  A    between atoms: C_2  and  C_3
REMARK    2  A    between atoms: C_2  and  C_12
REMARK    3  A    between atoms: C_7  and  N_8
REMARK                            x       y       z     vdW  Elec       q    Type
REMARK                         _______ _______ _______ _____ _____    ______ ____
ROOT
ATOM      1  C   UNL     1       4.106   4.569  18.632  0.00  0.00    +0.000 A 
ATOM      2  C   UNL     1       3.463   5.790  18.386  0.00  0.00    +0.000 A 
ATOM      3  C   UNL     1       4.034   6.725  17.512  0.00  0.00    +0.000 A 
ATOM      4  C   UNL     1       5.255   6.456  16.894  0.00  0.00    +0.000 A 
ATOM      5  C   UNL     1       5.914   5.252  17.164  0.00  0.00    +0.000 A 
ATOM      6  C   UNL     1       5.346   4.306  18.028  0.00  0.00    +0.000 A 
ENDROOT
BRANCH   5   7
ATOM      7  N   UNL     1       7.212   4.975  16.535  0.00  0.00    +0.000 N 
ATOM      8  O   UNL     1       7.444   5.507  15.439  0.00  0.00    +0.000 OA
ATOM      9  O   UNL     1       8.001   4.237  17.140  0.00  0.00    +0.000 OA
ENDBRANCH   5   7
BRANCH   1  11
ATOM     10  O   UNL     1       4.235   2.565  19.813  0.00  0.00    +0.000 OA
ATOM     11  C   UNL     1       3.501   3.491  19.474  0.00  0.00    +0.000 C 
BRANCH  11  12
ATOM     12  C   UNL     1       2.032   3.594  19.851  0.00  0.00    +0.000 C 
ATOM     13 CL   UNL     1       1.077   2.568  18.762  0.00  0.00    +0.000 Cl
ATOM     14 CL   UNL     1       1.791   3.089  21.537  0.00  0.00    +0.000 Cl
ENDBRANCH  11  12
ENDBRANCH   1  11
TORSDOF 3
ENDMDL
MODEL 3
REMARK VINA RESULT:      -6.3      2.000      2.389
REMARK  Name = 
REMARK  3 active torsions:
REMARK  status: ('A' for Active; 'I' for Inactive)
REMARK    1  A    between atoms: C_2  and  C_3
REMARK    2  A    between atoms: C_2  and  C_12
REMARK    3  A    between atoms: C_7  and  N_8
REMARK                            x       y       z     vdW  Elec       q    Type
REMARK                         _______ _______ _______ _____ _____    ______ ____
ROOT
ATOM      1  C   UNL     1       4.453   4.196  17.553  0.00  0.00    +0.000 A 
ATOM      2  C   UNL     1       5.335   4.411  18.621  0.00  0.00    +0.000 A 
ATOM      3  C   UNL     1       6.688   4.684  18.374  0.00  0.00    +0.000 A 
ATOM      4  C   UNL     1       7.171   4.727  17.066  0.00  0.00    +0.000 A 
ATOM      5  C   UNL     1       6.298   4.480  16.001  0.00  0.00    +0.000 A 
ATOM      6  C   UNL     1       4.942   4.217  16.237  0.00  0.00    +0.000 A 
ENDROOT
BRANCH   5   7
ATOM      7  N   UNL     1       6.807   4.500  14.624  0.00  0.00    +0.000 N 
ATOM      8  O   UNL     1       6.291   3.720  13.810  0.00  0.00    +0.000 OA
ATOM      9  O   UNL     1       7.712   5.301  14.355  0.00  0.00    +0.000 OA
ENDBRANCH   5   7
BRANCH   1  11
ATOM     10  O   UNL     1       2.308   5.004  17.968  0.00  0.00    +0.000 OA
ATOM     11  C   UNL     1       2.983   4.000  17.745  0.00  0.00    +0.000 C 
BRANCH  11  12
ATOM     12  C   UNL     1       2.415   2.594  17.663  0.00  0.00    +0.000 C 
ATOM     13 CL   UNL     1       3.612   1.444  18.291  0.00  0.00    +0.000 Cl
ATOM     14 CL   UNL     1       0.908   2.481  18.598  0.00  0.00    +0.000 Cl
ENDBRANCH  11  12
ENDBRANCH   1  11
TORSDOF 3
ENDMDL
MODEL 4
REMARK VINA RESULT:      -6.3      1.525      1.918
REMARK  Name = 
REMARK  3 active torsions:
REMARK  status: ('A' for Active; 'I' for Inactive)
REMARK    1  A    between atoms: C_2  and  C_3
REMARK    2  A    between atoms: C_2  and  C_12
REMARK    3  A    between atoms: C_7  and  N_8
REMARK                            x       y       z     vdW  Elec       q    Type
REMARK                         _______ _______ _______ _____ _____    ______ ____
ROOT
ATOM      1  C   UNL     1       3.549   4.724  17.460  0.00  0.00    +0.000 A 
ATOM      2  C   UNL     1       3.488   6.078  17.819  0.00  0.00    +0.000 A 
ATOM      3  C   UNL     1       4.398   6.994  17.274  0.00  0.00    +0.000 A 
ATOM      4  C   UNL     1       5.381   6.565  16.383  0.00  0.00    +0.000 A 
ATOM      5  C   UNL     1       5.464   5.209  16.048  0.00  0.00    +0.000 A 
ATOM      6  C   UNL     1       4.552   4.287  16.580  0.00  0.00    +0.000 A 
ENDROOT
BRANCH   5   7
ATOM      7  N   UNL     1       6.513   4.748  15.130  0.00  0.00    +0.000 N 
ATOM      8  O   UNL     1       7.550   5.423  15.058  0.00  0.00    +0.000 OA
ATOM      9  O   UNL     1       6.304   3.708  14.491  0.00  0.00    +0.000 OA
ENDBRANCH   5   7
BRANCH   1  11
ATOM     10  O   UNL     1       1.464   3.691  17.346  0.00  0.00    +0.000 OA
ATOM     11  C   UNL     1       2.547   3.717  17.928  0.00  0.00    +0.000 C 
BRANCH  11  12
ATOM     12  C   UNL     1       2.915   2.801  19.083  0.00  0.00    +0.000 C 
ATOM     13 CL   UNL     1       1.463   2.467  20.048  0.00  0.00    +0.000 Cl
ATOM     14 CL   UNL     1       3.605   1.282  18.469  0.00  0.00    +0.000 Cl
ENDBRANCH  11  12
ENDBRANCH   1  11
TORSDOF 3
ENDMDL
MODEL 5
REMARK VINA RESULT:      -6.2      2.207      2.445
REMARK  Name = 
REMARK  3 active torsions:
REMARK  status: ('A' for Active; 'I' for Inactive)
REMARK    1  A    between atoms: C_2  and  C_3
REMARK    2  A    between atoms: C_2  and  C_12
REMARK    3  A    between atoms: C_7  and  N_8
REMARK                            x       y       z     vdW  Elec       q    Type
REMARK                         _______ _______ _______ _____ _____    ______ ____
ROOT
ATOM      1  C   UNL     1       4.719   3.833  17.637  0.00  0.00    +0.000 A 
ATOM      2  C   UNL     1       4.965   3.988  16.265  0.00  0.00    +0.000 A 
ATOM      3  C   UNL     1       6.073   4.725  15.826  0.00  0.00    +0.000 A 
ATOM      4  C   UNL     1       6.930   5.326  16.749  0.00  0.00    +0.000 A 
ATOM      5  C   UNL     1       6.667   5.200  18.117  0.00  0.00    +0.000 A 
ATOM      6  C   UNL     1       5.568   4.456  18.566  0.00  0.00    +0.000 A 
ENDROOT
BRANCH   5   7
ATOM      7  N   UNL     1       7.552   5.852  19.091  0.00  0.00    +0.000 N 
ATOM      8  O   UNL     1       8.172   6.859  18.720  0.00  0.00    +0.000 OA
ATOM      9  O   UNL     1       7.617   5.363  20.227  0.00  0.00    +0.000 OA
ENDBRANCH   5   7
BRANCH   1  11
ATOM     10  O   UNL     1       3.925   2.088  18.959  0.00  0.00    +0.000 OA
ATOM     11  C   UNL     1       3.614   2.977  18.169  0.00  0.00    +0.000 C 
BRANCH  11  12
ATOM     12  C   UNL     1       2.192   3.245  17.705  0.00  0.00    +0.000 C 
ATOM     13 CL   UNL     1       1.066   2.307  18.706  0.00  0.00    +0.000 Cl
ATOM     14 CL   UNL     1       1.820   4.979  17.825  0.00  0.00    +0.000 Cl
ENDBRANCH  11  12
ENDBRANCH   1  11
TORSDOF 3
ENDMDL
MODEL 6
REMARK VINA RESULT:      -6.2      1.110      1.711
REMARK  Name = 
REMARK  3 active torsions:
REMARK  status: ('A' for Active; 'I' for Inactive)
REMARK    1  A    between atoms: C_2  and  C_3
REMARK    2  A    between atoms: C_2  and  C_12
REMARK    3  A    between atoms: C_7  and  N_8
REMARK                            x       y       z     vdW  Elec       q    Type
REMARK                         _______ _______ _______ _____ _____    ______ ____
ROOT
ATOM      1  C   UNL     1       3.626   4.923  17.849  0.00  0.00    +0.000 A 
ATOM      2  C   UNL     1       3.420   6.291  17.620  0.00  0.00    +0.000 A 
ATOM      3  C   UNL     1       4.492   7.114  17.251  0.00  0.00    +0.000 A 
ATOM      4  C   UNL     1       5.776   6.584  17.125  0.00  0.00    +0.000 A 
ATOM      5  C   UNL     1       5.989   5.225  17.385  0.00  0.00    +0.000 A 
ATOM      6  C   UNL     1       4.921   4.392  17.744  0.00  0.00    +0.000 A 
ENDROOT
BRANCH   5   7
ATOM      7  N   UNL     1       7.343   4.667  17.279  0.00  0.00    +0.000 N 
ATOM      8  O   UNL     1       7.819   4.528  16.142  0.00  0.00    +0.000 OA
ATOM      9  O   UNL     1       7.933   4.380  18.329  0.00  0.00    +0.000 OA
ENDBRANCH   5   7
BRANCH   1  11
ATOM     10  O   UNL     1       1.805   3.622  17.201  0.00  0.00    +0.000 OA
ATOM     11  C   UNL     1       2.507   3.975  18.146  0.00  0.00    +0.000 C 
BRANCH  11  12
ATOM     12  C   UNL     1       2.300   3.514  19.579  0.00  0.00    +0.000 C 
ATOM     13 CL   UNL     1       2.434   4.911  20.666  0.00  0.00    +0.000 Cl
ATOM     14 CL   UNL     1       0.705   2.751  19.757  0.00  0.00    +0.000 Cl
ENDBRANCH  11  12
ENDBRANCH   1  11
TORSDOF 3
ENDMDL
MODEL 7
REMARK VINA RESULT:      -6.2      1.251      1.325
REMARK  Name = 
REMARK  3 active torsions:
REMARK  status: ('A' for Active; 'I' for Inactive)
REMARK    1  A    between atoms: C_2  and  C_3
REMARK    2  A    between atoms: C_2  and  C_12
REMARK    3  A    between atoms: C_7  and  N_8
REMARK                            x       y       z     vdW  Elec       q    Type
REMARK                         _______ _______ _______ _____ _____    ______ ____
ROOT
ATOM      1  C   UNL     1       3.563   4.576  17.646  0.00  0.00    +0.000 A 
ATOM      2  C   UNL     1       3.164   5.905  17.852  0.00  0.00    +0.000 A 
ATOM      3  C   UNL     1       4.042   6.957  17.560  0.00  0.00    +0.000 A 
ATOM      4  C   UNL     1       5.324   6.693  17.079  0.00  0.00    +0.000 A 
ATOM      5  C   UNL     1       5.735   5.367  16.905  0.00  0.00    +0.000 A 
ATOM      6  C   UNL     1       4.861   4.307  17.183  0.00  0.00    +0.000 A 
ENDROOT
BRANCH   5   7
ATOM      7  N   UNL     1       7.092   5.083  16.422  0.00  0.00    +0.000 N 
ATOM      8  O   UNL     1       7.834   4.412  17.156  0.00  0.00    +0.000 OA
ATOM      9  O   UNL     1       7.412   5.519  15.309  0.00  0.00    +0.000 OA
ENDBRANCH   5   7
BRANCH   1  11
ATOM     10  O   UNL     1       2.126   2.931  16.836  0.00  0.00    +0.000 OA
ATOM     11  C   UNL     1       2.640   3.415  17.842  0.00  0.00    +0.000 C 
BRANCH  11  12
ATOM     12  C   UNL     1       2.388   2.911  19.253  0.00  0.00    +0.000 C 
ATOM     13 CL   UNL     1       3.927   2.860  20.138  0.00  0.00    +0.000 Cl
ATOM     14 CL   UNL     1       1.235   3.972  20.091  0.00  0.00    +0.000 Cl
ENDBRANCH  11  12
ENDBRANCH   1  11
TORSDOF 3
ENDMDL
MODEL 8
REMARK VINA RESULT:      -6.2      1.257      1.720
REMARK  Name = 
REMARK  3 active torsions:
REMARK  status: ('A' for Active; 'I' for Inactive)
REMARK    1  A    between atoms: C_2  and  C_3
REMARK    2  A    between atoms: C_2  and  C_12
REMARK    3  A    between atoms: C_7  and  N_8
REMARK                            x       y       z     vdW  Elec       q    Type
REMARK                         _______ _______ _______ _____ _____    ______ ____
ROOT
ATOM      1  C   UNL     1       4.515   4.684  18.060  0.00  0.00    +0.000 A 
ATOM      2  C   UNL     1       4.092   6.019  18.118  0.00  0.00    +0.000 A 
ATOM      3  C   UNL     1       4.439   6.913  17.097  0.00  0.00    +0.000 A 
ATOM      4  C   UNL     1       5.220   6.488  16.022  0.00  0.00    +0.000 A 
ATOM      5  C   UNL     1       5.670   5.163  15.980  0.00  0.00    +0.000 A 
ATOM      6  C   UNL     1       5.320   4.259  16.991  0.00  0.00    +0.000 A 
ENDROOT
BRANCH   5   7
ATOM      7  N   UNL     1       6.514   4.717  14.864  0.00  0.00    +0.000 N 
ATOM      8  O   UNL     1       7.579   5.321  14.671  0.00  0.00    +0.000 OA
ATOM      9  O   UNL     1       6.117   3.757  14.190  0.00  0.00    +0.000 OA
ENDBRANCH   5   7
BRANCH   1  11
ATOM     10  O   UNL     1       4.988   3.069  19.672  0.00  0.00    +0.000 OA
ATOM     11  C   UNL     1       4.095   3.658  19.065  0.00  0.00    +0.000 C 
BRANCH  11  12
ATOM     12  C   UNL     1       2.612   3.400  19.272  0.00  0.00    +0.000 C 
ATOM     13 CL   UNL     1       2.019   4.434  20.587  0.00  0.00    +0.000 Cl
ATOM     14 CL   UNL     1       1.713   3.735  17.776  0.00  0.00    +0.000 Cl
ENDBRANCH  11  12
ENDBRANCH   1  11
TORSDOF 3
ENDMDL
MODEL 9
REMARK VINA RESULT:      -6.2      2.190      2.608
REMARK  Name = 
REMARK  3 active torsions:
REMARK  status: ('A' for Active; 'I' for Inactive)
REMARK    1  A    between atoms: C_2  and  C_3
REMARK    2  A    between atoms: C_2  and  C_12
REMARK    3  A    between atoms: C_7  and  N_8
REMARK                            x       y       z     vdW  Elec       q    Type
REMARK                         _______ _______ _______ _____ _____    ______ ____
ROOT
ATOM      1  C   UNL     1       4.282   4.528  17.771  0.00  0.00    +0.000 A 
ATOM      2  C   UNL     1       4.694   4.076  16.510  0.00  0.00    +0.000 A 
ATOM      3  C   UNL     1       6.038   4.177  16.128  0.00  0.00    +0.000 A 
ATOM      4  C   UNL     1       6.976   4.743  16.993  0.00  0.00    +0.000 A 
ATOM      5  C   UNL     1       6.560   5.225  18.239  0.00  0.00    +0.000 A 
ATOM      6  C   UNL     1       5.220   5.118  18.634  0.00  0.00    +0.000 A 
ENDROOT
BRANCH   5   7
ATOM      7  N   UNL     1       7.538   5.844  19.143  0.00  0.00    +0.000 N 
ATOM      8  O   UNL     1       7.690   5.333  20.262  0.00  0.00    +0.000 OA
ATOM      9  O   UNL     1       8.160   6.832  18.730  0.00  0.00    +0.000 OA
ENDBRANCH   5   7
BRANCH   1  11
ATOM     10  O   UNL     1       2.028   5.112  17.820  0.00  0.00    +0.000 OA
ATOM     11  C   UNL     1       2.885   4.357  18.276  0.00  0.00    +0.000 C 
BRANCH  11  12
ATOM     12  C   UNL     1       2.607   3.282  19.313  0.00  0.00    +0.000 C 
ATOM     13 CL   UNL     1       0.901   3.363  19.795  0.00  0.00    +0.000 Cl
ATOM     14 CL   UNL     1       2.981   1.676  18.650  0.00  0.00    +0.000 Cl
ENDBRANCH  11  12
ENDBRANCH   1  11
TORSDOF 3
ENDMDL
