MODEL 1
REMARK VINA RESULT:      -6.4      0.000      0.000
REMARK  Name = 
REMARK  6 active torsions:
REMARK  status: ('A' for Active; 'I' for Inactive)
REMARK    1  A    between atoms: C_1  and  N_2
REMARK    2  A    between atoms: C_6  and  C_7
REMARK    3  A    between atoms: N_11  and  C_12
REMARK    4  A    between atoms: C_12  and  C_13
REMARK    5  A    between atoms: C_13  and  S_14
REMARK    6  A    between atoms: S_14  and  C_15
REMARK                            x       y       z     vdW  Elec       q    Type
REMARK                         _______ _______ _______ _____ _____    ______ ____
ROOT
ATOM      1  C   UNL     1       2.772   5.578  18.067  0.00  0.00    +0.000 A 
ATOM      2  N   UNL     1       2.373   6.817  18.301  0.00  0.00    +0.000 NA
ATOM      3  C   UNL     1       3.285   7.636  17.701  0.00  0.00    +0.000 A 
ATOM      4  C   UNL     1       4.265   6.898  17.089  0.00  0.00    +0.000 A 
ATOM      5  N   UNL     1       3.948   5.585  17.337  0.00  0.00    +0.000 N 
ENDROOT
BRANCH   1  11
ATOM      6  C   UNL     1       2.466   4.714  21.009  0.00  0.00    +0.000 C 
ATOM      7  N   UNL     1       1.932   4.038  19.850  0.00  0.00    +0.000 N 
ATOM      8  C   UNL     1       1.206   2.878  19.890  0.00  0.00    +0.000 A 
ATOM      9  C   UNL     1       0.904   2.600  18.581  0.00  0.00    +0.000 A 
ATOM     10  N   UNL     1       1.432   3.552  17.749  0.00  0.00    +0.000 NA
ATOM     11  C   UNL     1       2.058   4.418  18.529  0.00  0.00    +0.000 A 
ENDBRANCH   1  11
BRANCH   5  12
ATOM     12  C   UNL     1       4.704   4.430  16.873  0.00  0.00    +0.000 C 
BRANCH  12  13
ATOM     13  C   UNL     1       6.162   4.713  16.560  0.00  0.00    +0.000 C 
BRANCH  13  14
ATOM     14  S   UNL     1       7.156   4.841  18.030  0.00  0.00    +0.000 S 
ATOM     15  C   UNL     1       7.601   6.559  18.147  0.00  0.00    +0.000 C 
ATOM     16  O   UNL     1       6.317   4.515  19.165  0.00  0.00    +0.000 OA
ATOM     17  O   UNL     1       8.377   4.098  17.779  0.00  0.00    +0.000 OA
ENDBRANCH  13  14
ENDBRANCH  12  13
ENDBRANCH   5  12
TORSDOF 4
ENDMDL
MODEL 2
REMARK VINA RESULT:      -6.3      1.523      1.921
REMARK  Name = 
REMARK  6 active torsions:
REMARK  status: ('A' for Active; 'I' for Inactive)
REMARK    1  A    between atoms: C_1  and  N_2
REMARK    2  A    between atoms: C_6  and  C_7
REMARK    3  A    between atoms: N_11  and  C_12
REMARK    4  A    between atoms: C_12  and  C_13
REMARK    5  A    between atoms: C_13  and  S_14
REMARK    6  A    between atoms: S_14  and  C_15
REMARK                            x       y       z     vdW  Elec       q    Type
REMARK                         _______ _______ _______ _____ _____    ______ ____
ROOT
ATOM      1  C   UNL     1       2.691   5.617  18.239  0.00  0.00    +0.000 A 
ATOM      2  N   UNL     1       2.097   6.799  18.243  0.00  0.00    +0.000 NA
ATOM      3  C   UNL     1       3.028   7.701  17.811  0.00  0.00    +0.000 A 
ATOM      4  C   UNL     1       4.216   7.073  17.539  0.00  0.00    +0.000 A 
ATOM      5  N   UNL     1       4.007   5.747  17.828  0.00  0.00    +0.000 N 
ENDROOT
BRANCH   1  11
ATOM      6  C   UNL     1       2.265   4.637  21.128  0.00  0.00    +0.000 C 
ATOM      7  N   UNL     1       1.849   3.968  19.918  0.00  0.00    +0.000 N 
ATOM      8  C   UNL     1       1.199   2.762  19.878  0.00  0.00    +0.000 A 
ATOM      9  C   UNL     1       0.997   2.511  18.545  0.00  0.00    +0.000 A 
ATOM     10  N   UNL     1       1.511   3.522  17.776  0.00  0.00    +0.000 NA
ATOM     11  C   UNL     1       2.029   4.399  18.620  0.00  0.00    +0.000 A 
ENDBRANCH   1  11
BRANCH   5  12
ATOM     12  C   UNL     1       4.993   4.685  17.683  0.00  0.00    +0.000 C 
BRANCH  12  13
ATOM     13  C   UNL     1       5.062   4.071  16.296  0.00  0.00    +0.000 C 
BRANCH  13  14
ATOM     14  S   UNL     1       6.388   4.751  15.323  0.00  0.00    +0.000 S 
ATOM     15  C   UNL     1       6.353   3.849  13.790  0.00  0.00    +0.000 C 
ATOM     16  O   UNL     1       6.066   6.136  15.038  0.00  0.00    +0.000 OA
ATOM     17  O   UNL     1       7.625   4.406  15.996  0.00  0.00    +0.000 OA
ENDBRANCH  13  14
ENDBRANCH  12  13
ENDBRANCH   5  12
TORSDOF 4
ENDMDL
MODEL 3
REMARK VINA RESULT:      -6.3      0.913      1.129
REMARK  Name = 
REMARK  6 active torsions:
REMARK  status: ('A' for Active; 'I' for Inactive)
REMARK    1  A    between atoms: C_1  and  N_2
REMARK    2  A    between atoms: C_6  and  C_7
REMARK    3  A    between atoms: N_11  and  C_12
REMARK    4  A    between atoms: C_12  and  C_13
REMARK    5  A    between atoms: C_13  and  S_14
REMARK    6  A    between atoms: S_14  and  C_15
REMARK                            x       y       z     vdW  Elec       q    Type
REMARK                         _______ _______ _______ _____ _____    ______ ____
ROOT
ATOM      1  C   UNL     1       2.494   5.644  18.273  0.00  0.00    +0.000 A 
ATOM      2  N   UNL     1       1.965   6.847  18.429  0.00  0.00    +0.000 NA
ATOM      3  C   UNL     1       2.858   7.734  17.900  0.00  0.00    +0.000 A 
ATOM      4  C   UNL     1       3.957   7.076  17.412  0.00  0.00    +0.000 A 
ATOM      5  N   UNL     1       3.734   5.745  17.665  0.00  0.00    +0.000 N 
ENDROOT
BRANCH   1  11
ATOM      6  C   UNL     1       2.248   4.660  21.181  0.00  0.00    +0.000 C 
ATOM      7  N   UNL     1       1.744   4.000  20.000  0.00  0.00    +0.000 N 
ATOM      8  C   UNL     1       1.078   2.803  20.000  0.00  0.00    +0.000 A 
ATOM      9  C   UNL     1       0.784   2.558  18.683  0.00  0.00    +0.000 A 
ATOM     10  N   UNL     1       1.259   3.566  17.884  0.00  0.00    +0.000 NA
ATOM     11  C   UNL     1       1.843   4.433  18.694  0.00  0.00    +0.000 A 
ENDBRANCH   1  11
BRANCH   5  12
ATOM     12  C   UNL     1       4.634   4.656  17.313  0.00  0.00    +0.000 C 
BRANCH  12  13
ATOM     13  C   UNL     1       5.731   5.032  16.334  0.00  0.00    +0.000 C 
BRANCH  13  14
ATOM     14  S   UNL     1       7.277   5.371  17.149  0.00  0.00    +0.000 S 
ATOM     15  C   UNL     1       6.877   5.491  18.878  0.00  0.00    +0.000 C 
ATOM     16  O   UNL     1       8.139   4.220  16.965  0.00  0.00    +0.000 OA
ATOM     17  O   UNL     1       7.703   6.688  16.714  0.00  0.00    +0.000 OA
ENDBRANCH  13  14
ENDBRANCH  12  13
ENDBRANCH   5  12
TORSDOF 4
ENDMDL
MODEL 4
REMARK VINA RESULT:      -6.3      1.305      2.169
REMARK  Name = 
REMARK  6 active torsions:
REMARK  status: ('A' for Active; 'I' for Inactive)
REMARK    1  A    between atoms: C_1  and  N_2
REMARK    2  A    between atoms: C_6  and  C_7
REMARK    3  A    between atoms: N_11  and  C_12
REMARK    4  A    between atoms: C_12  and  C_13
REMARK    5  A    between atoms: C_13  and  S_14
REMARK    6  A    between atoms: S_14  and  C_15
REMARK                            x       y       z     vdW  Elec       q    Type
REMARK                         _______ _______ _______ _____ _____    ______ ____
ROOT
ATOM      1  C   UNL     1       2.617   5.773  19.249  0.00  0.00    +0.000 A 
ATOM      2  N   UNL     1       1.931   6.904  19.240  0.00  0.00    +0.000 NA
ATOM      3  C   UNL     1       2.573   7.737  18.369  0.00  0.00    +0.000 A 
ATOM      4  C   UNL     1       3.673   7.119  17.833  0.00  0.00    +0.000 A 
ATOM      5  N   UNL     1       3.712   5.872  18.407  0.00  0.00    +0.000 N 
ENDROOT
BRANCH   1  11
ATOM      6  C   UNL     1       1.291   3.206  18.182  0.00  0.00    +0.000 C 
ATOM      7  N   UNL     1       1.648   3.488  19.552  0.00  0.00    +0.000 N 
ATOM      8  C   UNL     1       1.430   2.640  20.605  0.00  0.00    +0.000 A 
ATOM      9  C   UNL     1       1.921   3.300  21.703  0.00  0.00    +0.000 A 
ATOM     10  N   UNL     1       2.421   4.526  21.348  0.00  0.00    +0.000 NA
ATOM     11  C   UNL     1       2.246   4.631  20.041  0.00  0.00    +0.000 A 
ENDBRANCH   1  11
BRANCH   5  12
ATOM     12  C   UNL     1       4.709   4.847  18.134  0.00  0.00    +0.000 C 
BRANCH  12  13
ATOM     13  C   UNL     1       6.145   5.284  18.363  0.00  0.00    +0.000 C 
BRANCH  13  14
ATOM     14  S   UNL     1       7.172   4.999  16.937  0.00  0.00    +0.000 S 
ATOM     15  C   UNL     1       6.164   4.058  15.814  0.00  0.00    +0.000 C 
ATOM     16  O   UNL     1       7.450   6.283  16.325  0.00  0.00    +0.000 OA
ATOM     17  O   UNL     1       8.257   4.137  17.366  0.00  0.00    +0.000 OA
ENDBRANCH  13  14
ENDBRANCH  12  13
ENDBRANCH   5  12
TORSDOF 4
ENDMDL
MODEL 5
REMARK VINA RESULT:      -6.2      0.838      1.619
REMARK  Name = 
REMARK  6 active torsions:
REMARK  status: ('A' for Active; 'I' for Inactive)
REMARK    1  A    between atoms: C_1  and  N_2
REMARK    2  A    between atoms: C_6  and  C_7
REMARK    3  A    between atoms: N_11  and  C_12
REMARK    4  A    between atoms: C_12  and  C_13
REMARK    5  A    between atoms: C_13  and  S_14
REMARK    6  A    between atoms: S_14  and  C_15
REMARK                            x       y       z     vdW  Elec       q    Type
REMARK                         _______ _______ _______ _____ _____    ______ ____
ROOT
ATOM      1  C   UNL     1       2.814   5.684  19.014  0.00  0.00    +0.000 A 
ATOM      2  N   UNL     1       2.331   6.915  19.034  0.00  0.00    +0.000 NA
ATOM      3  C   UNL     1       2.984   7.603  18.052  0.00  0.00    +0.000 A 
ATOM      4  C   UNL     1       3.887   6.791  17.416  0.00  0.00    +0.000 A 
ATOM      5  N   UNL     1       3.792   5.572  18.040  0.00  0.00    +0.000 N 
ENDROOT
BRANCH   1  11
ATOM      6  C   UNL     1       1.140   3.231  18.193  0.00  0.00    +0.000 C 
ATOM      7  N   UNL     1       1.610   3.552  19.520  0.00  0.00    +0.000 N 
ATOM      8  C   UNL     1       1.361   2.800  20.638  0.00  0.00    +0.000 A 
ATOM      9  C   UNL     1       1.990   3.463  21.661  0.00  0.00    +0.000 A 
ATOM     10  N   UNL     1       2.605   4.597  21.199  0.00  0.00    +0.000 NA
ATOM     11  C   UNL     1       2.364   4.643  19.899  0.00  0.00    +0.000 A 
ENDBRANCH   1  11
BRANCH   5  12
ATOM     12  C   UNL     1       4.562   4.384  17.697  0.00  0.00    +0.000 C 
BRANCH  12  13
ATOM     13  C   UNL     1       5.879   4.664  16.997  0.00  0.00    +0.000 C 
BRANCH  13  14
ATOM     14  S   UNL     1       7.203   4.970  18.146  0.00  0.00    +0.000 S 
ATOM     15  C   UNL     1       7.638   6.679  17.917  0.00  0.00    +0.000 C 
ATOM     16  O   UNL     1       6.673   4.816  19.487  0.00  0.00    +0.000 OA
ATOM     17  O   UNL     1       8.335   4.176  17.706  0.00  0.00    +0.000 OA
ENDBRANCH  13  14
ENDBRANCH  12  13
ENDBRANCH   5  12
TORSDOF 4
ENDMDL
MODEL 6
REMARK VINA RESULT:      -6.2      1.271      1.946
REMARK  Name = 
REMARK  6 active torsions:
REMARK  status: ('A' for Active; 'I' for Inactive)
REMARK    1  A    between atoms: C_1  and  N_2
REMARK    2  A    between atoms: C_6  and  C_7
REMARK    3  A    between atoms: N_11  and  C_12
REMARK    4  A    between atoms: C_12  and  C_13
REMARK    5  A    between atoms: C_13  and  S_14
REMARK    6  A    between atoms: S_14  and  C_15
REMARK                            x       y       z     vdW  Elec       q    Type
REMARK                         _______ _______ _______ _____ _____    ______ ____
ROOT
ATOM      1  C   UNL     1       2.798   5.653  19.103  0.00  0.00    +0.000 A 
ATOM      2  N   UNL     1       1.967   6.611  18.728  0.00  0.00    +0.000 NA
ATOM      3  C   UNL     1       2.699   7.484  17.976  0.00  0.00    +0.000 A 
ATOM      4  C   UNL     1       4.001   7.066  17.885  0.00  0.00    +0.000 A 
ATOM      5  N   UNL     1       4.069   5.908  18.618  0.00  0.00    +0.000 N 
ENDROOT
BRANCH   1  11
ATOM      6  C   UNL     1       2.077   2.854  18.034  0.00  0.00    +0.000 C 
ATOM      7  N   UNL     1       2.071   3.281  19.414  0.00  0.00    +0.000 N 
ATOM      8  C   UNL     1       1.721   2.486  20.474  0.00  0.00    +0.000 A 
ATOM      9  C   UNL     1       1.861   3.285  21.580  0.00  0.00    +0.000 A 
ATOM     10  N   UNL     1       2.276   4.541  21.222  0.00  0.00    +0.000 NA
ATOM     11  C   UNL     1       2.397   4.528  19.905  0.00  0.00    +0.000 A 
ENDBRANCH   1  11
BRANCH   5  12
ATOM     12  C   UNL     1       5.262   5.093  18.803  0.00  0.00    +0.000 C 
BRANCH  12  13
ATOM     13  C   UNL     1       5.746   4.386  17.550  0.00  0.00    +0.000 C 
BRANCH  13  14
ATOM     14  S   UNL     1       7.371   4.921  17.058  0.00  0.00    +0.000 S 
ATOM     15  C   UNL     1       7.527   6.579  17.681  0.00  0.00    +0.000 C 
ATOM     16  O   UNL     1       8.340   4.089  17.743  0.00  0.00    +0.000 OA
ATOM     17  O   UNL     1       7.366   5.006  15.610  0.00  0.00    +0.000 OA
ENDBRANCH  13  14
ENDBRANCH  12  13
ENDBRANCH   5  12
TORSDOF 4
ENDMDL
MODEL 7
REMARK VINA RESULT:      -6.2      3.048      4.802
REMARK  Name = 
REMARK  6 active torsions:
REMARK  status: ('A' for Active; 'I' for Inactive)
REMARK    1  A    between atoms: C_1  and  N_2
REMARK    2  A    between atoms: C_6  and  C_7
REMARK    3  A    between atoms: N_11  and  C_12
REMARK    4  A    between atoms: C_12  and  C_13
REMARK    5  A    between atoms: C_13  and  S_14
REMARK    6  A    between atoms: S_14  and  C_15
REMARK                            x       y       z     vdW  Elec       q    Type
REMARK                         _______ _______ _______ _____ _____    ______ ____
ROOT
ATOM      1  C   UNL     1       4.068   6.178  17.799  0.00  0.00    +0.000 A 
ATOM      2  N   UNL     1       3.763   7.394  17.376  0.00  0.00    +0.000 NA
ATOM      3  C   UNL     1       2.779   7.855  18.203  0.00  0.00    +0.000 A 
ATOM      4  C   UNL     1       2.466   6.914  19.149  0.00  0.00    +0.000 A 
ATOM      5  N   UNL     1       3.275   5.837  18.882  0.00  0.00    +0.000 N 
ENDROOT
BRANCH   1  11
ATOM      6  C   UNL     1       6.977   5.901  18.774  0.00  0.00    +0.000 C 
ATOM      7  N   UNL     1       6.383   5.249  17.631  0.00  0.00    +0.000 N 
ATOM      8  C   UNL     1       7.047   4.400  16.785  0.00  0.00    +0.000 A 
ATOM      9  C   UNL     1       6.112   4.016  15.858  0.00  0.00    +0.000 A 
ATOM     10  N   UNL     1       4.903   4.611  16.113  0.00  0.00    +0.000 NA
ATOM     11  C   UNL     1       5.081   5.360  17.188  0.00  0.00    +0.000 A 
ENDBRANCH   1  11
BRANCH   5  12
ATOM     12  C   UNL     1       3.304   4.593  19.637  0.00  0.00    +0.000 C 
BRANCH  12  13
ATOM     13  C   UNL     1       1.945   3.946  19.842  0.00  0.00    +0.000 C 
BRANCH  13  14
ATOM     14  S   UNL     1       1.380   3.087  18.390  0.00  0.00    +0.000 S 
ATOM     15  C   UNL     1       2.779   2.140  17.832  0.00  0.00    +0.000 C 
ATOM     16  O   UNL     1       0.342   2.160  18.797  0.00  0.00    +0.000 OA
ATOM     17  O   UNL     1       1.113   4.095  17.381  0.00  0.00    +0.000 OA
ENDBRANCH  13  14
ENDBRANCH  12  13
ENDBRANCH   5  12
TORSDOF 4
ENDMDL
MODEL 8
REMARK VINA RESULT:      -6.2      2.237      3.497
REMARK  Name = 
REMARK  6 active torsions:
REMARK  status: ('A' for Active; 'I' for Inactive)
REMARK    1  A    between atoms: C_1  and  N_2
REMARK    2  A    between atoms: C_6  and  C_7
REMARK    3  A    between atoms: N_11  and  C_12
REMARK    4  A    between atoms: C_12  and  C_13
REMARK    5  A    between atoms: C_13  and  S_14
REMARK    6  A    between atoms: S_14  and  C_15
REMARK                            x       y       z     vdW  Elec       q    Type
REMARK                         _______ _______ _______ _____ _____    ______ ____
ROOT
ATOM      1  C   UNL     1       5.628   5.563  18.851  0.00  0.00    +0.000 A 
ATOM      2  N   UNL     1       6.521   5.244  19.773  0.00  0.00    +0.000 NA
ATOM      3  C   UNL     1       7.731   5.664  19.301  0.00  0.00    +0.000 A 
ATOM      4  C   UNL     1       7.589   6.249  18.069  0.00  0.00    +0.000 A 
ATOM      5  N   UNL     1       6.251   6.169  17.774  0.00  0.00    +0.000 N 
ENDROOT
BRANCH   1  11
ATOM      6  C   UNL     1       4.200   2.982  17.963  0.00  0.00    +0.000 C 
ATOM      7  N   UNL     1       3.592   4.137  18.581  0.00  0.00    +0.000 N 
ATOM      8  C   UNL     1       2.256   4.261  18.856  0.00  0.00    +0.000 A 
ATOM      9  C   UNL     1       2.124   5.497  19.435  0.00  0.00    +0.000 A 
ATOM     10  N   UNL     1       3.338   6.129  19.513  0.00  0.00    +0.000 NA
ATOM     11  C   UNL     1       4.221   5.295  18.987  0.00  0.00    +0.000 A 
ENDBRANCH   1  11
BRANCH   5  12
ATOM     12  C   UNL     1       5.622   6.672  16.561  0.00  0.00    +0.000 C 
BRANCH  12  13
ATOM     13  C   UNL     1       5.222   5.600  15.564  0.00  0.00    +0.000 C 
BRANCH  13  14
ATOM     14  S   UNL     1       6.623   4.680  14.964  0.00  0.00    +0.000 S 
ATOM     15  C   UNL     1       6.055   3.876  13.482  0.00  0.00    +0.000 C 
ATOM     16  O   UNL     1       7.654   5.629  14.595  0.00  0.00    +0.000 OA
ATOM     17  O   UNL     1       6.893   3.640  15.939  0.00  0.00    +0.000 OA
ENDBRANCH  13  14
ENDBRANCH  12  13
ENDBRANCH   5  12
TORSDOF 4
ENDMDL
MODEL 9
REMARK VINA RESULT:      -6.2      2.186      3.275
REMARK  Name = 
REMARK  6 active torsions:
REMARK  status: ('A' for Active; 'I' for Inactive)
REMARK    1  A    between atoms: C_1  and  N_2
REMARK    2  A    between atoms: C_6  and  C_7
REMARK    3  A    between atoms: N_11  and  C_12
REMARK    4  A    between atoms: C_12  and  C_13
REMARK    5  A    between atoms: C_13  and  S_14
REMARK    6  A    between atoms: S_14  and  C_15
REMARK                            x       y       z     vdW  Elec       q    Type
REMARK                         _______ _______ _______ _____ _____    ______ ____
ROOT
ATOM      1  C   UNL     1       5.441   5.251  18.453  0.00  0.00    +0.000 A 
ATOM      2  N   UNL     1       6.196   4.968  19.502  0.00  0.00    +0.000 NA
ATOM      3  C   UNL     1       7.353   5.677  19.348  0.00  0.00    +0.000 A 
ATOM      4  C   UNL     1       7.319   6.406  18.188  0.00  0.00    +0.000 A 
ATOM      5  N   UNL     1       6.107   6.122  17.608  0.00  0.00    +0.000 N 
ENDROOT
BRANCH   1  11
ATOM      6  C   UNL     1       2.790   6.751  18.914  0.00  0.00    +0.000 C 
ATOM      7  N   UNL     1       2.945   5.386  18.471  0.00  0.00    +0.000 N 
ATOM      8  C   UNL     1       1.908   4.532  18.198  0.00  0.00    +0.000 A 
ATOM      9  C   UNL     1       2.504   3.358  17.813  0.00  0.00    +0.000 A 
ATOM     10  N   UNL     1       3.870   3.472  17.852  0.00  0.00    +0.000 NA
ATOM     11  C   UNL     1       4.125   4.705  18.257  0.00  0.00    +0.000 A 
ENDBRANCH   1  11
BRANCH   5  12
ATOM     12  C   UNL     1       5.619   6.678  16.354  0.00  0.00    +0.000 C 
BRANCH  12  13
ATOM     13  C   UNL     1       5.286   5.645  15.292  0.00  0.00    +0.000 C 
BRANCH  13  14
ATOM     14  S   UNL     1       6.699   4.662  14.838  0.00  0.00    +0.000 S 
ATOM     15  C   UNL     1       6.258   3.891  13.297  0.00  0.00    +0.000 C 
ATOM     16  O   UNL     1       7.807   5.563  14.591  0.00  0.00    +0.000 OA
ATOM     17  O   UNL     1       6.813   3.608  15.828  0.00  0.00    +0.000 OA
ENDBRANCH  13  14
ENDBRANCH  12  13
ENDBRANCH   5  12
TORSDOF 4
ENDMDL
