MODEL 1
REMARK VINA RESULT:      -8.0      0.000      0.000
REMARK  Name = 
REMARK  10 active torsions:
REMARK  status: ('A' for Active; 'I' for Inactive)
REMARK    1  A    between atoms: C_1  and  O_2
REMARK    2  A    between atoms: O_2  and  C_3
REMARK    3  A    between atoms: C_8  and  C_9
REMARK    4  A    between atoms: C_9  and  C_10
REMARK    5  A    between atoms: C_10  and  N_11
REMARK    6  A    between atoms: C_10  and  C_15
REMARK    7  A    between atoms: C_12  and  C_13
REMARK    8  A    between atoms: N_17  and  C_18
REMARK    9  A    between atoms: C_22  and  C_24
REMARK   10  A    between atoms: C_27  and  C_28
REMARK                            x       y       z     vdW  Elec       q    Type
REMARK                         _______ _______ _______ _____ _____    ______ ____
ROOT
ATOM      1  C   UNL     1       1.802   7.132  20.143  0.00  0.00    +0.000 C 
ATOM      2  O   UNL     1       1.170   6.364  20.866  0.00  0.00    +0.000 OA
ATOM      3  N   UNL     1       2.796   6.712  19.294  0.00  0.00    +0.000 N 
ATOM      4  H   UNL     1       3.467   7.418  18.988  0.00  0.00    +0.000 HD
ENDROOT
BRANCH   3   5
ATOM      5  C   UNL     1       3.062   5.310  18.978  0.00  0.00    +0.000 C 
ATOM      6  C   UNL     1       4.353   4.841  19.667  0.00  0.00    +0.000 C 
ATOM      7  C   UNL     1       5.598   5.488  19.053  0.00  0.00    +0.000 C 
ATOM      8  N   UNL     1       5.611   5.324  17.599  0.00  0.00    +0.000 N 
ATOM      9  C   UNL     1       6.798   4.918  16.983  0.00  0.00    +0.000 C 
ATOM     10  O   UNL     1       7.847   4.782  17.611  0.00  0.00    +0.000 OA
ATOM     11  C   UNL     1       4.414   5.835  16.934  0.00  0.00    +0.000 C 
ATOM     12  C   UNL     1       3.194   5.088  17.461  0.00  0.00    +0.000 C 
BRANCH   9  13
ATOM     13  C   UNL     1       6.843   4.623  15.524  0.00  0.00    +0.000 A 
ATOM     14  C   UNL     1       5.982   3.636  15.023  0.00  0.00    +0.000 A 
ATOM     15  C   UNL     1       5.968   3.340  13.658  0.00  0.00    +0.000 A 
ATOM     16  C   UNL     1       6.826   4.013  12.778  0.00  0.00    +0.000 A 
ATOM     17  C   UNL     1       6.826   3.715  11.311  0.00  0.00    +0.000 C 
ATOM     18  C   UNL     1       7.669   5.011  13.279  0.00  0.00    +0.000 A 
ATOM     19  C   UNL     1       7.645   5.342  14.633  0.00  0.00    +0.000 A 
ENDBRANCH   9  13
ENDBRANCH   3   5
BRANCH   1  20
ATOM     20  C   UNL     1       1.609   8.654  20.215  0.00  0.00    +0.000 C 
BRANCH  20  21
ATOM     21  N   UNL     1       0.510   9.018  21.134  0.00  0.00    +0.000 N 
ATOM     22  C   UNL     1       0.638   9.437  22.433  0.00  0.00    +0.000 C 
ATOM     23  C   UNL     1      -0.665   9.853  23.067  0.00  0.00    +0.000 C 
ATOM     24  O   UNL     1       1.722   9.570  22.993  0.00  0.00    +0.000 OA
ATOM     25  H   UNL     1      -0.405   9.099  20.709  0.00  0.00    +0.000 HD
ENDBRANCH  20  21
BRANCH  20  26
ATOM     26  C   UNL     1       1.535   9.208  18.782  0.00  0.00    +0.000 C 
BRANCH  26  32
ATOM     27  C   UNL     1       0.326  11.451  19.130  0.00  0.00    +0.000 A 
ATOM     28  C   UNL     1      -0.877  12.163  19.089  0.00  0.00    +0.000 A 
ATOM     29  C   UNL     1      -1.991  11.641  18.429  0.00  0.00    +0.000 A 
ATOM     30  C   UNL     1      -1.898  10.422  17.769  0.00  0.00    +0.000 A 
ATOM     31  C   UNL     1      -0.709   9.698  17.824  0.00  0.00    +0.000 A 
ATOM     32  C   UNL     1       0.395  10.171  18.558  0.00  0.00    +0.000 A 
BRANCH  27  34
ATOM     33  C   UNL     1       2.199  12.866  19.175  0.00  0.00    +0.000 C 
ATOM     34  O   UNL     1       1.320  12.002  19.897  0.00  0.00    +0.000 OA
ENDBRANCH  27  34
ENDBRANCH  26  32
ENDBRANCH  20  26
ENDBRANCH   1  20
TORSDOF 7
ENDMDL
MODEL 2
REMARK VINA RESULT:      -7.9      0.584      1.033
REMARK  Name = 
REMARK  10 active torsions:
REMARK  status: ('A' for Active; 'I' for Inactive)
REMARK    1  A    between atoms: C_1  and  O_2
REMARK    2  A    between atoms: O_2  and  C_3
REMARK    3  A    between atoms: C_8  and  C_9
REMARK    4  A    between atoms: C_9  and  C_10
REMARK    5  A    between atoms: C_10  and  N_11
REMARK    6  A    between atoms: C_10  and  C_15
REMARK    7  A    between atoms: C_12  and  C_13
REMARK    8  A    between atoms: N_17  and  C_18
REMARK    9  A    between atoms: C_22  and  C_24
REMARK   10  A    between atoms: C_27  and  C_28
REMARK                            x       y       z     vdW  Elec       q    Type
REMARK                         _______ _______ _______ _____ _____    ______ ____
ROOT
ATOM      1  C   UNL     1       1.573   7.315  20.408  0.00  0.00    +0.000 C 
ATOM      2  O   UNL     1       0.914   6.584  21.145  0.00  0.00    +0.000 OA
ATOM      3  N   UNL     1       2.515   6.840  19.530  0.00  0.00    +0.000 N 
ATOM      4  H   UNL     1       3.220   7.504  19.209  0.00  0.00    +0.000 HD
ENDROOT
BRANCH   3   5
ATOM      5  C   UNL     1       2.684   5.425  19.200  0.00  0.00    +0.000 C 
ATOM      6  C   UNL     1       3.911   4.849  19.923  0.00  0.00    +0.000 C 
ATOM      7  C   UNL     1       5.222   5.408  19.360  0.00  0.00    +0.000 C 
ATOM      8  N   UNL     1       5.271   5.263  17.905  0.00  0.00    +0.000 N 
ATOM      9  C   UNL     1       6.444   4.776  17.321  0.00  0.00    +0.000 C 
ATOM     10  O   UNL     1       7.457   4.551  17.980  0.00  0.00    +0.000 OA
ATOM     11  C   UNL     1       4.139   5.873  17.210  0.00  0.00    +0.000 C 
ATOM     12  C   UNL     1       2.849   5.215  17.685  0.00  0.00    +0.000 C 
BRANCH   9  13
ATOM     13  C   UNL     1       6.515   4.498  15.860  0.00  0.00    +0.000 A 
ATOM     14  C   UNL     1       7.422   5.241  15.089  0.00  0.00    +0.000 A 
ATOM     15  C   UNL     1       7.544   5.000  13.719  0.00  0.00    +0.000 A 
ATOM     16  C   UNL     1       6.751   4.028  13.096  0.00  0.00    +0.000 A 
ATOM     17  C   UNL     1       6.867   3.751  11.630  0.00  0.00    +0.000 C 
ATOM     18  C   UNL     1       5.862   3.275  13.872  0.00  0.00    +0.000 A 
ATOM     19  C   UNL     1       5.778   3.480  15.249  0.00  0.00    +0.000 A 
ENDBRANCH   9  13
ENDBRANCH   3   5
BRANCH   1  20
ATOM     20  C   UNL     1       1.477   8.846  20.492  0.00  0.00    +0.000 C 
BRANCH  20  21
ATOM     21  N   UNL     1       0.324   9.272  21.313  0.00  0.00    +0.000 N 
ATOM     22  C   UNL     1       0.345   9.594  22.645  0.00  0.00    +0.000 C 
ATOM     23  C   UNL     1      -0.971  10.112  23.164  0.00  0.00    +0.000 C 
ATOM     24  O   UNL     1       1.366   9.571  23.326  0.00  0.00    +0.000 OA
ATOM     25  H   UNL     1      -0.523   9.481  20.799  0.00  0.00    +0.000 HD
ENDBRANCH  20  21
BRANCH  20  26
ATOM     26  C   UNL     1       1.577   9.423  19.071  0.00  0.00    +0.000 C 
BRANCH  26  32
ATOM     27  C   UNL     1       0.282  11.642  19.179  0.00  0.00    +0.000 A 
ATOM     28  C   UNL     1      -0.934  12.310  19.001  0.00  0.00    +0.000 A 
ATOM     29  C   UNL     1      -1.980  11.711  18.297  0.00  0.00    +0.000 A 
ATOM     30  C   UNL     1      -1.803  10.456  17.727  0.00  0.00    +0.000 A 
ATOM     31  C   UNL     1      -0.602   9.777  17.919  0.00  0.00    +0.000 A 
ATOM     32  C   UNL     1       0.430  10.331  18.700  0.00  0.00    +0.000 A 
BRANCH  27  34
ATOM     33  C   UNL     1       0.627  12.930  21.111  0.00  0.00    +0.000 C 
ATOM     34  O   UNL     1       1.198  12.274  19.978  0.00  0.00    +0.000 OA
ENDBRANCH  27  34
ENDBRANCH  26  32
ENDBRANCH  20  26
ENDBRANCH   1  20
TORSDOF 7
ENDMDL
MODEL 3
REMARK VINA RESULT:      -7.9      2.951     10.233
REMARK  Name = 
REMARK  10 active torsions:
REMARK  status: ('A' for Active; 'I' for Inactive)
REMARK    1  A    between atoms: C_1  and  O_2
REMARK    2  A    between atoms: O_2  and  C_3
REMARK    3  A    between atoms: C_8  and  C_9
REMARK    4  A    between atoms: C_9  and  C_10
REMARK    5  A    between atoms: C_10  and  N_11
REMARK    6  A    between atoms: C_10  and  C_15
REMARK    7  A    between atoms: C_12  and  C_13
REMARK    8  A    between atoms: N_17  and  C_18
REMARK    9  A    between atoms: C_22  and  C_24
REMARK   10  A    between atoms: C_27  and  C_28
REMARK                            x       y       z     vdW  Elec       q    Type
REMARK                         _______ _______ _______ _____ _____    ______ ____
ROOT
ATOM      1  C   UNL     1       2.396   8.217  18.193  0.00  0.00    +0.000 C 
ATOM      2  O   UNL     1       2.878   8.586  17.124  0.00  0.00    +0.000 OA
ATOM      3  N   UNL     1       1.502   8.972  18.910  0.00  0.00    +0.000 N 
ATOM      4  H   UNL     1       1.409   8.754  19.903  0.00  0.00    +0.000 HD
ENDROOT
BRANCH   3   5
ATOM      5  C   UNL     1       0.847  10.173  18.393  0.00  0.00    +0.000 C 
ATOM      6  C   UNL     1       1.598  11.433  18.853  0.00  0.00    +0.000 C 
ATOM      7  C   UNL     1       1.441  11.676  20.357  0.00  0.00    +0.000 C 
ATOM      8  N   UNL     1       0.031  11.653  20.747  0.00  0.00    +0.000 N 
ATOM      9  C   UNL     1      -0.445  12.658  21.595  0.00  0.00    +0.000 C 
ATOM     10  O   UNL     1       0.299  13.503  22.089  0.00  0.00    +0.000 OA
ATOM     11  C   UNL     1      -0.668  10.424  20.374  0.00  0.00    +0.000 C 
ATOM     12  C   UNL     1      -0.616  10.263  18.858  0.00  0.00    +0.000 C 
BRANCH   9  13
ATOM     13  C   UNL     1      -1.892  12.754  21.933  0.00  0.00    +0.000 A 
ATOM     14  C   UNL     1      -2.293  12.388  23.227  0.00  0.00    +0.000 A 
ATOM     15  C   UNL     1      -3.636  12.485  23.601  0.00  0.00    +0.000 A 
ATOM     16  C   UNL     1      -4.597  12.930  22.685  0.00  0.00    +0.000 A 
ATOM     17  C   UNL     1      -6.040  13.045  23.065  0.00  0.00    +0.000 C 
ATOM     18  C   UNL     1      -4.189  13.312  21.402  0.00  0.00    +0.000 A 
ATOM     19  C   UNL     1      -2.842  13.266  21.046  0.00  0.00    +0.000 A 
ENDBRANCH   9  13
ENDBRANCH   3   5
BRANCH   1  20
ATOM     20  C   UNL     1       2.847   6.919  18.879  0.00  0.00    +0.000 C 
BRANCH  20  21
ATOM     21  N   UNL     1       3.776   6.149  18.025  0.00  0.00    +0.000 N 
ATOM     22  C   UNL     1       4.932   5.532  18.426  0.00  0.00    +0.000 C 
ATOM     23  C   UNL     1       5.593   4.721  17.342  0.00  0.00    +0.000 C 
ATOM     24  O   UNL     1       5.334   5.545  19.586  0.00  0.00    +0.000 OA
ATOM     25  H   UNL     1       3.441   5.945  17.092  0.00  0.00    +0.000 HD
ENDBRANCH  20  21
BRANCH  20  26
ATOM     26  C   UNL     1       1.603   6.182  19.402  0.00  0.00    +0.000 C 
BRANCH  26  32
ATOM     27  C   UNL     1       1.812   3.642  19.062  0.00  0.00    +0.000 A 
ATOM     28  C   UNL     1       1.821   2.369  19.642  0.00  0.00    +0.000 A 
ATOM     29  C   UNL     1       1.965   2.216  21.023  0.00  0.00    +0.000 A 
ATOM     30  C   UNL     1       2.144   3.334  21.829  0.00  0.00    +0.000 A 
ATOM     31  C   UNL     1       2.114   4.605  21.260  0.00  0.00    +0.000 A 
ATOM     32  C   UNL     1       1.883   4.779  19.882  0.00  0.00    +0.000 A 
BRANCH  27  34
ATOM     33  C   UNL     1       2.509   2.981  16.920  0.00  0.00    +0.000 C 
ATOM     34  O   UNL     1       1.554   3.682  17.717  0.00  0.00    +0.000 OA
ENDBRANCH  27  34
ENDBRANCH  26  32
ENDBRANCH  20  26
ENDBRANCH   1  20
TORSDOF 7
ENDMDL
MODEL 4
REMARK VINA RESULT:      -7.8      0.901      1.858
REMARK  Name = 
REMARK  10 active torsions:
REMARK  status: ('A' for Active; 'I' for Inactive)
REMARK    1  A    between atoms: C_1  and  O_2
REMARK    2  A    between atoms: O_2  and  C_3
REMARK    3  A    between atoms: C_8  and  C_9
REMARK    4  A    between atoms: C_9  and  C_10
REMARK    5  A    between atoms: C_10  and  N_11
REMARK    6  A    between atoms: C_10  and  C_15
REMARK    7  A    between atoms: C_12  and  C_13
REMARK    8  A    between atoms: N_17  and  C_18
REMARK    9  A    between atoms: C_22  and  C_24
REMARK   10  A    between atoms: C_27  and  C_28
REMARK                            x       y       z     vdW  Elec       q    Type
REMARK                         _______ _______ _______ _____ _____    ______ ____
ROOT
ATOM      1  C   UNL     1       1.736   7.077  20.219  0.00  0.00    +0.000 C 
ATOM      2  O   UNL     1       1.140   6.296  20.958  0.00  0.00    +0.000 OA
ATOM      3  N   UNL     1       2.720   6.679  19.347  0.00  0.00    +0.000 N 
ATOM      4  H   UNL     1       3.367   7.399  19.025  0.00  0.00    +0.000 HD
ENDROOT
BRANCH   3   5
ATOM      5  C   UNL     1       3.010   5.283  19.026  0.00  0.00    +0.000 C 
ATOM      6  C   UNL     1       4.323   4.842  19.691  0.00  0.00    +0.000 C 
ATOM      7  C   UNL     1       5.542   5.516  19.055  0.00  0.00    +0.000 C 
ATOM      8  N   UNL     1       5.533   5.352  17.601  0.00  0.00    +0.000 N 
ATOM      9  C   UNL     1       6.717   4.972  16.963  0.00  0.00    +0.000 C 
ATOM     10  O   UNL     1       7.779   4.858  17.571  0.00  0.00    +0.000 OA
ATOM     11  C   UNL     1       4.312   5.837  16.958  0.00  0.00    +0.000 C 
ATOM     12  C   UNL     1       3.119   5.063  17.507  0.00  0.00    +0.000 C 
BRANCH   9  13
ATOM     13  C   UNL     1       6.741   4.677  15.503  0.00  0.00    +0.000 A 
ATOM     14  C   UNL     1       7.667   5.367  14.706  0.00  0.00    +0.000 A 
ATOM     15  C   UNL     1       7.746   5.107  13.336  0.00  0.00    +0.000 A 
ATOM     16  C   UNL     1       6.891   4.170  12.741  0.00  0.00    +0.000 A 
ATOM     17  C   UNL     1       6.961   3.874  11.275  0.00  0.00    +0.000 C 
ATOM     18  C   UNL     1       5.984   3.471  13.544  0.00  0.00    +0.000 A 
ATOM     19  C   UNL     1       5.941   3.692  14.919  0.00  0.00    +0.000 A 
ENDBRANCH   9  13
ENDBRANCH   3   5
BRANCH   1  20
ATOM     20  C   UNL     1       1.510   8.594  20.294  0.00  0.00    +0.000 C 
BRANCH  20  21
ATOM     21  N   UNL     1       0.459   8.937  21.276  0.00  0.00    +0.000 N 
ATOM     22  C   UNL     1       0.655   9.366  22.563  0.00  0.00    +0.000 C 
ATOM     23  C   UNL     1      -0.618   9.755  23.271  0.00  0.00    +0.000 C 
ATOM     24  O   UNL     1       1.766   9.527  23.057  0.00  0.00    +0.000 OA
ATOM     25  H   UNL     1      -0.480   8.995  20.905  0.00  0.00    +0.000 HD
ENDBRANCH  20  21
BRANCH  20  26
ATOM     26  C   UNL     1       1.337   9.136  18.866  0.00  0.00    +0.000 C 
BRANCH  26  32
ATOM     27  C   UNL     1      -0.687  10.623  18.313  0.00  0.00    +0.000 A 
ATOM     28  C   UNL     1      -1.170  11.906  18.038  0.00  0.00    +0.000 A 
ATOM     29  C   UNL     1      -0.390  13.033  18.302  0.00  0.00    +0.000 A 
ATOM     30  C   UNL     1       0.864  12.887  18.884  0.00  0.00    +0.000 A 
ATOM     31  C   UNL     1       1.359  11.610  19.140  0.00  0.00    +0.000 A 
ATOM     32  C   UNL     1       0.620  10.462  18.799  0.00  0.00    +0.000 A 
BRANCH  27  34
ATOM     33  C   UNL     1      -2.850   9.955  17.688  0.00  0.00    +0.000 C 
ATOM     34  O   UNL     1      -1.488   9.585  17.912  0.00  0.00    +0.000 OA
ENDBRANCH  27  34
ENDBRANCH  26  32
ENDBRANCH  20  26
ENDBRANCH   1  20
TORSDOF 7
ENDMDL
MODEL 5
REMARK VINA RESULT:      -7.7      2.795     10.170
REMARK  Name = 
REMARK  10 active torsions:
REMARK  status: ('A' for Active; 'I' for Inactive)
REMARK    1  A    between atoms: C_1  and  O_2
REMARK    2  A    between atoms: O_2  and  C_3
REMARK    3  A    between atoms: C_8  and  C_9
REMARK    4  A    between atoms: C_9  and  C_10
REMARK    5  A    between atoms: C_10  and  N_11
REMARK    6  A    between atoms: C_10  and  C_15
REMARK    7  A    between atoms: C_12  and  C_13
REMARK    8  A    between atoms: N_17  and  C_18
REMARK    9  A    between atoms: C_22  and  C_24
REMARK   10  A    between atoms: C_27  and  C_28
REMARK                            x       y       z     vdW  Elec       q    Type
REMARK                         _______ _______ _______ _____ _____    ______ ____
ROOT
ATOM      1  C   UNL     1       2.528   8.143  18.076  0.00  0.00    +0.000 C 
ATOM      2  O   UNL     1       3.012   8.553  17.022  0.00  0.00    +0.000 OA
ATOM      3  N   UNL     1       1.587   8.844  18.788  0.00  0.00    +0.000 N 
ATOM      4  H   UNL     1       1.486   8.605  19.775  0.00  0.00    +0.000 HD
ENDROOT
BRANCH   3   5
ATOM      5  C   UNL     1       0.887  10.023  18.279  0.00  0.00    +0.000 C 
ATOM      6  C   UNL     1       1.640  11.304  18.671  0.00  0.00    +0.000 C 
ATOM      7  C   UNL     1       1.556  11.580  20.176  0.00  0.00    +0.000 C 
ATOM      8  N   UNL     1       0.169  11.544  20.639  0.00  0.00    +0.000 N 
ATOM      9  C   UNL     1      -0.280  12.561  21.487  0.00  0.00    +0.000 C 
ATOM     10  O   UNL     1       0.476  13.428  21.923  0.00  0.00    +0.000 OA
ATOM     11  C   UNL     1      -0.528  10.297  20.329  0.00  0.00    +0.000 C 
ATOM     12  C   UNL     1      -0.552  10.102  18.817  0.00  0.00    +0.000 C 
BRANCH   9  13
ATOM     13  C   UNL     1      -1.708  12.643  21.898  0.00  0.00    +0.000 A 
ATOM     14  C   UNL     1      -2.036  12.308  23.220  0.00  0.00    +0.000 A 
ATOM     15  C   UNL     1      -3.358  12.393  23.661  0.00  0.00    +0.000 A 
ATOM     16  C   UNL     1      -4.374  12.796  22.784  0.00  0.00    +0.000 A 
ATOM     17  C   UNL     1      -5.797  12.898  23.235  0.00  0.00    +0.000 C 
ATOM     18  C   UNL     1      -4.039  13.148  21.472  0.00  0.00    +0.000 A 
ATOM     19  C   UNL     1      -2.712  13.113  21.047  0.00  0.00    +0.000 A 
ENDBRANCH   9  13
ENDBRANCH   3   5
BRANCH   1  20
ATOM     20  C   UNL     1       3.026   6.855  18.748  0.00  0.00    +0.000 C 
BRANCH  20  21
ATOM     21  N   UNL     1       4.138   6.245  17.991  0.00  0.00    +0.000 N 
ATOM     22  C   UNL     1       5.220   5.588  18.518  0.00  0.00    +0.000 C 
ATOM     23  C   UNL     1       6.118   4.968  17.478  0.00  0.00    +0.000 C 
ATOM     24  O   UNL     1       5.385   5.422  19.722  0.00  0.00    +0.000 OA
ATOM     25  H   UNL     1       4.003   6.185  16.990  0.00  0.00    +0.000 HD
ENDBRANCH  20  21
BRANCH  20  26
ATOM     26  C   UNL     1       1.813   5.962  19.055  0.00  0.00    +0.000 C 
BRANCH  26  32
ATOM     27  C   UNL     1       2.368   3.561  19.792  0.00  0.00    +0.000 A 
ATOM     28  C   UNL     1       2.836   2.293  19.432  0.00  0.00    +0.000 A 
ATOM     29  C   UNL     1       2.933   1.925  18.088  0.00  0.00    +0.000 A 
ATOM     30  C   UNL     1       2.523   2.807  17.096  0.00  0.00    +0.000 A 
ATOM     31  C   UNL     1       2.076   4.079  17.448  0.00  0.00    +0.000 A 
ATOM     32  C   UNL     1       2.055   4.495  18.792  0.00  0.00    +0.000 A 
BRANCH  27  34
ATOM     33  C   UNL     1       1.972   2.799  21.977  0.00  0.00    +0.000 C 
ATOM     34  O   UNL     1       2.419   3.858  21.129  0.00  0.00    +0.000 OA
ENDBRANCH  27  34
ENDBRANCH  26  32
ENDBRANCH  20  26
ENDBRANCH   1  20
TORSDOF 7
ENDMDL
MODEL 6
REMARK VINA RESULT:      -7.1      2.461      9.946
REMARK  Name = 
REMARK  10 active torsions:
REMARK  status: ('A' for Active; 'I' for Inactive)
REMARK    1  A    between atoms: C_1  and  O_2
REMARK    2  A    between atoms: O_2  and  C_3
REMARK    3  A    between atoms: C_8  and  C_9
REMARK    4  A    between atoms: C_9  and  C_10
REMARK    5  A    between atoms: C_10  and  N_11
REMARK    6  A    between atoms: C_10  and  C_15
REMARK    7  A    between atoms: C_12  and  C_13
REMARK    8  A    between atoms: N_17  and  C_18
REMARK    9  A    between atoms: C_22  and  C_24
REMARK   10  A    between atoms: C_27  and  C_28
REMARK                            x       y       z     vdW  Elec       q    Type
REMARK                         _______ _______ _______ _____ _____    ______ ____
ROOT
ATOM      1  C   UNL     1       2.539   7.966  17.627  0.00  0.00    +0.000 C 
ATOM      2  O   UNL     1       3.166   8.572  16.760  0.00  0.00    +0.000 OA
ATOM      3  N   UNL     1       1.467   8.510  18.291  0.00  0.00    +0.000 N 
ATOM      4  H   UNL     1       1.221   8.088  19.188  0.00  0.00    +0.000 HD
ENDROOT
BRANCH   3   5
ATOM      5  C   UNL     1       0.808   9.754  17.898  0.00  0.00    +0.000 C 
ATOM      6  C   UNL     1       1.680  10.963  18.269  0.00  0.00    +0.000 C 
ATOM      7  C   UNL     1       1.754  11.173  19.785  0.00  0.00    +0.000 C 
ATOM      8  N   UNL     1       0.415  11.207  20.375  0.00  0.00    +0.000 N 
ATOM      9  C   UNL     1       0.118  12.210  21.302  0.00  0.00    +0.000 C 
ATOM     10  O   UNL     1       0.968  13.005  21.699  0.00  0.00    +0.000 OA
ATOM     11  C   UNL     1      -0.392  10.024  20.082  0.00  0.00    +0.000 C 
ATOM     12  C   UNL     1      -0.567   9.901  18.572  0.00  0.00    +0.000 C 
BRANCH   9  13
ATOM     13  C   UNL     1      -1.258  12.366  21.848  0.00  0.00    +0.000 A 
ATOM     14  C   UNL     1      -2.215  13.014  21.053  0.00  0.00    +0.000 A 
ATOM     15  C   UNL     1      -3.527  13.162  21.511  0.00  0.00    +0.000 A 
ATOM     16  C   UNL     1      -3.895  12.683  22.774  0.00  0.00    +0.000 A 
ATOM     17  C   UNL     1      -5.295  12.828  23.284  0.00  0.00    +0.000 C 
ATOM     18  C   UNL     1      -2.942  12.021  23.556  0.00  0.00    +0.000 A 
ATOM     19  C   UNL     1      -1.648  11.826  23.077  0.00  0.00    +0.000 A 
ENDBRANCH   9  13
ENDBRANCH   3   5
BRANCH   1  20
ATOM     20  C   UNL     1       2.979   6.581  18.125  0.00  0.00    +0.000 C 
BRANCH  20  21
ATOM     21  N   UNL     1       2.084   6.080  19.189  0.00  0.00    +0.000 N 
ATOM     22  C   UNL     1       1.817   4.767  19.479  0.00  0.00    +0.000 C 
ATOM     23  C   UNL     1       0.961   4.579  20.705  0.00  0.00    +0.000 C 
ATOM     24  O   UNL     1       2.318   3.828  18.868  0.00  0.00    +0.000 OA
ATOM     25  H   UNL     1       1.760   6.775  19.849  0.00  0.00    +0.000 HD
ENDBRANCH  20  21
BRANCH  20  26
ATOM     26  C   UNL     1       4.483   6.627  18.438  0.00  0.00    +0.000 C 
BRANCH  26  32
ATOM     27  C   UNL     1       6.449   5.043  17.950  0.00  0.00    +0.000 A 
ATOM     28  C   UNL     1       7.315   4.493  16.999  0.00  0.00    +0.000 A 
ATOM     29  C   UNL     1       7.036   4.600  15.636  0.00  0.00    +0.000 A 
ATOM     30  C   UNL     1       5.866   5.221  15.214  0.00  0.00    +0.000 A 
ATOM     31  C   UNL     1       5.011   5.789  16.155  0.00  0.00    +0.000 A 
ATOM     32  C   UNL     1       5.322   5.765  17.527  0.00  0.00    +0.000 A 
BRANCH  27  34
ATOM     33  C   UNL     1       8.058   5.731  19.515  0.00  0.00    +0.000 C 
ATOM     34  O   UNL     1       6.873   4.978  19.252  0.00  0.00    +0.000 OA
ENDBRANCH  27  34
ENDBRANCH  26  32
ENDBRANCH  20  26
ENDBRANCH   1  20
TORSDOF 7
ENDMDL
MODEL 7
REMARK VINA RESULT:      -7.1      2.791     10.168
REMARK  Name = 
REMARK  10 active torsions:
REMARK  status: ('A' for Active; 'I' for Inactive)
REMARK    1  A    between atoms: C_1  and  O_2
REMARK    2  A    between atoms: O_2  and  C_3
REMARK    3  A    between atoms: C_8  and  C_9
REMARK    4  A    between atoms: C_9  and  C_10
REMARK    5  A    between atoms: C_10  and  N_11
REMARK    6  A    between atoms: C_10  and  C_15
REMARK    7  A    between atoms: C_12  and  C_13
REMARK    8  A    between atoms: N_17  and  C_18
REMARK    9  A    between atoms: C_22  and  C_24
REMARK   10  A    between atoms: C_27  and  C_28
REMARK                            x       y       z     vdW  Elec       q    Type
REMARK                         _______ _______ _______ _____ _____    ______ ____
ROOT
ATOM      1  C   UNL     1       2.418   8.398  18.030  0.00  0.00    +0.000 C 
ATOM      2  O   UNL     1       2.805   8.830  16.945  0.00  0.00    +0.000 OA
ATOM      3  N   UNL     1       1.492   9.049  18.806  0.00  0.00    +0.000 N 
ATOM      4  H   UNL     1       1.472   8.807  19.798  0.00  0.00    +0.000 HD
ENDROOT
BRANCH   3   5
ATOM      5  C   UNL     1       0.697  10.187  18.348  0.00  0.00    +0.000 C 
ATOM      6  C   UNL     1       1.418  11.507  18.663  0.00  0.00    +0.000 C 
ATOM      7  C   UNL     1       1.449  11.798  20.167  0.00  0.00    +0.000 C 
ATOM      8  N   UNL     1       0.109  11.704  20.746  0.00  0.00    +0.000 N 
ATOM      9  C   UNL     1      -0.314  12.710  21.621  0.00  0.00    +0.000 C 
ATOM     10  O   UNL     1       0.433  13.617  21.983  0.00  0.00    +0.000 OA
ATOM     11  C   UNL     1      -0.551  10.421  20.508  0.00  0.00    +0.000 C 
ATOM     12  C   UNL     1      -0.694  10.206  19.006  0.00  0.00    +0.000 C 
BRANCH   9  13
ATOM     13  C   UNL     1      -1.705  12.730  22.151  0.00  0.00    +0.000 A 
ATOM     14  C   UNL     1      -2.714  13.266  21.337  0.00  0.00    +0.000 A 
ATOM     15  C   UNL     1      -4.039  13.285  21.779  0.00  0.00    +0.000 A 
ATOM     16  C   UNL     1      -4.371  12.786  23.046  0.00  0.00    +0.000 A 
ATOM     17  C   UNL     1      -5.785  12.793  23.538  0.00  0.00    +0.000 C 
ATOM     18  C   UNL     1      -3.365  12.234  23.845  0.00  0.00    +0.000 A 
ATOM     19  C   UNL     1      -2.051  12.168  23.382  0.00  0.00    +0.000 A 
ENDBRANCH   9  13
ENDBRANCH   3   5
BRANCH   1  20
ATOM     20  C   UNL     1       3.030   7.140  18.665  0.00  0.00    +0.000 C 
BRANCH  20  21
ATOM     21  N   UNL     1       3.364   6.126  17.643  0.00  0.00    +0.000 N 
ATOM     22  C   UNL     1       4.534   6.036  16.935  0.00  0.00    +0.000 C 
ATOM     23  C   UNL     1       4.619   4.814  16.057  0.00  0.00    +0.000 C 
ATOM     24  O   UNL     1       5.472   6.814  17.084  0.00  0.00    +0.000 OA
ATOM     25  H   UNL     1       2.721   5.348  17.575  0.00  0.00    +0.000 HD
ENDBRANCH  20  21
BRANCH  20  26
ATOM     26  C   UNL     1       2.132   6.692  19.830  0.00  0.00    +0.000 C 
BRANCH  26  32
ATOM     27  C   UNL     1       3.321   4.431  20.126  0.00  0.00    +0.000 A 
ATOM     28  C   UNL     1       3.231   3.036  20.088  0.00  0.00    +0.000 A 
ATOM     29  C   UNL     1       1.987   2.402  20.067  0.00  0.00    +0.000 A 
ATOM     30  C   UNL     1       0.823   3.158  20.126  0.00  0.00    +0.000 A 
ATOM     31  C   UNL     1       0.905   4.549  20.141  0.00  0.00    +0.000 A 
ATOM     32  C   UNL     1       2.150   5.203  20.075  0.00  0.00    +0.000 A 
BRANCH  27  34
ATOM     33  C   UNL     1       5.543   4.051  19.471  0.00  0.00    +0.000 C 
ATOM     34  O   UNL     1       4.585   4.951  20.031  0.00  0.00    +0.000 OA
ENDBRANCH  27  34
ENDBRANCH  26  32
ENDBRANCH  20  26
ENDBRANCH   1  20
TORSDOF 7
ENDMDL
MODEL 8
REMARK VINA RESULT:      -7.1      6.443     10.863
REMARK  Name = 
REMARK  10 active torsions:
REMARK  status: ('A' for Active; 'I' for Inactive)
REMARK    1  A    between atoms: C_1  and  O_2
REMARK    2  A    between atoms: O_2  and  C_3
REMARK    3  A    between atoms: C_8  and  C_9
REMARK    4  A    between atoms: C_9  and  C_10
REMARK    5  A    between atoms: C_10  and  N_11
REMARK    6  A    between atoms: C_10  and  C_15
REMARK    7  A    between atoms: C_12  and  C_13
REMARK    8  A    between atoms: N_17  and  C_18
REMARK    9  A    between atoms: C_22  and  C_24
REMARK   10  A    between atoms: C_27  and  C_28
REMARK                            x       y       z     vdW  Elec       q    Type
REMARK                         _______ _______ _______ _____ _____    ______ ____
ROOT
ATOM      1  C   UNL     1       6.713  16.183  18.931  0.00  0.00    +0.000 C 
ATOM      2  O   UNL     1       6.640  17.343  19.333  0.00  0.00    +0.000 OA
ATOM      3  N   UNL     1       5.608  15.414  18.662  0.00  0.00    +0.000 N 
ATOM      4  H   UNL     1       5.744  14.403  18.653  0.00  0.00    +0.000 HD
ENDROOT
BRANCH   3   5
ATOM      5  C   UNL     1       4.245  15.938  18.596  0.00  0.00    +0.000 C 
ATOM      6  C   UNL     1       3.672  16.122  20.010  0.00  0.00    +0.000 C 
ATOM      7  C   UNL     1       3.404  14.780  20.698  0.00  0.00    +0.000 C 
ATOM      8  N   UNL     1       2.600  13.904  19.845  0.00  0.00    +0.000 N 
ATOM      9  C   UNL     1       1.519  13.224  20.413  0.00  0.00    +0.000 C 
ATOM     10  O   UNL     1       1.279  13.270  21.618  0.00  0.00    +0.000 OA
ATOM     11  C   UNL     1       3.180  13.671  18.523  0.00  0.00    +0.000 C 
ATOM     12  C   UNL     1       3.319  15.004  17.797  0.00  0.00    +0.000 C 
BRANCH   9  13
ATOM     13  C   UNL     1       0.597  12.411  19.572  0.00  0.00    +0.000 A 
ATOM     14  C   UNL     1       0.765  11.018  19.566  0.00  0.00    +0.000 A 
ATOM     15  C   UNL     1      -0.091  10.210  18.814  0.00  0.00    +0.000 A 
ATOM     16  C   UNL     1      -1.113  10.782  18.045  0.00  0.00    +0.000 A 
ATOM     17  C   UNL     1      -2.044   9.935  17.234  0.00  0.00    +0.000 C 
ATOM     18  C   UNL     1      -1.288  12.170  18.070  0.00  0.00    +0.000 A 
ATOM     19  C   UNL     1      -0.468  12.971  18.862  0.00  0.00    +0.000 A 
ENDBRANCH   9  13
ENDBRANCH   3   5
BRANCH   1  20
ATOM     20  C   UNL     1       8.059  15.453  18.806  0.00  0.00    +0.000 C 
BRANCH  20  21
ATOM     21  N   UNL     1       9.022  16.229  17.997  0.00  0.00    +0.000 N 
ATOM     22  C   UNL     1      10.017  17.043  18.472  0.00  0.00    +0.000 C 
ATOM     23  C   UNL     1      10.913  17.596  17.394  0.00  0.00    +0.000 C 
ATOM     24  O   UNL     1      10.230  17.218  19.668  0.00  0.00    +0.000 OA
ATOM     25  H   UNL     1       9.031  16.016  17.008  0.00  0.00    +0.000 HD
ENDBRANCH  20  21
BRANCH  20  26
ATOM     26  C   UNL     1       7.792  14.001  18.377  0.00  0.00    +0.000 C 
BRANCH  26  32
ATOM     27  C   UNL     1       9.284  12.612  19.945  0.00  0.00    +0.000 A 
ATOM     28  C   UNL     1      10.509  11.967  20.145  0.00  0.00    +0.000 A 
ATOM     29  C   UNL     1      11.362  11.708  19.070  0.00  0.00    +0.000 A 
ATOM     30  C   UNL     1      10.977  12.054  17.780  0.00  0.00    +0.000 A 
ATOM     31  C   UNL     1       9.768  12.716  17.577  0.00  0.00    +0.000 A 
ATOM     32  C   UNL     1       8.938  13.061  18.661  0.00  0.00    +0.000 A 
BRANCH  27  34
ATOM     33  C   UNL     1       9.254  13.812  21.963  0.00  0.00    +0.000 C 
ATOM     34  O   UNL     1       8.577  12.916  21.079  0.00  0.00    +0.000 OA
ENDBRANCH  27  34
ENDBRANCH  26  32
ENDBRANCH  20  26
ENDBRANCH   1  20
TORSDOF 7
ENDMDL
MODEL 9
REMARK VINA RESULT:      -7.0      2.709      9.729
REMARK  Name = 
REMARK  10 active torsions:
REMARK  status: ('A' for Active; 'I' for Inactive)
REMARK    1  A    between atoms: C_1  and  O_2
REMARK    2  A    between atoms: O_2  and  C_3
REMARK    3  A    between atoms: C_8  and  C_9
REMARK    4  A    between atoms: C_9  and  C_10
REMARK    5  A    between atoms: C_10  and  N_11
REMARK    6  A    between atoms: C_10  and  C_15
REMARK    7  A    between atoms: C_12  and  C_13
REMARK    8  A    between atoms: N_17  and  C_18
REMARK    9  A    between atoms: C_22  and  C_24
REMARK   10  A    between atoms: C_27  and  C_28
REMARK                            x       y       z     vdW  Elec       q    Type
REMARK                         _______ _______ _______ _____ _____    ______ ____
ROOT
ATOM      1  C   UNL     1       2.661   7.981  17.724  0.00  0.00    +0.000 C 
ATOM      2  O   UNL     1       3.309   8.538  16.839  0.00  0.00    +0.000 OA
ATOM      3  N   UNL     1       1.601   8.577  18.361  0.00  0.00    +0.000 N 
ATOM      4  H   UNL     1       1.338   8.195  19.270  0.00  0.00    +0.000 HD
ENDROOT
BRANCH   3   5
ATOM      5  C   UNL     1       0.978   9.824  17.920  0.00  0.00    +0.000 C 
ATOM      6  C   UNL     1       1.829  11.029  18.348  0.00  0.00    +0.000 C 
ATOM      7  C   UNL     1       1.798  11.243  19.865  0.00  0.00    +0.000 C 
ATOM      8  N   UNL     1       0.422  11.287  20.360  0.00  0.00    +0.000 N 
ATOM      9  C   UNL     1       0.067  12.294  21.261  0.00  0.00    +0.000 C 
ATOM     10  O   UNL     1       0.892  13.085  21.715  0.00  0.00    +0.000 OA
ATOM     11  C   UNL     1      -0.370  10.107  20.014  0.00  0.00    +0.000 C 
ATOM     12  C   UNL     1      -0.440   9.982  18.496  0.00  0.00    +0.000 C 
BRANCH   9  13
ATOM     13  C   UNL     1      -1.343  12.460  21.710  0.00  0.00    +0.000 A 
ATOM     14  C   UNL     1      -2.260  13.026  20.812  0.00  0.00    +0.000 A 
ATOM     15  C   UNL     1      -3.600  13.179  21.177  0.00  0.00    +0.000 A 
ATOM     16  C   UNL     1      -4.038  12.786  22.448  0.00  0.00    +0.000 A 
ATOM     17  C   UNL     1      -5.470  12.938  22.859  0.00  0.00    +0.000 C 
ATOM     18  C   UNL     1      -3.124  12.203  23.333  0.00  0.00    +0.000 A 
ATOM     19  C   UNL     1      -1.799  12.003  22.949  0.00  0.00    +0.000 A 
ENDBRANCH   9  13
ENDBRANCH   3   5
BRANCH   1  20
ATOM     20  C   UNL     1       3.059   6.604  18.273  0.00  0.00    +0.000 C 
BRANCH  20  21
ATOM     21  N   UNL     1       4.395   6.194  17.792  0.00  0.00    +0.000 N 
ATOM     22  C   UNL     1       5.378   5.588  18.531  0.00  0.00    +0.000 C 
ATOM     23  C   UNL     1       6.582   5.182  17.720  0.00  0.00    +0.000 C 
ATOM     24  O   UNL     1       5.247   5.299  19.716  0.00  0.00    +0.000 OA
ATOM     25  H   UNL     1       4.530   6.240  16.790  0.00  0.00    +0.000 HD
ENDBRANCH  20  21
BRANCH  20  26
ATOM     26  C   UNL     1       1.898   5.625  18.034  0.00  0.00    +0.000 C 
BRANCH  26  32
ATOM     27  C   UNL     1       1.872   4.907  20.503  0.00  0.00    +0.000 A 
ATOM     28  C   UNL     1       1.948   3.863  21.430  0.00  0.00    +0.000 A 
ATOM     29  C   UNL     1       1.804   2.535  21.022  0.00  0.00    +0.000 A 
ATOM     30  C   UNL     1       1.540   2.245  19.688  0.00  0.00    +0.000 A 
ATOM     31  C   UNL     1       1.485   3.279  18.757  0.00  0.00    +0.000 A 
ATOM     32  C   UNL     1       1.714   4.614  19.139  0.00  0.00    +0.000 A 
BRANCH  27  34
ATOM     33  C   UNL     1       0.971   6.938  21.263  0.00  0.00    +0.000 C 
ATOM     34  O   UNL     1       2.138   6.159  20.992  0.00  0.00    +0.000 OA
ENDBRANCH  27  34
ENDBRANCH  26  32
ENDBRANCH  20  26
ENDBRANCH   1  20
TORSDOF 7
ENDMDL
