MODEL 1
REMARK VINA RESULT:      -7.4      0.000      0.000
REMARK  Name = 
REMARK  2 active torsions:
REMARK  status: ('A' for Active; 'I' for Inactive)
REMARK    1  A    between atoms: C_2  and  C_17
REMARK    2  A    between atoms: N_6  and  C_7
REMARK                            x       y       z     vdW  Elec       q    Type
REMARK                         _______ _______ _______ _____ _____    ______ ____
ROOT
ATOM      1  O   UNL     1       5.336   3.486  16.493  0.00  0.00    +0.000 OA
ATOM      2  C   UNL     1       5.391   4.479  15.770  0.00  0.00    +0.000 C 
ATOM      3  N   UNL     1       4.809   5.698  16.060  0.00  0.00    +0.000 N 
ATOM      4  C   UNL     1       4.141   5.989  17.207  0.00  0.00    +0.000 C 
ATOM      5  N   UNL     1       3.629   7.163  17.404  0.00  0.00    +0.000 NA
ATOM      6  N   UNL     1       3.089   7.142  18.663  0.00  0.00    +0.000 N 
ATOM      7  C   UNL     1       3.154   5.826  19.288  0.00  0.00    +0.000 C 
ATOM      8  C   UNL     1       3.943   4.993  18.303  0.00  0.00    +0.000 C 
ATOM      9  H   UNL     1       4.834   6.450  15.386  0.00  0.00    +0.000 HD
ENDROOT
BRANCH   6  10
ATOM     10  C   UNL     1       2.141   8.091  19.059  0.00  0.00    +0.000 A 
ATOM     11  C   UNL     1       1.654   9.048  18.157  0.00  0.00    +0.000 A 
ATOM     12  C   UNL     1       0.673   9.974  18.527  0.00  0.00    +0.000 A 
ATOM     13  C   UNL     1       0.173   9.980  19.828  0.00  0.00    +0.000 A 
ATOM     14 CL   UNL     1      -1.054  11.130  20.217  0.00  0.00    +0.000 Cl
ATOM     15  C   UNL     1       0.671   9.067  20.758  0.00  0.00    +0.000 A 
ATOM     16 CL   UNL     1       0.131   9.031  22.401  0.00  0.00    +0.000 Cl
ATOM     17  C   UNL     1       1.645   8.135  20.373  0.00  0.00    +0.000 A 
ENDBRANCH   6  10
BRANCH   2  18
ATOM     18  C   UNL     1       6.093   4.348  14.477  0.00  0.00    +0.000 A 
ATOM     19  C   UNL     1       7.208   5.165  14.275  0.00  0.00    +0.000 A 
ATOM     20  C   UNL     1       7.835   5.118  13.048  0.00  0.00    +0.000 A 
ATOM     21  N   UNL     1       7.420   4.330  12.033  0.00  0.00    +0.000 NA
ATOM     22  C   UNL     1       6.328   3.564  12.251  0.00  0.00    +0.000 A 
ATOM     23  C   UNL     1       5.632   3.529  13.448  0.00  0.00    +0.000 A 
ENDBRANCH   2  18
TORSDOF 2
ENDMDL
MODEL 2
REMARK VINA RESULT:      -7.4      4.717      9.377
REMARK  Name = 
REMARK  2 active torsions:
REMARK  status: ('A' for Active; 'I' for Inactive)
REMARK    1  A    between atoms: C_2  and  C_17
REMARK    2  A    between atoms: N_6  and  C_7
REMARK                            x       y       z     vdW  Elec       q    Type
REMARK                         _______ _______ _______ _____ _____    ______ ____
ROOT
ATOM      1  O   UNL     1       0.512  11.710  19.170  0.00  0.00    +0.000 OA
ATOM      2  C   UNL     1       0.466  11.193  20.284  0.00  0.00    +0.000 C 
ATOM      3  N   UNL     1       0.888   9.910  20.575  0.00  0.00    +0.000 N 
ATOM      4  C   UNL     1       1.464   9.060  19.686  0.00  0.00    +0.000 C 
ATOM      5  N   UNL     1       1.840   7.872  20.043  0.00  0.00    +0.000 NA
ATOM      6  N   UNL     1       2.428   7.306  18.943  0.00  0.00    +0.000 N 
ATOM      7  C   UNL     1       2.328   8.142  17.751  0.00  0.00    +0.000 C 
ATOM      8  C   UNL     1       1.695   9.419  18.254  0.00  0.00    +0.000 C 
ATOM      9  H   UNL     1       0.755   9.525  21.500  0.00  0.00    +0.000 HD
ENDROOT
BRANCH   6  10
ATOM     10  C   UNL     1       2.606   5.922  18.849  0.00  0.00    +0.000 A 
ATOM     11  C   UNL     1       3.242   5.347  17.739  0.00  0.00    +0.000 A 
ATOM     12  C   UNL     1       3.466   3.969  17.654  0.00  0.00    +0.000 A 
ATOM     13  C   UNL     1       3.032   3.125  18.674  0.00  0.00    +0.000 A 
ATOM     14 CL   UNL     1       3.361   1.437  18.523  0.00  0.00    +0.000 Cl
ATOM     15  C   UNL     1       2.358   3.665  19.769  0.00  0.00    +0.000 A 
ATOM     16 CL   UNL     1       1.755   2.685  21.061  0.00  0.00    +0.000 Cl
ATOM     17  C   UNL     1       2.150   5.048  19.852  0.00  0.00    +0.000 A 
ENDBRANCH   6  10
BRANCH   2  18
ATOM     18  C   UNL     1      -0.124  11.984  21.384  0.00  0.00    +0.000 A 
ATOM     19  C   UNL     1      -1.037  11.332  22.215  0.00  0.00    +0.000 A 
ATOM     20  C   UNL     1      -1.660  12.068  23.201  0.00  0.00    +0.000 A 
ATOM     21  N   UNL     1      -1.438  13.385  23.395  0.00  0.00    +0.000 NA
ATOM     22  C   UNL     1      -0.562  13.994  22.563  0.00  0.00    +0.000 A 
ATOM     23  C   UNL     1       0.123  13.344  21.550  0.00  0.00    +0.000 A 
ENDBRANCH   2  18
TORSDOF 2
ENDMDL
MODEL 3
REMARK VINA RESULT:      -7.3      4.685      9.305
REMARK  Name = 
REMARK  2 active torsions:
REMARK  status: ('A' for Active; 'I' for Inactive)
REMARK    1  A    between atoms: C_2  and  C_17
REMARK    2  A    between atoms: N_6  and  C_7
REMARK                            x       y       z     vdW  Elec       q    Type
REMARK                         _______ _______ _______ _____ _____    ______ ____
ROOT
ATOM      1  O   UNL     1       0.547  11.779  19.035  0.00  0.00    +0.000 OA
ATOM      2  C   UNL     1       0.440  11.257  20.143  0.00  0.00    +0.000 C 
ATOM      3  N   UNL     1       0.836   9.969  20.449  0.00  0.00    +0.000 N 
ATOM      4  C   UNL     1       1.449   9.118  19.585  0.00  0.00    +0.000 C 
ATOM      5  N   UNL     1       1.796   7.925  19.954  0.00  0.00    +0.000 NA
ATOM      6  N   UNL     1       2.434   7.359  18.882  0.00  0.00    +0.000 N 
ATOM      7  C   UNL     1       2.402   8.202  17.692  0.00  0.00    +0.000 C 
ATOM      8  C   UNL     1       1.755   9.482  18.169  0.00  0.00    +0.000 C 
ATOM      9  H   UNL     1       0.653   9.581  21.363  0.00  0.00    +0.000 HD
ENDROOT
BRANCH   6  10
ATOM     10  C   UNL     1       2.605   5.974  18.791  0.00  0.00    +0.000 A 
ATOM     11  C   UNL     1       3.360   5.405  17.754  0.00  0.00    +0.000 A 
ATOM     12  C   UNL     1       3.575   4.025  17.677  0.00  0.00    +0.000 A 
ATOM     13  C   UNL     1       3.014   3.174  18.627  0.00  0.00    +0.000 A 
ATOM     14 CL   UNL     1       3.338   1.484  18.491  0.00  0.00    +0.000 Cl
ATOM     15  C   UNL     1       2.223   3.710  19.644  0.00  0.00    +0.000 A 
ATOM     16 CL   UNL     1       1.461   2.722  20.842  0.00  0.00    +0.000 Cl
ATOM     17  C   UNL     1       2.024   5.095  19.721  0.00  0.00    +0.000 A 
ENDBRANCH   6  10
BRANCH   2  18
ATOM     18  C   UNL     1      -0.198  12.047  21.216  0.00  0.00    +0.000 A 
ATOM     19  C   UNL     1       0.235  13.365  21.376  0.00  0.00    +0.000 A 
ATOM     20  C   UNL     1      -0.288  14.100  22.418  0.00  0.00    +0.000 A 
ATOM     21  N   UNL     1      -1.189  13.607  23.294  0.00  0.00    +0.000 NA
ATOM     22  C   UNL     1      -1.576  12.322  23.126  0.00  0.00    +0.000 A 
ATOM     23  C   UNL     1      -1.120  11.503  22.107  0.00  0.00    +0.000 A 
ENDBRANCH   2  18
TORSDOF 2
ENDMDL
MODEL 4
REMARK VINA RESULT:      -7.3      0.170      1.019
REMARK  Name = 
REMARK  2 active torsions:
REMARK  status: ('A' for Active; 'I' for Inactive)
REMARK    1  A    between atoms: C_2  and  C_17
REMARK    2  A    between atoms: N_6  and  C_7
REMARK                            x       y       z     vdW  Elec       q    Type
REMARK                         _______ _______ _______ _____ _____    ______ ____
ROOT
ATOM      1  O   UNL     1       5.257   3.646  16.467  0.00  0.00    +0.000 OA
ATOM      2  C   UNL     1       5.318   4.659  15.773  0.00  0.00    +0.000 C 
ATOM      3  N   UNL     1       4.738   5.871  16.095  0.00  0.00    +0.000 N 
ATOM      4  C   UNL     1       4.067   6.130  17.247  0.00  0.00    +0.000 C 
ATOM      5  N   UNL     1       3.557   7.300  17.476  0.00  0.00    +0.000 NA
ATOM      6  N   UNL     1       3.012   7.244  18.731  0.00  0.00    +0.000 N 
ATOM      7  C   UNL     1       3.070   5.910  19.319  0.00  0.00    +0.000 C 
ATOM      8  C   UNL     1       3.860   5.104  18.313  0.00  0.00    +0.000 C 
ATOM      9  H   UNL     1       4.769   6.642  15.443  0.00  0.00    +0.000 HD
ENDROOT
BRANCH   6  10
ATOM     10  C   UNL     1       2.065   8.184  19.150  0.00  0.00    +0.000 A 
ATOM     11  C   UNL     1       1.564   9.152  18.266  0.00  0.00    +0.000 A 
ATOM     12  C   UNL     1       0.584  10.068  18.661  0.00  0.00    +0.000 A 
ATOM     13  C   UNL     1       0.098  10.055  19.966  0.00  0.00    +0.000 A 
ATOM     14 CL   UNL     1      -1.129  11.195  20.385  0.00  0.00    +0.000 Cl
ATOM     15  C   UNL     1       0.610   9.132  20.878  0.00  0.00    +0.000 A 
ATOM     16 CL   UNL     1       0.088   9.071  22.526  0.00  0.00    +0.000 Cl
ATOM     17  C   UNL     1       1.582   8.209  20.471  0.00  0.00    +0.000 A 
ENDBRANCH   6  10
BRANCH   2  18
ATOM     18  C   UNL     1       6.026   4.563  14.479  0.00  0.00    +0.000 A 
ATOM     19  C   UNL     1       5.493   3.691  13.528  0.00  0.00    +0.000 A 
ATOM     20  C   UNL     1       6.178   3.525  12.342  0.00  0.00    +0.000 A 
ATOM     21  N   UNL     1       7.338   4.155  12.062  0.00  0.00    +0.000 NA
ATOM     22  C   UNL     1       7.840   4.979  13.009  0.00  0.00    +0.000 A 
ATOM     23  C   UNL     1       7.227   5.223  14.227  0.00  0.00    +0.000 A 
ENDBRANCH   2  18
TORSDOF 2
ENDMDL
MODEL 5
REMARK VINA RESULT:      -7.2      2.287      3.506
REMARK  Name = 
REMARK  2 active torsions:
REMARK  status: ('A' for Active; 'I' for Inactive)
REMARK    1  A    between atoms: C_2  and  C_17
REMARK    2  A    between atoms: N_6  and  C_7
REMARK                            x       y       z     vdW  Elec       q    Type
REMARK                         _______ _______ _______ _____ _____    ______ ____
ROOT
ATOM      1  O   UNL     1       4.259   5.809  19.401  0.00  0.00    +0.000 OA
ATOM      2  C   UNL     1       4.283   6.241  18.250  0.00  0.00    +0.000 C 
ATOM      3  N   UNL     1       3.424   7.201  17.751  0.00  0.00    +0.000 N 
ATOM      4  C   UNL     1       2.469   7.842  18.475  0.00  0.00    +0.000 C 
ATOM      5  N   UNL     1       1.707   8.738  17.931  0.00  0.00    +0.000 NA
ATOM      6  N   UNL     1       0.909   9.225  18.933  0.00  0.00    +0.000 N 
ATOM      7  C   UNL     1       1.085   8.517  20.196  0.00  0.00    +0.000 C 
ATOM      8  C   UNL     1       2.225   7.561  19.922  0.00  0.00    +0.000 C 
ATOM      9  H   UNL     1       3.455   7.458  16.775  0.00  0.00    +0.000 HD
ENDROOT
BRANCH   6  10
ATOM     10  C   UNL     1      -0.270   9.919  18.645  0.00  0.00    +0.000 A 
ATOM     11  C   UNL     1      -1.005   9.646  17.481  0.00  0.00    +0.000 A 
ATOM     12  C   UNL     1      -2.210  10.301  17.204  0.00  0.00    +0.000 A 
ATOM     13  C   UNL     1      -2.696  11.271  18.078  0.00  0.00    +0.000 A 
ATOM     14 CL   UNL     1      -4.201  12.025  17.694  0.00  0.00    +0.000 Cl
ATOM     15  C   UNL     1      -1.964  11.593  19.221  0.00  0.00    +0.000 A 
ATOM     16 CL   UNL     1      -2.478  12.808  20.339  0.00  0.00    +0.000 Cl
ATOM     17  C   UNL     1      -0.765  10.922  19.497  0.00  0.00    +0.000 A 
ENDBRANCH   6  10
BRANCH   2  18
ATOM     18  C   UNL     1       5.274   5.661  17.319  0.00  0.00    +0.000 A 
ATOM     19  C   UNL     1       6.394   5.049  17.886  0.00  0.00    +0.000 A 
ATOM     20  C   UNL     1       7.371   4.569  17.039  0.00  0.00    +0.000 A 
ATOM     21  N   UNL     1       7.301   4.669  15.695  0.00  0.00    +0.000 NA
ATOM     22  C   UNL     1       6.214   5.283  15.176  0.00  0.00    +0.000 A 
ATOM     23  C   UNL     1       5.173   5.790  15.936  0.00  0.00    +0.000 A 
ENDBRANCH   2  18
TORSDOF 2
ENDMDL
MODEL 6
REMARK VINA RESULT:      -7.2      4.839      9.557
REMARK  Name = 
REMARK  2 active torsions:
REMARK  status: ('A' for Active; 'I' for Inactive)
REMARK    1  A    between atoms: C_2  and  C_17
REMARK    2  A    between atoms: N_6  and  C_7
REMARK                            x       y       z     vdW  Elec       q    Type
REMARK                         _______ _______ _______ _____ _____    ______ ____
ROOT
ATOM      1  O   UNL     1      -0.285  11.768  18.893  0.00  0.00    +0.000 OA
ATOM      2  C   UNL     1      -0.341  11.343  20.045  0.00  0.00    +0.000 C 
ATOM      3  N   UNL     1       0.238  10.167  20.480  0.00  0.00    +0.000 N 
ATOM      4  C   UNL     1       0.995   9.341  19.710  0.00  0.00    +0.000 C 
ATOM      5  N   UNL     1       1.509   8.256  20.198  0.00  0.00    +0.000 NA
ATOM      6  N   UNL     1       2.253   7.696  19.193  0.00  0.00    +0.000 N 
ATOM      7  C   UNL     1       2.125   8.407  17.926  0.00  0.00    +0.000 C 
ATOM      8  C   UNL     1       1.279   9.613  18.268  0.00  0.00    +0.000 C 
ATOM      9  H   UNL     1       0.092   9.843  21.426  0.00  0.00    +0.000 HD
ENDROOT
BRANCH   6  10
ATOM     10  C   UNL     1       2.634   6.352  19.239  0.00  0.00    +0.000 A 
ATOM     11  C   UNL     1       3.430   5.789  18.230  0.00  0.00    +0.000 A 
ATOM     12  C   UNL     1       3.855   4.458  18.287  0.00  0.00    +0.000 A 
ATOM     13  C   UNL     1       3.469   3.645  19.350  0.00  0.00    +0.000 A 
ATOM     14 CL   UNL     1       4.046   2.018  19.376  0.00  0.00    +0.000 Cl
ATOM     15  C   UNL     1       2.642   4.166  20.345  0.00  0.00    +0.000 A 
ATOM     16 CL   UNL     1       2.087   3.216  21.680  0.00  0.00    +0.000 Cl
ATOM     17  C   UNL     1       2.232   5.504  20.287  0.00  0.00    +0.000 A 
ENDBRANCH   6  10
BRANCH   2  18
ATOM     18  C   UNL     1      -1.119  12.125  21.028  0.00  0.00    +0.000 A 
ATOM     19  C   UNL     1      -2.292  12.730  20.572  0.00  0.00    +0.000 A 
ATOM     20  C   UNL     1      -2.995  13.529  21.449  0.00  0.00    +0.000 A 
ATOM     21  N   UNL     1      -2.602  13.760  22.719  0.00  0.00    +0.000 NA
ATOM     22  C   UNL     1      -1.453  13.176  23.128  0.00  0.00    +0.000 A 
ATOM     23  C   UNL     1      -0.678  12.350  22.331  0.00  0.00    +0.000 A 
ENDBRANCH   2  18
TORSDOF 2
ENDMDL
MODEL 7
REMARK VINA RESULT:      -7.2      0.754      1.821
REMARK  Name = 
REMARK  2 active torsions:
REMARK  status: ('A' for Active; 'I' for Inactive)
REMARK    1  A    between atoms: C_2  and  C_17
REMARK    2  A    between atoms: N_6  and  C_7
REMARK                            x       y       z     vdW  Elec       q    Type
REMARK                         _______ _______ _______ _____ _____    ______ ____
ROOT
ATOM      1  O   UNL     1       5.059   3.315  16.325  0.00  0.00    +0.000 OA
ATOM      2  C   UNL     1       5.216   4.409  15.787  0.00  0.00    +0.000 C 
ATOM      3  N   UNL     1       4.718   5.603  16.269  0.00  0.00    +0.000 N 
ATOM      4  C   UNL     1       4.032   5.746  17.434  0.00  0.00    +0.000 C 
ATOM      5  N   UNL     1       3.603   6.906  17.819  0.00  0.00    +0.000 NA
ATOM      6  N   UNL     1       3.016   6.714  19.043  0.00  0.00    +0.000 N 
ATOM      7  C   UNL     1       2.958   5.309  19.431  0.00  0.00    +0.000 C 
ATOM      8  C   UNL     1       3.718   4.596  18.335  0.00  0.00    +0.000 C 
ATOM      9  H   UNL     1       4.825   6.455  15.737  0.00  0.00    +0.000 HD
ENDROOT
BRANCH   6  10
ATOM     10  C   UNL     1       2.129   7.655  19.575  0.00  0.00    +0.000 A 
ATOM     11  C   UNL     1       1.583   7.491  20.856  0.00  0.00    +0.000 A 
ATOM     12  C   UNL     1       0.729   8.446  21.418  0.00  0.00    +0.000 A 
ATOM     13  C   UNL     1       0.378   9.583  20.693  0.00  0.00    +0.000 A 
ATOM     14 CL   UNL     1      -0.658  10.738  21.450  0.00  0.00    +0.000 Cl
ATOM     15  C   UNL     1       0.872   9.750  19.399  0.00  0.00    +0.000 A 
ATOM     16 CL   UNL     1       0.458  11.114  18.418  0.00  0.00    +0.000 Cl
ATOM     17  C   UNL     1       1.737   8.794  18.850  0.00  0.00    +0.000 A 
ENDBRANCH   6  10
BRANCH   2  18
ATOM     18  C   UNL     1       5.955   4.444  14.507  0.00  0.00    +0.000 A 
ATOM     19  C   UNL     1       5.487   3.620  13.482  0.00  0.00    +0.000 A 
ATOM     20  C   UNL     1       6.203   3.577  12.304  0.00  0.00    +0.000 A 
ATOM     21  N   UNL     1       7.335   4.283  12.099  0.00  0.00    +0.000 NA
ATOM     22  C   UNL     1       7.775   5.058  13.116  0.00  0.00    +0.000 A 
ATOM     23  C   UNL     1       7.125   5.180  14.333  0.00  0.00    +0.000 A 
ENDBRANCH   2  18
TORSDOF 2
ENDMDL
MODEL 8
REMARK VINA RESULT:      -7.1      4.892      9.564
REMARK  Name = 
REMARK  2 active torsions:
REMARK  status: ('A' for Active; 'I' for Inactive)
REMARK    1  A    between atoms: C_2  and  C_17
REMARK    2  A    between atoms: N_6  and  C_7
REMARK                            x       y       z     vdW  Elec       q    Type
REMARK                         _______ _______ _______ _____ _____    ______ ____
ROOT
ATOM      1  O   UNL     1      -0.454  11.847  18.780  0.00  0.00    +0.000 OA
ATOM      2  C   UNL     1      -0.461  11.487  19.955  0.00  0.00    +0.000 C 
ATOM      3  N   UNL     1       0.162  10.351  20.435  0.00  0.00    +0.000 N 
ATOM      4  C   UNL     1       0.915   9.502  19.687  0.00  0.00    +0.000 C 
ATOM      5  N   UNL     1       1.473   8.459  20.216  0.00  0.00    +0.000 NA
ATOM      6  N   UNL     1       2.198   7.861  19.220  0.00  0.00    +0.000 N 
ATOM      7  C   UNL     1       2.009   8.496  17.920  0.00  0.00    +0.000 C 
ATOM      8  C   UNL     1       1.144   9.698  18.223  0.00  0.00    +0.000 C 
ATOM      9  H   UNL     1       0.056  10.079  21.402  0.00  0.00    +0.000 HD
ENDROOT
BRANCH   6  10
ATOM     10  C   UNL     1       2.615   6.531  19.328  0.00  0.00    +0.000 A 
ATOM     11  C   UNL     1       3.557   5.993  18.438  0.00  0.00    +0.000 A 
ATOM     12  C   UNL     1       4.016   4.678  18.562  0.00  0.00    +0.000 A 
ATOM     13  C   UNL     1       3.519   3.856  19.572  0.00  0.00    +0.000 A 
ATOM     14 CL   UNL     1       4.144   2.250  19.689  0.00  0.00    +0.000 Cl
ATOM     15  C   UNL     1       2.550   4.352  20.444  0.00  0.00    +0.000 A 
ATOM     16 CL   UNL     1       1.856   3.388  21.701  0.00  0.00    +0.000 Cl
ATOM     17  C   UNL     1       2.106   5.675  20.320  0.00  0.00    +0.000 A 
ENDBRANCH   6  10
BRANCH   2  18
ATOM     18  C   UNL     1      -1.226  12.304  20.919  0.00  0.00    +0.000 A 
ATOM     19  C   UNL     1      -0.863  12.205  22.264  0.00  0.00    +0.000 A 
ATOM     20  C   UNL     1      -1.611  12.897  23.193  0.00  0.00    +0.000 A 
ATOM     21  N   UNL     1      -2.678  13.656  22.868  0.00  0.00    +0.000 NA
ATOM     22  C   UNL     1      -3.018  13.719  21.561  0.00  0.00    +0.000 A 
ATOM     23  C   UNL     1      -2.328  13.072  20.549  0.00  0.00    +0.000 A 
ENDBRANCH   2  18
TORSDOF 2
ENDMDL
MODEL 9
REMARK VINA RESULT:      -7.1      4.914      9.483
REMARK  Name = 
REMARK  2 active torsions:
REMARK  status: ('A' for Active; 'I' for Inactive)
REMARK    1  A    between atoms: C_2  and  C_17
REMARK    2  A    between atoms: N_6  and  C_7
REMARK                            x       y       z     vdW  Elec       q    Type
REMARK                         _______ _______ _______ _____ _____    ______ ____
ROOT
ATOM      1  O   UNL     1       0.399  11.752  19.109  0.00  0.00    +0.000 OA
ATOM      2  C   UNL     1       0.328  11.177  20.193  0.00  0.00    +0.000 C 
ATOM      3  N   UNL     1       0.798   9.902  20.441  0.00  0.00    +0.000 N 
ATOM      4  C   UNL     1       1.453   9.125  19.539  0.00  0.00    +0.000 C 
ATOM      5  N   UNL     1       1.869   7.939  19.855  0.00  0.00    +0.000 NA
ATOM      6  N   UNL     1       2.531   7.457  18.758  0.00  0.00    +0.000 N 
ATOM      7  C   UNL     1       2.444   8.346  17.604  0.00  0.00    +0.000 C 
ATOM      8  C   UNL     1       1.729   9.567  18.139  0.00  0.00    +0.000 C 
ATOM      9  H   UNL     1       0.643   9.465  21.339  0.00  0.00    +0.000 HD
ENDROOT
BRANCH   6  10
ATOM     10  C   UNL     1       2.779   6.089  18.605  0.00  0.00    +0.000 A 
ATOM     11  C   UNL     1       2.092   5.138  19.375  0.00  0.00    +0.000 A 
ATOM     12  C   UNL     1       2.299   3.766  19.201  0.00  0.00    +0.000 A 
ATOM     13  C   UNL     1       3.224   3.311  18.264  0.00  0.00    +0.000 A 
ATOM     14 CL   UNL     1       3.415   1.605  18.079  0.00  0.00    +0.000 Cl
ATOM     15  C   UNL     1       3.953   4.235  17.516  0.00  0.00    +0.000 A 
ATOM     16 CL   UNL     1       5.145   3.756  16.358  0.00  0.00    +0.000 Cl
ATOM     17  C   UNL     1       3.730   5.608  17.688  0.00  0.00    +0.000 A 
ENDBRANCH   6  10
BRANCH   2  18
ATOM     18  C   UNL     1      -0.347  11.884  21.301  0.00  0.00    +0.000 A 
ATOM     19  C   UNL     1      -0.106  13.254  21.420  0.00  0.00    +0.000 A 
ATOM     20  C   UNL     1      -0.661  13.922  22.491  0.00  0.00    +0.000 A 
ATOM     21  N   UNL     1      -1.417  13.316  23.431  0.00  0.00    +0.000 NA
ATOM     22  C   UNL     1      -1.618  11.986  23.301  0.00  0.00    +0.000 A 
ATOM     23  C   UNL     1      -1.114  11.225  22.259  0.00  0.00    +0.000 A 
ENDBRANCH   2  18
TORSDOF 2
ENDMDL
