MODEL 1
REMARK VINA RESULT:      -8.3      0.000      0.000
REMARK  Name = 
REMARK  5 active torsions:
REMARK  status: ('A' for Active; 'I' for Inactive)
REMARK    1  A    between atoms: C_1  and  C_2
REMARK    2  A    between atoms: C_12  and  C_13
REMARK    3  A    between atoms: N_15  and  N_16
REMARK    4  A    between atoms: C_17  and  C_18
REMARK    5  A    between atoms: C_23  and  O_24
REMARK                            x       y       z     vdW  Elec       q    Type
REMARK                         _______ _______ _______ _____ _____    ______ ____
ROOT
ATOM      1  C   UNL     1       2.129   3.207  21.206  0.00  0.00    +0.000 C 
ATOM      2  C   UNL     1       3.106   3.495  20.136  0.00  0.00    +0.000 A 
ATOM      3  N   UNL     1       3.908   2.489  19.670  0.00  0.00    +0.000 NA
ATOM      4  N   UNL     1       4.585   2.947  18.630  0.00  0.00    +0.000 NA
ATOM      5  N   UNL     1       4.351   4.284  18.516  0.00  0.00    +0.000 N 
ATOM      6  C   UNL     1       5.136   5.117  17.687  0.00  0.00    +0.000 A 
ATOM      7  N   UNL     1       5.294   6.409  17.986  0.00  0.00    +0.000 NA
ATOM      8  O   UNL     1       6.174   6.872  17.007  0.00  0.00    +0.000 OA
ATOM      9  N   UNL     1       6.554   5.848  16.143  0.00  0.00    +0.000 NA
ATOM     10  C   UNL     1       5.906   4.764  16.568  0.00  0.00    +0.000 A 
ATOM     11  N   UNL     1       5.964   3.559  15.974  0.00  0.00    +0.000 N 
ATOM     12  C   UNL     1       3.309   4.629  19.368  0.00  0.00    +0.000 A 
ATOM     13  H   UNL     1       6.600   3.404  15.199  0.00  0.00    +0.000 HD
ATOM     14  H   UNL     1       5.554   2.723  16.383  0.00  0.00    +0.000 HD
ENDROOT
BRANCH  12  15
ATOM     15  C   UNL     1       2.572   5.853  19.238  0.00  0.00    +0.000 C 
ATOM     16  O   UNL     1       1.999   6.135  18.185  0.00  0.00    +0.000 OA
ATOM     17  N   UNL     1       2.505   6.657  20.369  0.00  0.00    +0.000 N 
ATOM     18  H   UNL     1       3.006   6.442  21.219  0.00  0.00    +0.000 HD
BRANCH  17  19
ATOM     19  N   UNL     1       1.815   7.824  20.271  0.00  0.00    +0.000 NA
ATOM     20  C   UNL     1       1.091   8.195  21.276  0.00  0.00    +0.000 C 
BRANCH  20  21
ATOM     21  C   UNL     1       0.331   9.462  21.201  0.00  0.00    +0.000 A 
ATOM     22  C   UNL     1      -0.080   9.947  19.950  0.00  0.00    +0.000 A 
ATOM     23  C   UNL     1      -0.819  11.126  19.862  0.00  0.00    +0.000 A 
ATOM     24  C   UNL     1      -1.150  11.823  21.021  0.00  0.00    +0.000 A 
ATOM     25  C   UNL     1      -0.735  11.353  22.268  0.00  0.00    +0.000 A 
ATOM     26  C   UNL     1       0.006  10.172  22.358  0.00  0.00    +0.000 A 
BRANCH  26  27
ATOM     27  O   UNL     1       0.402   9.708  23.582  0.00  0.00    +0.000 OA
ATOM     28  H   UNL     1       0.538   8.747  23.522  0.00  0.00    +0.000 HD
ENDBRANCH  26  27
ENDBRANCH  20  21
ENDBRANCH  17  19
ENDBRANCH  12  15
TORSDOF 4
ENDMDL
MODEL 2
REMARK VINA RESULT:      -8.3      2.039      2.454
REMARK  Name = 
REMARK  5 active torsions:
REMARK  status: ('A' for Active; 'I' for Inactive)
REMARK    1  A    between atoms: C_1  and  C_2
REMARK    2  A    between atoms: C_12  and  C_13
REMARK    3  A    between atoms: N_15  and  N_16
REMARK    4  A    between atoms: C_17  and  C_18
REMARK    5  A    between atoms: C_23  and  O_24
REMARK                            x       y       z     vdW  Elec       q    Type
REMARK                         _______ _______ _______ _____ _____    ______ ____
ROOT
ATOM      1  C   UNL     1       0.776   2.484  18.925  0.00  0.00    +0.000 C 
ATOM      2  C   UNL     1       2.187   2.827  18.650  0.00  0.00    +0.000 A 
ATOM      3  N   UNL     1       2.920   2.034  17.810  0.00  0.00    +0.000 NA
ATOM      4  N   UNL     1       4.090   2.616  17.607  0.00  0.00    +0.000 NA
ATOM      5  N   UNL     1       4.185   3.696  18.431  0.00  0.00    +0.000 N 
ATOM      6  C   UNL     1       5.410   4.362  18.661  0.00  0.00    +0.000 A 
ATOM      7  N   UNL     1       5.628   4.994  19.816  0.00  0.00    +0.000 NA
ATOM      8  O   UNL     1       6.942   5.450  19.704  0.00  0.00    +0.000 OA
ATOM      9  N   UNL     1       7.508   5.069  18.490  0.00  0.00    +0.000 NA
ATOM     10  C   UNL     1       6.553   4.397  17.847  0.00  0.00    +0.000 A 
ATOM     11  N   UNL     1       6.680   3.890  16.608  0.00  0.00    +0.000 N 
ATOM     12  C   UNL     1       2.939   3.935  18.999  0.00  0.00    +0.000 A 
ATOM     13  H   UNL     1       7.575   3.926  16.133  0.00  0.00    +0.000 HD
ATOM     14  H   UNL     1       5.980   3.285  16.186  0.00  0.00    +0.000 HD
ENDROOT
BRANCH  12  15
ATOM     15  C   UNL     1       2.593   5.184  19.616  0.00  0.00    +0.000 C 
ATOM     16  O   UNL     1       2.203   5.224  20.783  0.00  0.00    +0.000 OA
ATOM     17  N   UNL     1       2.771   6.324  18.843  0.00  0.00    +0.000 N 
ATOM     18  H   UNL     1       3.056   6.286  17.875  0.00  0.00    +0.000 HD
BRANCH  17  19
ATOM     19  N   UNL     1       2.448   7.520  19.403  0.00  0.00    +0.000 NA
ATOM     20  C   UNL     1       1.573   8.262  18.807  0.00  0.00    +0.000 C 
BRANCH  20  21
ATOM     21  C   UNL     1       1.198   9.566  19.394  0.00  0.00    +0.000 A 
ATOM     22  C   UNL     1       0.610   9.606  20.667  0.00  0.00    +0.000 A 
ATOM     23  C   UNL     1       0.273  10.828  21.248  0.00  0.00    +0.000 A 
ATOM     24  C   UNL     1       0.522  12.012  20.559  0.00  0.00    +0.000 A 
ATOM     25  C   UNL     1       1.096  11.980  19.287  0.00  0.00    +0.000 A 
ATOM     26  C   UNL     1       1.433  10.757  18.705  0.00  0.00    +0.000 A 
BRANCH  26  27
ATOM     27  O   UNL     1       2.006  10.729  17.462  0.00  0.00    +0.000 OA
ATOM     28  H   UNL     1       1.299  10.714  16.794  0.00  0.00    +0.000 HD
ENDBRANCH  26  27
ENDBRANCH  20  21
ENDBRANCH  17  19
ENDBRANCH  12  15
TORSDOF 4
ENDMDL
MODEL 3
REMARK VINA RESULT:      -8.3      1.456      1.739
REMARK  Name = 
REMARK  5 active torsions:
REMARK  status: ('A' for Active; 'I' for Inactive)
REMARK    1  A    between atoms: C_1  and  C_2
REMARK    2  A    between atoms: C_12  and  C_13
REMARK    3  A    between atoms: N_15  and  N_16
REMARK    4  A    between atoms: C_17  and  C_18
REMARK    5  A    between atoms: C_23  and  O_24
REMARK                            x       y       z     vdW  Elec       q    Type
REMARK                         _______ _______ _______ _____ _____    ______ ____
ROOT
ATOM      1  C   UNL     1       0.943   2.681  19.166  0.00  0.00    +0.000 C 
ATOM      2  C   UNL     1       2.293   3.019  18.668  0.00  0.00    +0.000 A 
ATOM      3  N   UNL     1       3.034   2.060  18.033  0.00  0.00    +0.000 NA
ATOM      4  N   UNL     1       4.128   2.629  17.555  0.00  0.00    +0.000 NA
ATOM      5  N   UNL     1       4.182   3.912  18.010  0.00  0.00    +0.000 N 
ATOM      6  C   UNL     1       5.354   4.696  17.914  0.00  0.00    +0.000 A 
ATOM      7  N   UNL     1       5.595   5.660  18.805  0.00  0.00    +0.000 NA
ATOM      8  O   UNL     1       6.850   6.148  18.437  0.00  0.00    +0.000 OA
ATOM      9  N   UNL     1       7.360   5.456  17.342  0.00  0.00    +0.000 NA
ATOM     10  C   UNL     1       6.428   4.559  17.020  0.00  0.00    +0.000 A 
ATOM     11  N   UNL     1       6.511   3.711  15.980  0.00  0.00    +0.000 N 
ATOM     12  C   UNL     1       2.963   4.228  18.600  0.00  0.00    +0.000 A 
ATOM     13  H   UNL     1       7.363   3.661  15.432  0.00  0.00    +0.000 HD
ATOM     14  H   UNL     1       5.842   2.961  15.826  0.00  0.00    +0.000 HD
ENDROOT
BRANCH  12  15
ATOM     15  C   UNL     1       2.549   5.579  18.850  0.00  0.00    +0.000 C 
ATOM     16  O   UNL     1       2.215   6.317  17.924  0.00  0.00    +0.000 OA
ATOM     17  N   UNL     1       2.502   5.973  20.181  0.00  0.00    +0.000 N 
ATOM     18  H   UNL     1       2.812   5.378  20.937  0.00  0.00    +0.000 HD
BRANCH  17  19
ATOM     19  N   UNL     1       2.115   7.249  20.446  0.00  0.00    +0.000 NA
ATOM     20  C   UNL     1       0.959   7.440  20.993  0.00  0.00    +0.000 C 
BRANCH  20  21
ATOM     21  C   UNL     1       0.512   8.816  21.297  0.00  0.00    +0.000 A 
ATOM     22  C   UNL     1      -0.084   9.090  22.537  0.00  0.00    +0.000 A 
ATOM     23  C   UNL     1      -0.488  10.387  22.852  0.00  0.00    +0.000 A 
ATOM     24  C   UNL     1      -0.300  11.413  21.929  0.00  0.00    +0.000 A 
ATOM     25  C   UNL     1       0.281  11.146  20.688  0.00  0.00    +0.000 A 
ATOM     26  C   UNL     1       0.687   9.848  20.372  0.00  0.00    +0.000 A 
BRANCH  26  27
ATOM     27  O   UNL     1       1.266   9.591  19.160  0.00  0.00    +0.000 OA
ATOM     28  H   UNL     1       2.005   8.973  19.292  0.00  0.00    +0.000 HD
ENDBRANCH  26  27
ENDBRANCH  20  21
ENDBRANCH  17  19
ENDBRANCH  12  15
TORSDOF 4
ENDMDL
MODEL 4
REMARK VINA RESULT:      -8.3      1.903      1.990
REMARK  Name = 
REMARK  5 active torsions:
REMARK  status: ('A' for Active; 'I' for Inactive)
REMARK    1  A    between atoms: C_1  and  C_2
REMARK    2  A    between atoms: C_12  and  C_13
REMARK    3  A    between atoms: N_15  and  N_16
REMARK    4  A    between atoms: C_17  and  C_18
REMARK    5  A    between atoms: C_23  and  O_24
REMARK                            x       y       z     vdW  Elec       q    Type
REMARK                         _______ _______ _______ _____ _____    ______ ____
ROOT
ATOM      1  C   UNL     1       0.739   2.525  18.819  0.00  0.00    +0.000 C 
ATOM      2  C   UNL     1       2.155   2.862  18.564  0.00  0.00    +0.000 A 
ATOM      3  N   UNL     1       2.887   2.088  17.706  0.00  0.00    +0.000 NA
ATOM      4  N   UNL     1       4.064   2.665  17.528  0.00  0.00    +0.000 NA
ATOM      5  N   UNL     1       4.163   3.718  18.385  0.00  0.00    +0.000 N 
ATOM      6  C   UNL     1       5.393   4.365  18.643  0.00  0.00    +0.000 A 
ATOM      7  N   UNL     1       5.609   4.959  19.818  0.00  0.00    +0.000 NA
ATOM      8  O   UNL     1       6.928   5.407  19.729  0.00  0.00    +0.000 OA
ATOM      9  N   UNL     1       7.499   5.056  18.508  0.00  0.00    +0.000 NA
ATOM     10  C   UNL     1       6.542   4.413  17.838  0.00  0.00    +0.000 A 
ATOM     11  N   UNL     1       6.673   3.943  16.585  0.00  0.00    +0.000 N 
ATOM     12  C   UNL     1       2.916   3.952  18.952  0.00  0.00    +0.000 A 
ATOM     13  H   UNL     1       7.571   3.985  16.117  0.00  0.00    +0.000 HD
ATOM     14  H   UNL     1       5.970   3.357  16.141  0.00  0.00    +0.000 HD
ENDROOT
BRANCH  12  15
ATOM     15  C   UNL     1       2.577   5.185  19.604  0.00  0.00    +0.000 C 
ATOM     16  O   UNL     1       2.278   5.205  20.798  0.00  0.00    +0.000 OA
ATOM     17  N   UNL     1       2.657   6.335  18.829  0.00  0.00    +0.000 N 
ATOM     18  H   UNL     1       2.867   6.312  17.841  0.00  0.00    +0.000 HD
BRANCH  17  19
ATOM     19  N   UNL     1       2.339   7.516  19.422  0.00  0.00    +0.000 NA
ATOM     20  C   UNL     1       1.622   8.363  18.759  0.00  0.00    +0.000 C 
BRANCH  20  21
ATOM     21  C   UNL     1       1.256   9.655  19.379  0.00  0.00    +0.000 A 
ATOM     22  C   UNL     1       1.436  10.843  18.655  0.00  0.00    +0.000 A 
ATOM     23  C   UNL     1       1.073  12.068  19.213  0.00  0.00    +0.000 A 
ATOM     24  C   UNL     1       0.529  12.110  20.495  0.00  0.00    +0.000 A 
ATOM     25  C   UNL     1       0.356  10.933  21.225  0.00  0.00    +0.000 A 
ATOM     26  C   UNL     1       0.720   9.706  20.667  0.00  0.00    +0.000 A 
BRANCH  26  27
ATOM     27  O   UNL     1       0.541   8.552  21.381  0.00  0.00    +0.000 OA
ATOM     28  H   UNL     1      -0.089   7.986  20.905  0.00  0.00    +0.000 HD
ENDBRANCH  26  27
ENDBRANCH  20  21
ENDBRANCH  17  19
ENDBRANCH  12  15
TORSDOF 4
ENDMDL
MODEL 5
REMARK VINA RESULT:      -8.2      2.218      3.733
REMARK  Name = 
REMARK  5 active torsions:
REMARK  status: ('A' for Active; 'I' for Inactive)
REMARK    1  A    between atoms: C_1  and  C_2
REMARK    2  A    between atoms: C_12  and  C_13
REMARK    3  A    between atoms: N_15  and  N_16
REMARK    4  A    between atoms: C_17  and  C_18
REMARK    5  A    between atoms: C_23  and  O_24
REMARK                            x       y       z     vdW  Elec       q    Type
REMARK                         _______ _______ _______ _____ _____    ______ ____
ROOT
ATOM      1  C   UNL     1       7.553   7.195  17.570  0.00  0.00    +0.000 C 
ATOM      2  C   UNL     1       6.763   5.973  17.829  0.00  0.00    +0.000 A 
ATOM      3  N   UNL     1       7.397   4.843  18.266  0.00  0.00    +0.000 NA
ATOM      4  N   UNL     1       6.477   3.940  18.564  0.00  0.00    +0.000 NA
ATOM      5  N   UNL     1       5.262   4.416  18.174  0.00  0.00    +0.000 N 
ATOM      6  C   UNL     1       4.120   3.587  18.094  0.00  0.00    +0.000 A 
ATOM      7  N   UNL     1       3.145   3.865  17.225  0.00  0.00    +0.000 NA
ATOM      8  O   UNL     1       2.248   2.807  17.381  0.00  0.00    +0.000 OA
ATOM      9  N   UNL     1       2.705   1.892  18.327  0.00  0.00    +0.000 NA
ATOM     10  C   UNL     1       3.864   2.382  18.767  0.00  0.00    +0.000 A 
ATOM     11  N   UNL     1       4.615   1.818  19.729  0.00  0.00    +0.000 N 
ATOM     12  C   UNL     1       5.395   5.758  17.835  0.00  0.00    +0.000 A 
ATOM     13  H   UNL     1       4.359   0.913  20.108  0.00  0.00    +0.000 HD
ATOM     14  H   UNL     1       5.547   2.148  19.965  0.00  0.00    +0.000 HD
ENDROOT
BRANCH  12  15
ATOM     15  C   UNL     1       4.275   6.649  17.736  0.00  0.00    +0.000 C 
ATOM     16  O   UNL     1       4.111   7.345  16.734  0.00  0.00    +0.000 OA
ATOM     17  N   UNL     1       3.380   6.636  18.798  0.00  0.00    +0.000 N 
ATOM     18  H   UNL     1       3.536   6.091  19.634  0.00  0.00    +0.000 HD
BRANCH  17  19
ATOM     19  N   UNL     1       2.311   7.473  18.729  0.00  0.00    +0.000 NA
ATOM     20  C   UNL     1       2.147   8.338  19.676  0.00  0.00    +0.000 C 
BRANCH  20  21
ATOM     21  C   UNL     1       0.996   9.266  19.627  0.00  0.00    +0.000 A 
ATOM     22  C   UNL     1       0.166   9.395  20.751  0.00  0.00    +0.000 A 
ATOM     23  C   UNL     1      -0.908  10.284  20.733  0.00  0.00    +0.000 A 
ATOM     24  C   UNL     1      -1.156  11.045  19.593  0.00  0.00    +0.000 A 
ATOM     25  C   UNL     1      -0.342  10.914  18.467  0.00  0.00    +0.000 A 
ATOM     26  C   UNL     1       0.734  10.024  18.485  0.00  0.00    +0.000 A 
BRANCH  26  27
ATOM     27  O   UNL     1       1.537   9.904  17.383  0.00  0.00    +0.000 OA
ATOM     28  H   UNL     1       1.819   8.978  17.302  0.00  0.00    +0.000 HD
ENDBRANCH  26  27
ENDBRANCH  20  21
ENDBRANCH  17  19
ENDBRANCH  12  15
TORSDOF 4
ENDMDL
MODEL 6
REMARK VINA RESULT:      -8.2      1.493      3.489
REMARK  Name = 
REMARK  5 active torsions:
REMARK  status: ('A' for Active; 'I' for Inactive)
REMARK    1  A    between atoms: C_1  and  C_2
REMARK    2  A    between atoms: C_12  and  C_13
REMARK    3  A    between atoms: N_15  and  N_16
REMARK    4  A    between atoms: C_17  and  C_18
REMARK    5  A    between atoms: C_23  and  O_24
REMARK                            x       y       z     vdW  Elec       q    Type
REMARK                         _______ _______ _______ _____ _____    ______ ____
ROOT
ATOM      1  C   UNL     1       6.295   6.499  17.694  0.00  0.00    +0.000 C 
ATOM      2  C   UNL     1       5.412   5.532  18.381  0.00  0.00    +0.000 A 
ATOM      3  N   UNL     1       5.937   4.357  18.846  0.00  0.00    +0.000 NA
ATOM      4  N   UNL     1       5.001   3.732  19.541  0.00  0.00    +0.000 NA
ATOM      5  N   UNL     1       3.830   4.411  19.399  0.00  0.00    +0.000 N 
ATOM      6  C   UNL     1       2.587   3.857  19.781  0.00  0.00    +0.000 A 
ATOM      7  N   UNL     1       1.464   4.228  19.160  0.00  0.00    +0.000 NA
ATOM      8  O   UNL     1       0.481   3.429  19.746  0.00  0.00    +0.000 OA
ATOM      9  N   UNL     1       1.027   2.570  20.697  0.00  0.00    +0.000 NA
ATOM     10  C   UNL     1       2.332   2.842  20.716  0.00  0.00    +0.000 A 
ATOM     11  N   UNL     1       3.221   2.257  21.537  0.00  0.00    +0.000 N 
ATOM     12  C   UNL     1       4.092   5.631  18.786  0.00  0.00    +0.000 A 
ATOM     13  H   UNL     1       2.932   1.492  22.137  0.00  0.00    +0.000 HD
ATOM     14  H   UNL     1       4.224   2.398  21.453  0.00  0.00    +0.000 HD
ENDROOT
BRANCH  12  15
ATOM     15  C   UNL     1       3.169   6.730  18.813  0.00  0.00    +0.000 C 
ATOM     16  O   UNL     1       2.881   7.337  17.782  0.00  0.00    +0.000 OA
ATOM     17  N   UNL     1       2.596   7.023  20.044  0.00  0.00    +0.000 N 
ATOM     18  H   UNL     1       2.861   6.548  20.895  0.00  0.00    +0.000 HD
BRANCH  17  19
ATOM     19  N   UNL     1       1.720   8.061  20.097  0.00  0.00    +0.000 NA
ATOM     20  C   UNL     1       1.345   8.489  21.259  0.00  0.00    +0.000 C 
BRANCH  20  21
ATOM     21  C   UNL     1       0.396   9.620  21.350  0.00  0.00    +0.000 A 
ATOM     22  C   UNL     1      -0.114  10.189  20.173  0.00  0.00    +0.000 A 
ATOM     23  C   UNL     1      -1.030  11.239  20.239  0.00  0.00    +0.000 A 
ATOM     24  C   UNL     1      -1.438  11.722  21.479  0.00  0.00    +0.000 A 
ATOM     25  C   UNL     1      -0.927  11.168  22.654  0.00  0.00    +0.000 A 
ATOM     26  C   UNL     1      -0.010  10.117  22.589  0.00  0.00    +0.000 A 
BRANCH  26  27
ATOM     27  O   UNL     1       0.481   9.569  23.742  0.00  0.00    +0.000 OA
ATOM     28  H   UNL     1       1.061  10.219  24.174  0.00  0.00    +0.000 HD
ENDBRANCH  26  27
ENDBRANCH  20  21
ENDBRANCH  17  19
ENDBRANCH  12  15
TORSDOF 4
ENDMDL
MODEL 7
REMARK VINA RESULT:      -8.2      2.673      7.796
REMARK  Name = 
REMARK  5 active torsions:
REMARK  status: ('A' for Active; 'I' for Inactive)
REMARK    1  A    between atoms: C_1  and  C_2
REMARK    2  A    between atoms: C_12  and  C_13
REMARK    3  A    between atoms: N_15  and  N_16
REMARK    4  A    between atoms: C_17  and  C_18
REMARK    5  A    between atoms: C_23  and  O_24
REMARK                            x       y       z     vdW  Elec       q    Type
REMARK                         _______ _______ _______ _____ _____    ______ ____
ROOT
ATOM      1  C   UNL     1       3.744   2.132  20.137  0.00  0.00    +0.000 C 
ATOM      2  C   UNL     1       3.186   3.498  20.225  0.00  0.00    +0.000 A 
ATOM      3  N   UNL     1       2.412   3.840  21.300  0.00  0.00    +0.000 NA
ATOM      4  N   UNL     1       2.154   5.135  21.231  0.00  0.00    +0.000 NA
ATOM      5  N   UNL     1       2.617   5.605  20.039  0.00  0.00    +0.000 N 
ATOM      6  C   UNL     1       2.253   6.875  19.539  0.00  0.00    +0.000 A 
ATOM      7  N   UNL     1       2.217   7.096  18.223  0.00  0.00    +0.000 NA
ATOM      8  O   UNL     1       1.751   8.408  18.118  0.00  0.00    +0.000 OA
ATOM      9  N   UNL     1       1.490   8.954  19.373  0.00  0.00    +0.000 NA
ATOM     10  C   UNL     1       1.806   8.001  20.249  0.00  0.00    +0.000 A 
ATOM     11  N   UNL     1       1.740   8.140  21.585  0.00  0.00    +0.000 N 
ATOM     12  C   UNL     1       3.399   4.621  19.445  0.00  0.00    +0.000 A 
ATOM     13  H   UNL     1       1.347   8.983  21.989  0.00  0.00    +0.000 HD
ATOM     14  H   UNL     1       1.875   7.364  22.227  0.00  0.00    +0.000 HD
ENDROOT
BRANCH  12  15
ATOM     15  C   UNL     1       4.323   4.900  18.383  0.00  0.00    +0.000 C 
ATOM     16  O   UNL     1       5.473   5.263  18.627  0.00  0.00    +0.000 OA
ATOM     17  N   UNL     1       3.860   4.689  17.090  0.00  0.00    +0.000 N 
ATOM     18  H   UNL     1       2.905   4.426  16.891  0.00  0.00    +0.000 HD
BRANCH  17  19
ATOM     19  N   UNL     1       4.715   4.948  16.066  0.00  0.00    +0.000 NA
ATOM     20  C   UNL     1       5.148   3.954  15.361  0.00  0.00    +0.000 C 
BRANCH  20  21
ATOM     21  C   UNL     1       6.076   4.204  14.236  0.00  0.00    +0.000 A 
ATOM     22  C   UNL     1       5.873   3.544  13.015  0.00  0.00    +0.000 A 
ATOM     23  C   UNL     1       6.722   3.787  11.936  0.00  0.00    +0.000 A 
ATOM     24  C   UNL     1       7.774   4.688  12.073  0.00  0.00    +0.000 A 
ATOM     25  C   UNL     1       7.989   5.341  13.289  0.00  0.00    +0.000 A 
ATOM     26  C   UNL     1       7.139   5.098  14.370  0.00  0.00    +0.000 A 
BRANCH  26  27
ATOM     27  O   UNL     1       7.345   5.747  15.557  0.00  0.00    +0.000 OA
ATOM     28  H   UNL     1       6.749   6.513  15.601  0.00  0.00    +0.000 HD
ENDBRANCH  26  27
ENDBRANCH  20  21
ENDBRANCH  17  19
ENDBRANCH  12  15
TORSDOF 4
ENDMDL
MODEL 8
REMARK VINA RESULT:      -8.1      3.468      8.129
REMARK  Name = 
REMARK  5 active torsions:
REMARK  status: ('A' for Active; 'I' for Inactive)
REMARK    1  A    between atoms: C_1  and  C_2
REMARK    2  A    between atoms: C_12  and  C_13
REMARK    3  A    between atoms: N_15  and  N_16
REMARK    4  A    between atoms: C_17  and  C_18
REMARK    5  A    between atoms: C_23  and  O_24
REMARK                            x       y       z     vdW  Elec       q    Type
REMARK                         _______ _______ _______ _____ _____    ______ ____
ROOT
ATOM      1  C   UNL     1       2.337   7.766  18.227  0.00  0.00    +0.000 C 
ATOM      2  C   UNL     1       2.480   6.576  19.092  0.00  0.00    +0.000 A 
ATOM      3  N   UNL     1       1.827   6.537  20.293  0.00  0.00    +0.000 NA
ATOM      4  N   UNL     1       1.986   5.331  20.812  0.00  0.00    +0.000 NA
ATOM      5  N   UNL     1       2.869   4.640  20.038  0.00  0.00    +0.000 N 
ATOM      6  C   UNL     1       3.465   3.434  20.470  0.00  0.00    +0.000 A 
ATOM      7  N   UNL     1       4.672   3.080  20.023  0.00  0.00    +0.000 NA
ATOM      8  O   UNL     1       4.951   1.900  20.715  0.00  0.00    +0.000 OA
ATOM      9  N   UNL     1       3.918   1.569  21.588  0.00  0.00    +0.000 NA
ATOM     10  C   UNL     1       2.998   2.522  21.430  0.00  0.00    +0.000 A 
ATOM     11  N   UNL     1       1.813   2.550  22.064  0.00  0.00    +0.000 N 
ATOM     12  C   UNL     1       3.088   5.353  18.865  0.00  0.00    +0.000 A 
ATOM     13  H   UNL     1       1.604   1.866  22.783  0.00  0.00    +0.000 HD
ATOM     14  H   UNL     1       1.180   3.345  22.013  0.00  0.00    +0.000 HD
ENDROOT
BRANCH  12  15
ATOM     15  C   UNL     1       3.661   4.761  17.691  0.00  0.00    +0.000 C 
ATOM     16  O   UNL     1       2.991   4.024  16.967  0.00  0.00    +0.000 OA
ATOM     17  N   UNL     1       4.975   5.106  17.403  0.00  0.00    +0.000 N 
ATOM     18  H   UNL     1       5.534   5.680  18.018  0.00  0.00    +0.000 HD
BRANCH  17  19
ATOM     19  N   UNL     1       5.542   4.555  16.297  0.00  0.00    +0.000 NA
ATOM     20  C   UNL     1       5.230   5.042  15.140  0.00  0.00    +0.000 C 
BRANCH  20  21
ATOM     21  C   UNL     1       5.833   4.467  13.918  0.00  0.00    +0.000 A 
ATOM     22  C   UNL     1       5.073   3.605  13.114  0.00  0.00    +0.000 A 
ATOM     23  C   UNL     1       5.616   3.074  11.944  0.00  0.00    +0.000 A 
ATOM     24  C   UNL     1       6.919   3.402  11.576  0.00  0.00    +0.000 A 
ATOM     25  C   UNL     1       7.685   4.250  12.377  0.00  0.00    +0.000 A 
ATOM     26  C   UNL     1       7.142   4.783  13.549  0.00  0.00    +0.000 A 
BRANCH  26  27
ATOM     27  O   UNL     1       7.891   5.622  14.327  0.00  0.00    +0.000 OA
ATOM     28  H   UNL     1       8.757   5.748  13.905  0.00  0.00    +0.000 HD
ENDBRANCH  26  27
ENDBRANCH  20  21
ENDBRANCH  17  19
ENDBRANCH  12  15
TORSDOF 4
ENDMDL
MODEL 9
REMARK VINA RESULT:      -8.1      1.706      3.735
REMARK  Name = 
REMARK  5 active torsions:
REMARK  status: ('A' for Active; 'I' for Inactive)
REMARK    1  A    between atoms: C_1  and  C_2
REMARK    2  A    between atoms: C_12  and  C_13
REMARK    3  A    between atoms: N_15  and  N_16
REMARK    4  A    between atoms: C_17  and  C_18
REMARK    5  A    between atoms: C_23  and  O_24
REMARK                            x       y       z     vdW  Elec       q    Type
REMARK                         _______ _______ _______ _____ _____    ______ ____
ROOT
ATOM      1  C   UNL     1       5.123   6.371  15.995  0.00  0.00    +0.000 C 
ATOM      2  C   UNL     1       4.583   5.455  17.022  0.00  0.00    +0.000 A 
ATOM      3  N   UNL     1       5.191   4.248  17.230  0.00  0.00    +0.000 NA
ATOM      4  N   UNL     1       4.628   3.677  18.282  0.00  0.00    +0.000 NA
ATOM      5  N   UNL     1       3.556   4.427  18.660  0.00  0.00    +0.000 N 
ATOM      6  C   UNL     1       2.583   3.947  19.565  0.00  0.00    +0.000 A 
ATOM      7  N   UNL     1       1.325   4.389  19.500  0.00  0.00    +0.000 NA
ATOM      8  O   UNL     1       0.660   3.648  20.478  0.00  0.00    +0.000 OA
ATOM      9  N   UNL     1       1.521   2.751  21.106  0.00  0.00    +0.000 NA
ATOM     10  C   UNL     1       2.712   2.943  20.538  0.00  0.00    +0.000 A 
ATOM     11  N   UNL     1       3.838   2.300  20.892  0.00  0.00    +0.000 N 
ATOM     12  C   UNL     1       3.589   5.633  17.968  0.00  0.00    +0.000 A 
ATOM     13  H   UNL     1       3.803   1.550  21.574  0.00  0.00    +0.000 HD
ATOM     14  H   UNL     1       4.707   2.381  20.368  0.00  0.00    +0.000 HD
ENDROOT
BRANCH  12  15
ATOM     15  C   UNL     1       2.839   6.785  18.379  0.00  0.00    +0.000 C 
ATOM     16  O   UNL     1       2.287   7.506  17.548  0.00  0.00    +0.000 OA
ATOM     17  N   UNL     1       2.736   6.998  19.747  0.00  0.00    +0.000 N 
ATOM     18  H   UNL     1       3.220   6.427  20.425  0.00  0.00    +0.000 HD
BRANCH  17  19
ATOM     19  N   UNL     1       2.033   8.085  20.163  0.00  0.00    +0.000 NA
ATOM     20  C   UNL     1       1.048   7.903  20.981  0.00  0.00    +0.000 C 
BRANCH  20  21
ATOM     21  C   UNL     1       0.267   9.066  21.455  0.00  0.00    +0.000 A 
ATOM     22  C   UNL     1      -0.063   9.168  22.815  0.00  0.00    +0.000 A 
ATOM     23  C   UNL     1      -0.777  10.270  23.285  0.00  0.00    +0.000 A 
ATOM     24  C   UNL     1      -1.163  11.272  22.398  0.00  0.00    +0.000 A 
ATOM     25  C   UNL     1      -0.848  11.172  21.041  0.00  0.00    +0.000 A 
ATOM     26  C   UNL     1      -0.134  10.069  20.570  0.00  0.00    +0.000 A 
BRANCH  26  27
ATOM     27  O   UNL     1       0.183   9.979  19.242  0.00  0.00    +0.000 OA
ATOM     28  H   UNL     1       1.149  10.016  19.149  0.00  0.00    +0.000 HD
ENDBRANCH  26  27
ENDBRANCH  20  21
ENDBRANCH  17  19
ENDBRANCH  12  15
TORSDOF 4
ENDMDL
