MODEL 1
REMARK VINA RESULT:      -6.6      0.000      0.000
REMARK  Name = 
REMARK  6 active torsions:
REMARK  status: ('A' for Active; 'I' for Inactive)
REMARK    1  A    between atoms: C_1  and  C_2
REMARK    2  A    between atoms: C_5  and  C_6
REMARK    3  A    between atoms: C_6  and  C_8
REMARK    4  A    between atoms: C_8  and  C_9
REMARK    5  A    between atoms: C_9  and  N_10
REMARK    6  A    between atoms: N_10  and  C_11
REMARK                            x       y       z     vdW  Elec       q    Type
REMARK                         _______ _______ _______ _____ _____    ______ ____
ROOT
ATOM      1  C   UNL     1       6.870   5.431  19.367  0.00  0.00    +0.000 C 
ENDROOT
BRANCH   1   2
ATOM      2  N   UNL     1       5.562   5.963  18.971  0.00  0.00    +0.000 N 
ATOM      3  H   UNL     1       5.606   6.515  18.117  0.00  0.00    +0.000 HD
BRANCH   2   4
ATOM      4  C   UNL     1       4.475   5.076  18.933  0.00  0.00    +0.000 A 
ATOM      5  C   UNL     1       4.526   3.774  19.450  0.00  0.00    +0.000 A 
ATOM      6  C   UNL     1       3.397   2.948  19.455  0.00  0.00    +0.000 A 
ATOM      7  C   UNL     1       2.189   3.428  18.963  0.00  0.00    +0.000 A 
ATOM      8 BR   UNL     1       0.663   2.315  18.973  0.00  0.00    +0.000 Br
ATOM      9  C   UNL     1       2.098   4.729  18.482  0.00  0.00    +0.000 A 
ATOM     10  C   UNL     1       3.232   5.549  18.485  0.00  0.00    +0.000 A 
ENDBRANCH   2   4
ENDBRANCH   1   2
BRANCH   1  11
ATOM     11  C   UNL     1       7.756   5.272  18.140  0.00  0.00    +0.000 C 
BRANCH  11  12
ATOM     12  C   UNL     1       7.216   6.078  16.972  0.00  0.00    +0.000 C 
ATOM     13  O   UNL     1       7.086   7.300  17.035  0.00  0.00    +0.000 OA
BRANCH  12  18
ATOM     14  C   UNL     1       7.603   4.870  12.317  0.00  0.00    +0.000 C 
ATOM     15  C   UNL     1       7.026   4.745  13.669  0.00  0.00    +0.000 A 
ATOM     16  C   UNL     1       6.054   3.939  14.220  0.00  0.00    +0.000 A 
ATOM     17  C   UNL     1       5.958   4.309  15.584  0.00  0.00    +0.000 A 
ATOM     18  C   UNL     1       6.877   5.321  15.786  0.00  0.00    +0.000 A 
ATOM     19  O   UNL     1       7.527   5.587  14.614  0.00  0.00    +0.000 OA
ENDBRANCH  12  18
ENDBRANCH  11  12
ENDBRANCH   1  11
TORSDOF 5
ENDMDL
MODEL 2
REMARK VINA RESULT:      -6.5      1.578      2.267
REMARK  Name = 
REMARK  6 active torsions:
REMARK  status: ('A' for Active; 'I' for Inactive)
REMARK    1  A    between atoms: C_1  and  C_2
REMARK    2  A    between atoms: C_5  and  C_6
REMARK    3  A    between atoms: C_6  and  C_8
REMARK    4  A    between atoms: C_8  and  C_9
REMARK    5  A    between atoms: C_9  and  N_10
REMARK    6  A    between atoms: N_10  and  C_11
REMARK                            x       y       z     vdW  Elec       q    Type
REMARK                         _______ _______ _______ _____ _____    ______ ____
ROOT
ATOM      1  C   UNL     1       5.793   6.660  16.833  0.00  0.00    +0.000 C 
ENDROOT
BRANCH   1   2
ATOM      2  N   UNL     1       5.968   6.040  18.151  0.00  0.00    +0.000 N 
ATOM      3  H   UNL     1       6.337   6.689  18.843  0.00  0.00    +0.000 HD
BRANCH   2   4
ATOM      4  C   UNL     1       4.894   5.308  18.680  0.00  0.00    +0.000 A 
ATOM      5  C   UNL     1       4.989   3.958  19.049  0.00  0.00    +0.000 A 
ATOM      6  C   UNL     1       3.913   3.288  19.640  0.00  0.00    +0.000 A 
ATOM      7  C   UNL     1       2.730   3.971  19.894  0.00  0.00    +0.000 A 
ATOM      8 BR   UNL     1       1.278   3.066  20.695  0.00  0.00    +0.000 Br
ATOM      9  C   UNL     1       2.620   5.320  19.578  0.00  0.00    +0.000 A 
ATOM     10  C   UNL     1       3.704   5.984  18.991  0.00  0.00    +0.000 A 
ENDBRANCH   2   4
ENDBRANCH   1   2
BRANCH   1  11
ATOM     11  C   UNL     1       5.405   5.603  15.810  0.00  0.00    +0.000 C 
BRANCH  11  12
ATOM     12  C   UNL     1       6.632   4.878  15.287  0.00  0.00    +0.000 C 
ATOM     13  O   UNL     1       7.620   4.685  15.996  0.00  0.00    +0.000 OA
BRANCH  12  18
ATOM     14  C   UNL     1       4.431   2.971  11.441  0.00  0.00    +0.000 C 
ATOM     15  C   UNL     1       5.588   3.557  12.143  0.00  0.00    +0.000 A 
ATOM     16  C   UNL     1       6.882   3.850  11.769  0.00  0.00    +0.000 A 
ATOM     17  C   UNL     1       7.508   4.408  12.909  0.00  0.00    +0.000 A 
ATOM     18  C   UNL     1       6.560   4.424  13.915  0.00  0.00    +0.000 A 
ATOM     19  O   UNL     1       5.388   3.902  13.444  0.00  0.00    +0.000 OA
ENDBRANCH  12  18
ENDBRANCH  11  12
ENDBRANCH   1  11
TORSDOF 5
ENDMDL
MODEL 3
REMARK VINA RESULT:      -6.5      1.067      1.202
REMARK  Name = 
REMARK  6 active torsions:
REMARK  status: ('A' for Active; 'I' for Inactive)
REMARK    1  A    between atoms: C_1  and  C_2
REMARK    2  A    between atoms: C_5  and  C_6
REMARK    3  A    between atoms: C_6  and  C_8
REMARK    4  A    between atoms: C_8  and  C_9
REMARK    5  A    between atoms: C_9  and  N_10
REMARK    6  A    between atoms: N_10  and  C_11
REMARK                            x       y       z     vdW  Elec       q    Type
REMARK                         _______ _______ _______ _____ _____    ______ ____
ROOT
ATOM      1  C   UNL     1       5.751   7.011  17.359  0.00  0.00    +0.000 C 
ENDROOT
BRANCH   1   2
ATOM      2  N   UNL     1       5.020   6.742  18.602  0.00  0.00    +0.000 N 
ATOM      3  H   UNL     1       4.585   7.577  18.988  0.00  0.00    +0.000 HD
BRANCH   2   4
ATOM      4  C   UNL     1       4.124   5.663  18.617  0.00  0.00    +0.000 A 
ATOM      5  C   UNL     1       4.314   4.515  19.400  0.00  0.00    +0.000 A 
ATOM      6  C   UNL     1       3.357   3.495  19.439  0.00  0.00    +0.000 A 
ATOM      7  C   UNL     1       2.181   3.623  18.711  0.00  0.00    +0.000 A 
ATOM      8 BR   UNL     1       0.888   2.247  18.766  0.00  0.00    +0.000 Br
ATOM      9  C   UNL     1       1.946   4.768  17.959  0.00  0.00    +0.000 A 
ATOM     10  C   UNL     1       2.907   5.786  17.929  0.00  0.00    +0.000 A 
ENDBRANCH   2   4
ENDBRANCH   1   2
BRANCH   1  11
ATOM     11  C   UNL     1       7.207   6.601  17.515  0.00  0.00    +0.000 C 
BRANCH  11  12
ATOM     12  C   UNL     1       7.393   5.127  17.201  0.00  0.00    +0.000 C 
ATOM     13  O   UNL     1       7.845   4.341  18.034  0.00  0.00    +0.000 OA
BRANCH  12  18
ATOM     14  C   UNL     1       7.613   5.151  12.382  0.00  0.00    +0.000 C 
ATOM     15  C   UNL     1       7.068   4.696  13.676  0.00  0.00    +0.000 A 
ATOM     16  C   UNL     1       6.085   3.801  14.035  0.00  0.00    +0.000 A 
ATOM     17  C   UNL     1       6.039   3.809  15.450  0.00  0.00    +0.000 A 
ATOM     18  C   UNL     1       6.997   4.710  15.874  0.00  0.00    +0.000 A 
ATOM     19  O   UNL     1       7.623   5.253  14.787  0.00  0.00    +0.000 OA
ENDBRANCH  12  18
ENDBRANCH  11  12
ENDBRANCH   1  11
TORSDOF 5
ENDMDL
MODEL 4
REMARK VINA RESULT:      -6.4      2.808      3.455
REMARK  Name = 
REMARK  6 active torsions:
REMARK  status: ('A' for Active; 'I' for Inactive)
REMARK    1  A    between atoms: C_1  and  C_2
REMARK    2  A    between atoms: C_5  and  C_6
REMARK    3  A    between atoms: C_6  and  C_8
REMARK    4  A    between atoms: C_8  and  C_9
REMARK    5  A    between atoms: C_9  and  N_10
REMARK    6  A    between atoms: N_10  and  C_11
REMARK                            x       y       z     vdW  Elec       q    Type
REMARK                         _______ _______ _______ _____ _____    ______ ____
ROOT
ATOM      1  C   UNL     1       4.963   5.689  18.426  0.00  0.00    +0.000 C 
ENDROOT
BRANCH   1   2
ATOM      2  N   UNL     1       3.871   6.296  17.657  0.00  0.00    +0.000 N 
ATOM      3  H   UNL     1       3.318   5.606  17.152  0.00  0.00    +0.000 HD
BRANCH   2   4
ATOM      4  C   UNL     1       3.038   7.216  18.312  0.00  0.00    +0.000 A 
ATOM      5  C   UNL     1       2.528   8.367  17.696  0.00  0.00    +0.000 A 
ATOM      6  C   UNL     1       1.642   9.219  18.365  0.00  0.00    +0.000 A 
ATOM      7  C   UNL     1       1.234   8.913  19.657  0.00  0.00    +0.000 A 
ATOM      8 BR   UNL     1       0.035  10.061  20.560  0.00  0.00    +0.000 Br
ATOM      9  C   UNL     1       1.689   7.756  20.278  0.00  0.00    +0.000 A 
ATOM     10  C   UNL     1       2.572   6.907  19.600  0.00  0.00    +0.000 A 
ENDBRANCH   2   4
ENDBRANCH   1   2
BRANCH   1  11
ATOM     11  C   UNL     1       6.303   6.153  17.875  0.00  0.00    +0.000 C 
BRANCH  11  12
ATOM     12  C   UNL     1       7.096   4.982  17.321  0.00  0.00    +0.000 C 
ATOM     13  O   UNL     1       7.873   4.337  18.025  0.00  0.00    +0.000 OA
BRANCH  12  18
ATOM     14  C   UNL     1       7.880   5.425  12.582  0.00  0.00    +0.000 C 
ATOM     15  C   UNL     1       7.202   4.849  13.759  0.00  0.00    +0.000 A 
ATOM     16  C   UNL     1       6.213   3.904  13.922  0.00  0.00    +0.000 A 
ATOM     17  C   UNL     1       6.001   3.790  15.317  0.00  0.00    +0.000 A 
ATOM     18  C   UNL     1       6.873   4.672  15.925  0.00  0.00    +0.000 A 
ATOM     19  O   UNL     1       7.604   5.320  14.970  0.00  0.00    +0.000 OA
ENDBRANCH  12  18
ENDBRANCH  11  12
ENDBRANCH   1  11
TORSDOF 5
ENDMDL
MODEL 5
REMARK VINA RESULT:      -6.3      4.992      6.542
REMARK  Name = 
REMARK  6 active torsions:
REMARK  status: ('A' for Active; 'I' for Inactive)
REMARK    1  A    between atoms: C_1  and  C_2
REMARK    2  A    between atoms: C_5  and  C_6
REMARK    3  A    between atoms: C_6  and  C_8
REMARK    4  A    between atoms: C_8  and  C_9
REMARK    5  A    between atoms: C_9  and  N_10
REMARK    6  A    between atoms: N_10  and  C_11
REMARK                            x       y       z     vdW  Elec       q    Type
REMARK                         _______ _______ _______ _____ _____    ______ ____
ROOT
ATOM      1  C   UNL     1       8.016   7.426  18.165  0.00  0.00    +0.000 C 
ENDROOT
BRANCH   1   2
ATOM      2  N   UNL     1       7.838   8.730  17.519  0.00  0.00    +0.000 N 
ATOM      3  H   UNL     1       6.862   8.941  17.325  0.00  0.00    +0.000 HD
BRANCH   2   4
ATOM      4  C   UNL     1       8.481   9.840  18.090  0.00  0.00    +0.000 A 
ATOM      5  C   UNL     1       8.394  11.136  17.563  0.00  0.00    +0.000 A 
ATOM      6  C   UNL     1       8.992  12.225  18.206  0.00  0.00    +0.000 A 
ATOM      7  C   UNL     1       9.665  12.033  19.406  0.00  0.00    +0.000 A 
ATOM      8 BR   UNL     1      10.470  13.503  20.278  0.00  0.00    +0.000 Br
ATOM      9  C   UNL     1       9.731  10.766  19.975  0.00  0.00    +0.000 A 
ATOM     10  C   UNL     1       9.127   9.683  19.327  0.00  0.00    +0.000 A 
ENDBRANCH   2   4
ENDBRANCH   1   2
BRANCH   1  11
ATOM     11  C   UNL     1       6.833   6.524  17.845  0.00  0.00    +0.000 C 
BRANCH  11  12
ATOM     12  C   UNL     1       7.302   5.152  17.394  0.00  0.00    +0.000 C 
ATOM     13  O   UNL     1       7.923   4.402  18.147  0.00  0.00    +0.000 OA
BRANCH  12  18
ATOM     14  C   UNL     1       7.807   5.268  12.597  0.00  0.00    +0.000 C 
ATOM     15  C   UNL     1       7.165   4.815  13.846  0.00  0.00    +0.000 A 
ATOM     16  C   UNL     1       6.118   3.964  14.125  0.00  0.00    +0.000 A 
ATOM     17  C   UNL     1       5.989   3.944  15.535  0.00  0.00    +0.000 A 
ATOM     18  C   UNL     1       6.964   4.785  16.035  0.00  0.00    +0.000 A 
ATOM     19  O   UNL     1       7.680   5.318  15.001  0.00  0.00    +0.000 OA
ENDBRANCH  12  18
ENDBRANCH  11  12
ENDBRANCH   1  11
TORSDOF 5
ENDMDL
MODEL 6
REMARK VINA RESULT:      -6.3      1.785      2.333
REMARK  Name = 
REMARK  6 active torsions:
REMARK  status: ('A' for Active; 'I' for Inactive)
REMARK    1  A    between atoms: C_1  and  C_2
REMARK    2  A    between atoms: C_5  and  C_6
REMARK    3  A    between atoms: C_6  and  C_8
REMARK    4  A    between atoms: C_8  and  C_9
REMARK    5  A    between atoms: C_9  and  N_10
REMARK    6  A    between atoms: N_10  and  C_11
REMARK                            x       y       z     vdW  Elec       q    Type
REMARK                         _______ _______ _______ _____ _____    ______ ____
ROOT
ATOM      1  C   UNL     1       5.020   5.809  17.059  0.00  0.00    +0.000 C 
ENDROOT
BRANCH   1   2
ATOM      2  N   UNL     1       4.473   4.451  16.967  0.00  0.00    +0.000 N 
ATOM      3  H   UNL     1       5.158   3.775  16.636  0.00  0.00    +0.000 HD
BRANCH   2   4
ATOM      4  C   UNL     1       3.773   3.948  18.074  0.00  0.00    +0.000 A 
ATOM      5  C   UNL     1       4.370   3.161  19.069  0.00  0.00    +0.000 A 
ATOM      6  C   UNL     1       3.650   2.741  20.193  0.00  0.00    +0.000 A 
ATOM      7  C   UNL     1       2.325   3.128  20.349  0.00  0.00    +0.000 A 
ATOM      8 BR   UNL     1       1.354   2.564  21.868  0.00  0.00    +0.000 Br
ATOM      9  C   UNL     1       1.719   3.943  19.399  0.00  0.00    +0.000 A 
ATOM     10  C   UNL     1       2.448   4.362  18.280  0.00  0.00    +0.000 A 
ENDBRANCH   2   4
ENDBRANCH   1   2
BRANCH   1  11
ATOM     11  C   UNL     1       5.688   6.188  15.745  0.00  0.00    +0.000 C 
BRANCH  11  12
ATOM     12  C   UNL     1       6.816   5.228  15.412  0.00  0.00    +0.000 C 
ATOM     13  O   UNL     1       7.647   4.889  16.256  0.00  0.00    +0.000 OA
BRANCH  12  18
ATOM     14  C   UNL     1       5.214   2.588  11.706  0.00  0.00    +0.000 C 
ATOM     15  C   UNL     1       6.141   3.542  12.343  0.00  0.00    +0.000 A 
ATOM     16  C   UNL     1       7.251   4.230  11.904  0.00  0.00    +0.000 A 
ATOM     17  C   UNL     1       7.703   4.997  13.004  0.00  0.00    +0.000 A 
ATOM     18  C   UNL     1       6.843   4.733  14.053  0.00  0.00    +0.000 A 
ATOM     19  O   UNL     1       5.890   3.842  13.646  0.00  0.00    +0.000 OA
ENDBRANCH  12  18
ENDBRANCH  11  12
ENDBRANCH   1  11
TORSDOF 5
ENDMDL
MODEL 7
REMARK VINA RESULT:      -6.3      2.311      4.202
REMARK  Name = 
REMARK  6 active torsions:
REMARK  status: ('A' for Active; 'I' for Inactive)
REMARK    1  A    between atoms: C_1  and  C_2
REMARK    2  A    between atoms: C_5  and  C_6
REMARK    3  A    between atoms: C_6  and  C_8
REMARK    4  A    between atoms: C_8  and  C_9
REMARK    5  A    between atoms: C_9  and  N_10
REMARK    6  A    between atoms: N_10  and  C_11
REMARK                            x       y       z     vdW  Elec       q    Type
REMARK                         _______ _______ _______ _____ _____    ______ ____
ROOT
ATOM      1  C   UNL     1       5.930   4.323  16.414  0.00  0.00    +0.000 C 
ENDROOT
BRANCH   1   2
ATOM      2  N   UNL     1       5.010   3.182  16.470  0.00  0.00    +0.000 N 
ATOM      3  H   UNL     1       5.467   2.300  16.247  0.00  0.00    +0.000 HD
BRANCH   2   4
ATOM      4  C   UNL     1       4.199   3.047  17.607  0.00  0.00    +0.000 A 
ATOM      5  C   UNL     1       4.698   3.079  18.917  0.00  0.00    +0.000 A 
ATOM      6  C   UNL     1       3.843   3.013  20.023  0.00  0.00    +0.000 A 
ATOM      7  C   UNL     1       2.469   2.941  19.830  0.00  0.00    +0.000 A 
ATOM      8 BR   UNL     1       1.314   2.855  21.322  0.00  0.00    +0.000 Br
ATOM      9  C   UNL     1       1.943   2.950  18.543  0.00  0.00    +0.000 A 
ATOM     10  C   UNL     1       2.805   3.020  17.442  0.00  0.00    +0.000 A 
ENDBRANCH   2   4
ENDBRANCH   1   2
BRANCH   1  11
ATOM     11  C   UNL     1       5.218   5.534  15.830  0.00  0.00    +0.000 C 
BRANCH  11  12
ATOM     12  C   UNL     1       5.322   6.727  16.764  0.00  0.00    +0.000 C 
ATOM     13  O   UNL     1       6.361   7.379  16.866  0.00  0.00    +0.000 OA
BRANCH  12  18
ATOM     14  C   UNL     1       1.422   9.365  17.815  0.00  0.00    +0.000 C 
ATOM     15  C   UNL     1       2.340   8.229  18.019  0.00  0.00    +0.000 A 
ATOM     16  C   UNL     1       2.374   7.178  18.910  0.00  0.00    +0.000 A 
ATOM     17  C   UNL     1       3.523   6.418  18.583  0.00  0.00    +0.000 A 
ATOM     18  C   UNL     1       4.125   7.049  17.511  0.00  0.00    +0.000 A 
ATOM     19  O   UNL     1       3.402   8.157  17.170  0.00  0.00    +0.000 OA
ENDBRANCH  12  18
ENDBRANCH  11  12
ENDBRANCH   1  11
TORSDOF 5
ENDMDL
MODEL 8
REMARK VINA RESULT:      -6.2      3.694      5.868
REMARK  Name = 
REMARK  6 active torsions:
REMARK  status: ('A' for Active; 'I' for Inactive)
REMARK    1  A    between atoms: C_1  and  C_2
REMARK    2  A    between atoms: C_5  and  C_6
REMARK    3  A    between atoms: C_6  and  C_8
REMARK    4  A    between atoms: C_8  and  C_9
REMARK    5  A    between atoms: C_9  and  N_10
REMARK    6  A    between atoms: N_10  and  C_11
REMARK                            x       y       z     vdW  Elec       q    Type
REMARK                         _______ _______ _______ _____ _____    ______ ____
ROOT
ATOM      1  C   UNL     1       4.185   6.405  17.455  0.00  0.00    +0.000 C 
ENDROOT
BRANCH   1   2
ATOM      2  N   UNL     1       3.400   6.410  18.694  0.00  0.00    +0.000 N 
ATOM      3  H   UNL     1       3.976   6.271  19.522  0.00  0.00    +0.000 HD
BRANCH   2   4
ATOM      4  C   UNL     1       2.490   7.460  18.892  0.00  0.00    +0.000 A 
ATOM      5  C   UNL     1       1.912   7.753  20.135  0.00  0.00    +0.000 A 
ATOM      6  C   UNL     1       1.065   8.854  20.301  0.00  0.00    +0.000 A 
ATOM      7  C   UNL     1       0.807   9.695  19.226  0.00  0.00    +0.000 A 
ATOM      8 BR   UNL     1      -0.334  11.184  19.451  0.00  0.00    +0.000 Br
ATOM      9  C   UNL     1       1.399   9.453  17.992  0.00  0.00    +0.000 A 
ATOM     10  C   UNL     1       2.248   8.351  17.835  0.00  0.00    +0.000 A 
ENDBRANCH   2   4
ENDBRANCH   1   2
BRANCH   1  11
ATOM     11  C   UNL     1       4.470   4.973  17.027  0.00  0.00    +0.000 C 
BRANCH  11  12
ATOM     12  C   UNL     1       4.728   4.087  18.234  0.00  0.00    +0.000 C 
ATOM     13  O   UNL     1       5.828   4.050  18.784  0.00  0.00    +0.000 OA
BRANCH  12  18
ATOM     14  C   UNL     1       1.357   2.769  21.423  0.00  0.00    +0.000 C 
ATOM     15  C   UNL     1       2.053   2.678  20.125  0.00  0.00    +0.000 A 
ATOM     16  C   UNL     1       1.886   1.891  19.007  0.00  0.00    +0.000 A 
ATOM     17  C   UNL     1       2.883   2.295  18.086  0.00  0.00    +0.000 A 
ATOM     18  C   UNL     1       3.601   3.306  18.695  0.00  0.00    +0.000 A 
ATOM     19  O   UNL     1       3.093   3.536  19.943  0.00  0.00    +0.000 OA
ENDBRANCH  12  18
ENDBRANCH  11  12
ENDBRANCH   1  11
TORSDOF 5
ENDMDL
MODEL 9
REMARK VINA RESULT:      -6.2      3.020      3.569
REMARK  Name = 
REMARK  6 active torsions:
REMARK  status: ('A' for Active; 'I' for Inactive)
REMARK    1  A    between atoms: C_1  and  C_2
REMARK    2  A    between atoms: C_5  and  C_6
REMARK    3  A    between atoms: C_6  and  C_8
REMARK    4  A    between atoms: C_8  and  C_9
REMARK    5  A    between atoms: C_9  and  N_10
REMARK    6  A    between atoms: N_10  and  C_11
REMARK                            x       y       z     vdW  Elec       q    Type
REMARK                         _______ _______ _______ _____ _____    ______ ____
ROOT
ATOM      1  C   UNL     1       4.723   6.660  17.104  0.00  0.00    +0.000 C 
ENDROOT
BRANCH   1   2
ATOM      2  N   UNL     1       3.735   6.270  18.115  0.00  0.00    +0.000 N 
ATOM      3  H   UNL     1       4.155   5.791  18.909  0.00  0.00    +0.000 HD
BRANCH   2   4
ATOM      4  C   UNL     1       2.820   7.242  18.550  0.00  0.00    +0.000 A 
ATOM      5  C   UNL     1       2.266   7.256  19.838  0.00  0.00    +0.000 A 
ATOM      6  C   UNL     1       1.414   8.286  20.252  0.00  0.00    +0.000 A 
ATOM      7  C   UNL     1       1.125   9.333  19.386  0.00  0.00    +0.000 A 
ATOM      8 BR   UNL     1      -0.023  10.725  19.945  0.00  0.00    +0.000 Br
ATOM      9  C   UNL     1       1.694   9.368  18.118  0.00  0.00    +0.000 A 
ATOM     10  C   UNL     1       2.549   8.335  17.713  0.00  0.00    +0.000 A 
ENDBRANCH   2   4
ENDBRANCH   1   2
BRANCH   1  11
ATOM     11  C   UNL     1       6.127   6.522  17.673  0.00  0.00    +0.000 C 
BRANCH  11  12
ATOM     12  C   UNL     1       6.718   5.164  17.337  0.00  0.00    +0.000 C 
ATOM     13  O   UNL     1       7.205   4.438  18.205  0.00  0.00    +0.000 OA
BRANCH  12  18
ATOM     14  C   UNL     1       7.993   5.424  12.692  0.00  0.00    +0.000 C 
ATOM     15  C   UNL     1       7.217   4.870  13.818  0.00  0.00    +0.000 A 
ATOM     16  C   UNL     1       6.260   3.886  13.923  0.00  0.00    +0.000 A 
ATOM     17  C   UNL     1       5.902   3.826  15.292  0.00  0.00    +0.000 A 
ATOM     18  C   UNL     1       6.662   4.778  15.944  0.00  0.00    +0.000 A 
ATOM     19  O   UNL     1       7.464   5.417  15.040  0.00  0.00    +0.000 OA
ENDBRANCH  12  18
ENDBRANCH  11  12
ENDBRANCH   1  11
TORSDOF 5
ENDMDL
