MODEL 1
REMARK VINA RESULT:      -8.7      0.000      0.000
REMARK  Name = 
REMARK  3 active torsions:
REMARK  status: ('A' for Active; 'I' for Inactive)
REMARK    1  A    between atoms: C_2  and  C_3
REMARK    2  A    between atoms: C_5  and  C_6
REMARK    3  A    between atoms: N_9  and  C_10
REMARK                            x       y       z     vdW  Elec       q    Type
REMARK                         _______ _______ _______ _____ _____    ______ ____
ROOT
ATOM      1  C   UNL     1       4.389   3.614  17.217  0.00  0.00    +0.000 A 
ATOM      2  N   UNL     1       5.464   4.147  17.930  0.00  0.00    +0.000 NA
ATOM      3  C   UNL     1       6.267   4.619  17.003  0.00  0.00    +0.000 A 
ATOM      4  N   UNL     1       5.762   4.265  15.764  0.00  0.00    +0.000 N 
ATOM      5  N   UNL     1       4.490   3.805  15.888  0.00  0.00    +0.000 NA
ENDROOT
BRANCH   1   7
ATOM      6  O   UNL     1       3.680   1.592  18.148  0.00  0.00    +0.000 OA
ATOM      7  C   UNL     1       3.378   2.754  17.878  0.00  0.00    +0.000 C 
ATOM      8  N   UNL     1       2.075   3.228  18.215  0.00  0.00    +0.000 N 
ATOM      9  C   UNL     1       1.588   4.601  18.073  0.00  0.00    +0.000 C 
ATOM     10  C   UNL     1       1.383   5.360  19.388  0.00  0.00    +0.000 C 
ATOM     11  C   UNL     1       2.579   5.284  20.338  0.00  0.00    +0.000 C 
ATOM     12  C   UNL     1       2.462   4.255  21.468  0.00  0.00    +0.000 C 
ATOM     13  C   UNL     1       2.339   2.774  21.097  0.00  0.00    +0.000 C 
ATOM     14  C   UNL     1       1.045   2.397  20.375  0.00  0.00    +0.000 C 
ATOM     15  C   UNL     1       1.166   2.274  18.853  0.00  0.00    +0.000 C 
ENDBRANCH   1   7
BRANCH   4  16
ATOM     16  C   UNL     1       6.408   4.320  14.501  0.00  0.00    +0.000 A 
ATOM     17  C   UNL     1       7.442   5.237  14.256  0.00  0.00    +0.000 A 
ATOM     18  C   UNL     1       7.944   5.384  12.963  0.00  0.00    +0.000 A 
ATOM     19  C   UNL     1       7.426   4.609  11.926  0.00  0.00    +0.000 A 
ATOM     20  C   UNL     1       6.462   3.634  12.194  0.00  0.00    +0.000 A 
ATOM     21  C   UNL     1       5.972   3.468  13.483  0.00  0.00    +0.000 A 
ENDBRANCH   4  16
BRANCH   3  22
ATOM     22  C   UNL     1       7.509   5.492  17.273  0.00  0.00    +0.000 C 
ATOM     23  C   UNL     1       7.416   6.986  17.519  0.00  0.00    +0.000 C 
ATOM     24  C   UNL     1       7.701   6.068  18.658  0.00  0.00    +0.000 C 
ENDBRANCH   3  22
TORSDOF 3
ENDMDL
MODEL 2
REMARK VINA RESULT:      -8.5      0.173      1.002
REMARK  Name = 
REMARK  3 active torsions:
REMARK  status: ('A' for Active; 'I' for Inactive)
REMARK    1  A    between atoms: C_2  and  C_3
REMARK    2  A    between atoms: C_5  and  C_6
REMARK    3  A    between atoms: N_9  and  C_10
REMARK                            x       y       z     vdW  Elec       q    Type
REMARK                         _______ _______ _______ _____ _____    ______ ____
ROOT
ATOM      1  C   UNL     1       4.321   3.595  17.283  0.00  0.00    +0.000 A 
ATOM      2  N   UNL     1       5.457   4.076  17.936  0.00  0.00    +0.000 NA
ATOM      3  C   UNL     1       6.199   4.575  16.972  0.00  0.00    +0.000 A 
ATOM      4  N   UNL     1       5.596   4.286  15.760  0.00  0.00    +0.000 N 
ATOM      5  N   UNL     1       4.328   3.845  15.959  0.00  0.00    +0.000 NA
ENDROOT
BRANCH   1   7
ATOM      6  O   UNL     1       3.675   1.571  18.254  0.00  0.00    +0.000 OA
ATOM      7  C   UNL     1       3.344   2.724  17.979  0.00  0.00    +0.000 C 
ATOM      8  N   UNL     1       2.041   3.178  18.344  0.00  0.00    +0.000 N 
ATOM      9  C   UNL     1       1.525   4.539  18.199  0.00  0.00    +0.000 C 
ATOM     10  C   UNL     1       1.340   5.310  19.511  0.00  0.00    +0.000 C 
ATOM     11  C   UNL     1       2.561   5.267  20.430  0.00  0.00    +0.000 C 
ATOM     12  C   UNL     1       2.492   4.250  21.575  0.00  0.00    +0.000 C 
ATOM     13  C   UNL     1       2.388   2.762  21.223  0.00  0.00    +0.000 C 
ATOM     14  C   UNL     1       1.083   2.353  20.540  0.00  0.00    +0.000 C 
ATOM     15  C   UNL     1       1.167   2.215  19.016  0.00  0.00    +0.000 C 
ENDBRANCH   1   7
BRANCH   4  16
ATOM     16  C   UNL     1       6.148   4.387  14.457  0.00  0.00    +0.000 A 
ATOM     17  C   UNL     1       5.634   3.631  13.391  0.00  0.00    +0.000 A 
ATOM     18  C   UNL     1       6.298   3.624  12.165  0.00  0.00    +0.000 A 
ATOM     19  C   UNL     1       7.458   4.379  12.000  0.00  0.00    +0.000 A 
ATOM     20  C   UNL     1       7.913   5.201  13.035  0.00  0.00    +0.000 A 
ATOM     21  C   UNL     1       7.245   5.229  14.252  0.00  0.00    +0.000 A 
ENDBRANCH   4  16
BRANCH   3  22
ATOM     22  C   UNL     1       7.476   5.412  17.186  0.00  0.00    +0.000 C 
ATOM     23  C   UNL     1       7.435   6.898  17.491  0.00  0.00    +0.000 C 
ATOM     24  C   UNL     1       7.776   5.933  18.575  0.00  0.00    +0.000 C 
ENDBRANCH   3  22
TORSDOF 3
ENDMDL
MODEL 3
REMARK VINA RESULT:      -8.5      1.739      2.558
REMARK  Name = 
REMARK  3 active torsions:
REMARK  status: ('A' for Active; 'I' for Inactive)
REMARK    1  A    between atoms: C_2  and  C_3
REMARK    2  A    between atoms: C_5  and  C_6
REMARK    3  A    between atoms: N_9  and  C_10
REMARK                            x       y       z     vdW  Elec       q    Type
REMARK                         _______ _______ _______ _____ _____    ______ ____
ROOT
ATOM      1  C   UNL     1       4.341   5.618  18.535  0.00  0.00    +0.000 A 
ATOM      2  N   UNL     1       5.567   6.219  18.823  0.00  0.00    +0.000 NA
ATOM      3  C   UNL     1       6.227   6.174  17.687  0.00  0.00    +0.000 A 
ATOM      4  N   UNL     1       5.480   5.449  16.775  0.00  0.00    +0.000 N 
ATOM      5  N   UNL     1       4.218   5.265  17.240  0.00  0.00    +0.000 NA
ENDROOT
BRANCH   1   7
ATOM      6  O   UNL     1       2.566   6.064  19.986  0.00  0.00    +0.000 OA
ATOM      7  C   UNL     1       3.398   5.238  19.614  0.00  0.00    +0.000 C 
ATOM      8  N   UNL     1       3.419   3.949  20.227  0.00  0.00    +0.000 N 
ATOM      9  C   UNL     1       4.256   2.816  19.834  0.00  0.00    +0.000 C 
ATOM     10  C   UNL     1       3.512   1.654  19.166  0.00  0.00    +0.000 C 
ATOM     11  C   UNL     1       2.585   2.089  18.029  0.00  0.00    +0.000 C 
ATOM     12  C   UNL     1       1.100   2.202  18.394  0.00  0.00    +0.000 C 
ATOM     13  C   UNL     1       0.687   3.221  19.461  0.00  0.00    +0.000 C 
ATOM     14  C   UNL     1       1.196   2.919  20.870  0.00  0.00    +0.000 C 
ATOM     15  C   UNL     1       2.443   3.704  21.290  0.00  0.00    +0.000 C 
ENDBRANCH   1   7
BRANCH   4  16
ATOM     16  C   UNL     1       5.891   4.918  15.525  0.00  0.00    +0.000 A 
ATOM     17  C   UNL     1       7.150   5.227  14.984  0.00  0.00    +0.000 A 
ATOM     18  C   UNL     1       7.461   4.829  13.685  0.00  0.00    +0.000 A 
ATOM     19  C   UNL     1       6.527   4.116  12.935  0.00  0.00    +0.000 A 
ATOM     20  C   UNL     1       5.312   3.732  13.510  0.00  0.00    +0.000 A 
ATOM     21  C   UNL     1       5.004   4.107  14.812  0.00  0.00    +0.000 A 
ENDBRANCH   4  16
BRANCH   3  22
ATOM     22  C   UNL     1       7.565   6.890  17.415  0.00  0.00    +0.000 C 
ATOM     23  C   UNL     1       7.726   8.393  17.543  0.00  0.00    +0.000 C 
ATOM     24  C   UNL     1       8.310   7.498  18.583  0.00  0.00    +0.000 C 
ENDBRANCH   3  22
TORSDOF 3
ENDMDL
MODEL 4
REMARK VINA RESULT:      -8.4      1.755      2.730
REMARK  Name = 
REMARK  3 active torsions:
REMARK  status: ('A' for Active; 'I' for Inactive)
REMARK    1  A    between atoms: C_2  and  C_3
REMARK    2  A    between atoms: C_5  and  C_6
REMARK    3  A    between atoms: N_9  and  C_10
REMARK                            x       y       z     vdW  Elec       q    Type
REMARK                         _______ _______ _______ _____ _____    ______ ____
ROOT
ATOM      1  C   UNL     1       4.366   5.529  18.654  0.00  0.00    +0.000 A 
ATOM      2  N   UNL     1       5.625   6.065  18.929  0.00  0.00    +0.000 NA
ATOM      3  C   UNL     1       6.224   6.102  17.760  0.00  0.00    +0.000 A 
ATOM      4  N   UNL     1       5.408   5.485  16.828  0.00  0.00    +0.000 N 
ATOM      5  N   UNL     1       4.165   5.299  17.342  0.00  0.00    +0.000 NA
ENDROOT
BRANCH   1   7
ATOM      6  O   UNL     1       2.686   5.898  20.235  0.00  0.00    +0.000 OA
ATOM      7  C   UNL     1       3.465   5.082  19.743  0.00  0.00    +0.000 C 
ATOM      8  N   UNL     1       3.468   3.742  20.234  0.00  0.00    +0.000 N 
ATOM      9  C   UNL     1       4.239   2.622  19.694  0.00  0.00    +0.000 C 
ATOM     10  C   UNL     1       3.417   1.554  18.964  0.00  0.00    +0.000 C 
ATOM     11  C   UNL     1       2.450   2.124  17.924  0.00  0.00    +0.000 C 
ATOM     12  C   UNL     1       0.992   2.252  18.379  0.00  0.00    +0.000 C 
ATOM     13  C   UNL     1       0.674   3.181  19.556  0.00  0.00    +0.000 C 
ATOM     14  C   UNL     1       1.242   2.732  20.901  0.00  0.00    +0.000 C 
ATOM     15  C   UNL     1       2.539   3.432  21.322  0.00  0.00    +0.000 C 
ENDBRANCH   1   7
BRANCH   4  16
ATOM     16  C   UNL     1       5.737   5.057  15.515  0.00  0.00    +0.000 A 
ATOM     17  C   UNL     1       4.835   4.298  14.753  0.00  0.00    +0.000 A 
ATOM     18  C   UNL     1       5.246   3.752  13.538  0.00  0.00    +0.000 A 
ATOM     19  C   UNL     1       6.544   3.975  13.080  0.00  0.00    +0.000 A 
ATOM     20  C   UNL     1       7.407   4.807  13.799  0.00  0.00    +0.000 A 
ATOM     21  C   UNL     1       6.997   5.372  15.000  0.00  0.00    +0.000 A 
ENDBRANCH   4  16
BRANCH   3  22
ATOM     22  C   UNL     1       7.572   6.799  17.481  0.00  0.00    +0.000 C 
ATOM     23  C   UNL     1       7.734   8.307  17.529  0.00  0.00    +0.000 C 
ATOM     24  C   UNL     1       8.290   7.470  18.631  0.00  0.00    +0.000 C 
ENDBRANCH   3  22
TORSDOF 3
ENDMDL
MODEL 5
REMARK VINA RESULT:      -8.4      0.881      3.405
REMARK  Name = 
REMARK  3 active torsions:
REMARK  status: ('A' for Active; 'I' for Inactive)
REMARK    1  A    between atoms: C_2  and  C_3
REMARK    2  A    between atoms: C_5  and  C_6
REMARK    3  A    between atoms: N_9  and  C_10
REMARK                            x       y       z     vdW  Elec       q    Type
REMARK                         _______ _______ _______ _____ _____    ______ ____
ROOT
ATOM      1  C   UNL     1       4.334   3.416  17.474  0.00  0.00    +0.000 A 
ATOM      2  N   UNL     1       4.427   3.707  16.112  0.00  0.00    +0.000 NA
ATOM      3  C   UNL     1       5.387   4.601  16.036  0.00  0.00    +0.000 A 
ATOM      4  N   UNL     1       5.772   4.942  17.321  0.00  0.00    +0.000 N 
ATOM      5  N   UNL     1       5.252   4.064  18.216  0.00  0.00    +0.000 NA
ENDROOT
BRANCH   1   7
ATOM      6  O   UNL     1       3.346   1.434  18.217  0.00  0.00    +0.000 OA
ATOM      7  C   UNL     1       3.194   2.639  18.019  0.00  0.00    +0.000 C 
ATOM      8  N   UNL     1       1.937   3.240  18.324  0.00  0.00    +0.000 N 
ATOM      9  C   UNL     1       1.619   4.667  18.259  0.00  0.00    +0.000 C 
ATOM     10  C   UNL     1       1.426   5.355  19.614  0.00  0.00    +0.000 C 
ATOM     11  C   UNL     1       2.549   5.075  20.614  0.00  0.00    +0.000 C 
ATOM     12  C   UNL     1       2.249   3.994  21.659  0.00  0.00    +0.000 C 
ATOM     13  C   UNL     1       1.980   2.566  21.174  0.00  0.00    +0.000 C 
ATOM     14  C   UNL     1       0.695   2.393  20.364  0.00  0.00    +0.000 C 
ATOM     15  C   UNL     1       0.889   2.359  18.844  0.00  0.00    +0.000 C 
ENDBRANCH   1   7
BRANCH   4  16
ATOM     16  C   UNL     1       6.572   6.038  17.738  0.00  0.00    +0.000 A 
ATOM     17  C   UNL     1       6.451   7.297  17.130  0.00  0.00    +0.000 A 
ATOM     18  C   UNL     1       7.360   8.307  17.444  0.00  0.00    +0.000 A 
ATOM     19  C   UNL     1       8.374   8.065  18.369  0.00  0.00    +0.000 A 
ATOM     20  C   UNL     1       8.433   6.839  19.039  0.00  0.00    +0.000 A 
ATOM     21  C   UNL     1       7.518   5.836  18.747  0.00  0.00    +0.000 A 
ENDBRANCH   4  16
BRANCH   3  22
ATOM     22  C   UNL     1       6.021   5.105  14.723  0.00  0.00    +0.000 C 
ATOM     23  C   UNL     1       7.449   4.779  14.331  0.00  0.00    +0.000 C 
ATOM     24  C   UNL     1       6.320   4.100  13.632  0.00  0.00    +0.000 C 
ENDBRANCH   3  22
TORSDOF 3
ENDMDL
MODEL 6
REMARK VINA RESULT:      -8.3      0.830      3.395
REMARK  Name = 
REMARK  3 active torsions:
REMARK  status: ('A' for Active; 'I' for Inactive)
REMARK    1  A    between atoms: C_2  and  C_3
REMARK    2  A    between atoms: C_5  and  C_6
REMARK    3  A    between atoms: N_9  and  C_10
REMARK                            x       y       z     vdW  Elec       q    Type
REMARK                         _______ _______ _______ _____ _____    ______ ____
ROOT
ATOM      1  C   UNL     1       4.381   3.340  17.415  0.00  0.00    +0.000 A 
ATOM      2  N   UNL     1       4.411   3.660  16.057  0.00  0.00    +0.000 NA
ATOM      3  C   UNL     1       5.419   4.496  15.942  0.00  0.00    +0.000 A 
ATOM      4  N   UNL     1       5.899   4.781  17.208  0.00  0.00    +0.000 N 
ATOM      5  N   UNL     1       5.380   3.913  18.114  0.00  0.00    +0.000 NA
ENDROOT
BRANCH   1   7
ATOM      6  O   UNL     1       3.358   1.424  18.274  0.00  0.00    +0.000 OA
ATOM      7  C   UNL     1       3.230   2.619  18.010  0.00  0.00    +0.000 C 
ATOM      8  N   UNL     1       1.989   3.264  18.292  0.00  0.00    +0.000 N 
ATOM      9  C   UNL     1       1.701   4.691  18.150  0.00  0.00    +0.000 C 
ATOM     10  C   UNL     1       1.535   5.458  19.466  0.00  0.00    +0.000 C 
ATOM     11  C   UNL     1       2.660   5.208  20.472  0.00  0.00    +0.000 C 
ATOM     12  C   UNL     1       2.347   4.194  21.577  0.00  0.00    +0.000 C 
ATOM     13  C   UNL     1       2.042   2.747  21.175  0.00  0.00    +0.000 C 
ATOM     14  C   UNL     1       0.748   2.558  20.384  0.00  0.00    +0.000 C 
ATOM     15  C   UNL     1       0.927   2.436  18.868  0.00  0.00    +0.000 C 
ENDBRANCH   1   7
BRANCH   4  16
ATOM     16  C   UNL     1       6.788   5.815  17.600  0.00  0.00    +0.000 A 
ATOM     17  C   UNL     1       7.677   5.639  18.673  0.00  0.00    +0.000 A 
ATOM     18  C   UNL     1       8.418   6.723  19.141  0.00  0.00    +0.000 A 
ATOM     19  C   UNL     1       8.283   7.971  18.534  0.00  0.00    +0.000 A 
ATOM     20  C   UNL     1       7.467   8.118  17.409  0.00  0.00    +0.000 A 
ATOM     21  C   UNL     1       6.741   7.037  16.923  0.00  0.00    +0.000 A 
ENDBRANCH   4  16
BRANCH   3  22
ATOM     22  C   UNL     1       6.003   4.994  14.604  0.00  0.00    +0.000 C 
ATOM     23  C   UNL     1       7.396   4.620  14.135  0.00  0.00    +0.000 C 
ATOM     24  C   UNL     1       6.208   3.995  13.487  0.00  0.00    +0.000 C 
ENDBRANCH   3  22
TORSDOF 3
ENDMDL
MODEL 7
REMARK VINA RESULT:      -8.3      1.013      1.160
REMARK  Name = 
REMARK  3 active torsions:
REMARK  status: ('A' for Active; 'I' for Inactive)
REMARK    1  A    between atoms: C_2  and  C_3
REMARK    2  A    between atoms: C_5  and  C_6
REMARK    3  A    between atoms: N_9  and  C_10
REMARK                            x       y       z     vdW  Elec       q    Type
REMARK                         _______ _______ _______ _____ _____    ______ ____
ROOT
ATOM      1  C   UNL     1       5.121   3.983  17.931  0.00  0.00    +0.000 A 
ATOM      2  N   UNL     1       6.110   4.874  18.349  0.00  0.00    +0.000 NA
ATOM      3  C   UNL     1       6.664   5.292  17.233  0.00  0.00    +0.000 A 
ATOM      4  N   UNL     1       6.121   4.577  16.179  0.00  0.00    +0.000 N 
ATOM      5  N   UNL     1       5.021   3.897  16.590  0.00  0.00    +0.000 NA
ENDROOT
BRANCH   1   7
ATOM      6  O   UNL     1       5.066   2.656  19.853  0.00  0.00    +0.000 OA
ATOM      7  C   UNL     1       4.429   3.093  18.894  0.00  0.00    +0.000 C 
ATOM      8  N   UNL     1       3.056   2.733  18.751  0.00  0.00    +0.000 N 
ATOM      9  C   UNL     1       2.126   3.246  17.746  0.00  0.00    +0.000 C 
ATOM     10  C   UNL     1       1.043   4.190  18.280  0.00  0.00    +0.000 C 
ATOM     11  C   UNL     1       1.585   5.311  19.169  0.00  0.00    +0.000 C 
ATOM     12  C   UNL     1       1.454   5.080  20.678  0.00  0.00    +0.000 C 
ATOM     13  C   UNL     1       2.188   3.887  21.300  0.00  0.00    +0.000 C 
ATOM     14  C   UNL     1       1.673   2.515  20.863  0.00  0.00    +0.000 C 
ATOM     15  C   UNL     1       2.496   1.836  19.764  0.00  0.00    +0.000 C 
ENDBRANCH   1   7
BRANCH   4  16
ATOM     16  C   UNL     1       6.586   4.492  14.842  0.00  0.00    +0.000 A 
ATOM     17  C   UNL     1       7.646   5.295  14.390  0.00  0.00    +0.000 A 
ATOM     18  C   UNL     1       7.972   5.311  13.034  0.00  0.00    +0.000 A 
ATOM     19  C   UNL     1       7.253   4.521  12.138  0.00  0.00    +0.000 A 
ATOM     20  C   UNL     1       6.261   3.656  12.607  0.00  0.00    +0.000 A 
ATOM     21  C   UNL     1       5.945   3.618  13.959  0.00  0.00    +0.000 A 
ENDBRANCH   4  16
BRANCH   3  22
ATOM     22  C   UNL     1       7.682   6.446  17.132  0.00  0.00    +0.000 C 
ATOM     23  C   UNL     1       7.293   7.897  17.349  0.00  0.00    +0.000 C 
ATOM     24  C   UNL     1       8.073   7.179  18.397  0.00  0.00    +0.000 C 
ENDBRANCH   3  22
TORSDOF 3
ENDMDL
MODEL 8
REMARK VINA RESULT:      -8.1      1.026      1.538
REMARK  Name = 
REMARK  3 active torsions:
REMARK  status: ('A' for Active; 'I' for Inactive)
REMARK    1  A    between atoms: C_2  and  C_3
REMARK    2  A    between atoms: C_5  and  C_6
REMARK    3  A    between atoms: N_9  and  C_10
REMARK                            x       y       z     vdW  Elec       q    Type
REMARK                         _______ _______ _______ _____ _____    ______ ____
ROOT
ATOM      1  C   UNL     1       5.054   3.996  17.938  0.00  0.00    +0.000 A 
ATOM      2  N   UNL     1       6.079   4.866  18.311  0.00  0.00    +0.000 NA
ATOM      3  C   UNL     1       6.562   5.309  17.172  0.00  0.00    +0.000 A 
ATOM      4  N   UNL     1       5.940   4.629  16.139  0.00  0.00    +0.000 N 
ATOM      5  N   UNL     1       4.862   3.948  16.605  0.00  0.00    +0.000 NA
ENDROOT
BRANCH   1   7
ATOM      6  O   UNL     1       5.088   2.695  19.877  0.00  0.00    +0.000 OA
ATOM      7  C   UNL     1       4.419   3.087  18.922  0.00  0.00    +0.000 C 
ATOM      8  N   UNL     1       3.063   2.659  18.801  0.00  0.00    +0.000 N 
ATOM      9  C   UNL     1       2.096   3.112  17.802  0.00  0.00    +0.000 C 
ATOM     10  C   UNL     1       0.975   4.010  18.338  0.00  0.00    +0.000 C 
ATOM     11  C   UNL     1       1.473   5.168  19.205  0.00  0.00    +0.000 C 
ATOM     12  C   UNL     1       1.373   4.951  20.718  0.00  0.00    +0.000 C 
ATOM     13  C   UNL     1       2.172   3.804  21.346  0.00  0.00    +0.000 C 
ATOM     14  C   UNL     1       1.719   2.404  20.934  0.00  0.00    +0.000 C 
ATOM     15  C   UNL     1       2.560   1.750  19.833  0.00  0.00    +0.000 C 
ENDBRANCH   1   7
BRANCH   4  16
ATOM     16  C   UNL     1       6.312   4.576  14.771  0.00  0.00    +0.000 A 
ATOM     17  C   UNL     1       5.635   3.742  13.866  0.00  0.00    +0.000 A 
ATOM     18  C   UNL     1       6.125   3.585  12.571  0.00  0.00    +0.000 A 
ATOM     19  C   UNL     1       7.276   4.266  12.176  0.00  0.00    +0.000 A 
ATOM     20  C   UNL     1       7.893   5.164  13.051  0.00  0.00    +0.000 A 
ATOM     21  C   UNL     1       7.398   5.342  14.337  0.00  0.00    +0.000 A 
ENDBRANCH   4  16
BRANCH   3  22
ATOM     22  C   UNL     1       7.583   6.455  17.033  0.00  0.00    +0.000 C 
ATOM     23  C   UNL     1       7.225   7.904  17.305  0.00  0.00    +0.000 C 
ATOM     24  C   UNL     1       8.061   7.155  18.286  0.00  0.00    +0.000 C 
ENDBRANCH   3  22
TORSDOF 3
ENDMDL
MODEL 9
REMARK VINA RESULT:      -7.9      1.278      3.623
REMARK  Name = 
REMARK  3 active torsions:
REMARK  status: ('A' for Active; 'I' for Inactive)
REMARK    1  A    between atoms: C_2  and  C_3
REMARK    2  A    between atoms: C_5  and  C_6
REMARK    3  A    between atoms: N_9  and  C_10
REMARK                            x       y       z     vdW  Elec       q    Type
REMARK                         _______ _______ _______ _____ _____    ______ ____
ROOT
ATOM      1  C   UNL     1       5.185   3.625  18.300  0.00  0.00    +0.000 A 
ATOM      2  N   UNL     1       4.949   3.773  16.932  0.00  0.00    +0.000 NA
ATOM      3  C   UNL     1       5.756   4.744  16.566  0.00  0.00    +0.000 A 
ATOM      4  N   UNL     1       6.363   5.260  17.698  0.00  0.00    +0.000 N 
ATOM      5  N   UNL     1       6.156   4.439  18.759  0.00  0.00    +0.000 NA
ENDROOT
BRANCH   1   7
ATOM      6  O   UNL     1       4.774   2.219  20.119  0.00  0.00    +0.000 OA
ATOM      7  C   UNL     1       4.290   2.804  19.151  0.00  0.00    +0.000 C 
ATOM      8  N   UNL     1       2.894   2.675  18.888  0.00  0.00    +0.000 N 
ATOM      9  C   UNL     1       2.136   3.385  17.857  0.00  0.00    +0.000 C 
ATOM     10  C   UNL     1       1.173   4.457  18.377  0.00  0.00    +0.000 C 
ATOM     11  C   UNL     1       1.809   5.427  19.375  0.00  0.00    +0.000 C 
ATOM     12  C   UNL     1       1.524   5.136  20.852  0.00  0.00    +0.000 C 
ATOM     13  C   UNL     1       2.014   3.809  21.442  0.00  0.00    +0.000 C 
ATOM     14  C   UNL     1       1.330   2.563  20.878  0.00  0.00    +0.000 C 
ATOM     15  C   UNL     1       2.123   1.823  19.796  0.00  0.00    +0.000 C 
ENDBRANCH   1   7
BRANCH   4  16
ATOM     16  C   UNL     1       7.095   6.468  17.831  0.00  0.00    +0.000 A 
ATOM     17  C   UNL     1       8.133   6.588  18.770  0.00  0.00    +0.000 A 
ATOM     18  C   UNL     1       8.722   7.831  18.994  0.00  0.00    +0.000 A 
ATOM     19  C   UNL     1       8.288   8.945  18.276  0.00  0.00    +0.000 A 
ATOM     20  C   UNL     1       7.320   8.801  17.278  0.00  0.00    +0.000 A 
ATOM     21  C   UNL     1       6.743   7.561  17.034  0.00  0.00    +0.000 A 
ENDBRANCH   4  16
BRANCH   3  22
ATOM     22  C   UNL     1       6.030   5.160  15.107  0.00  0.00    +0.000 C 
ATOM     23  C   UNL     1       7.309   4.790  14.380  0.00  0.00    +0.000 C 
ATOM     24  C   UNL     1       6.038   4.090  14.038  0.00  0.00    +0.000 C 
ENDBRANCH   3  22
TORSDOF 3
ENDMDL
