MODEL 1
REMARK VINA RESULT:      -8.0      0.000      0.000
REMARK  Name = 
REMARK  9 active torsions:
REMARK  status: ('A' for Active; 'I' for Inactive)
REMARK    1  A    between atoms: C_1  and  C_2
REMARK    2  A    between atoms: C_2  and  C_3
REMARK    3  A    between atoms: C_2  and  C_4
REMARK    4  A    between atoms: C_2  and  C_5
REMARK    5  A    between atoms: C_8  and  C_9
REMARK    6  A    between atoms: C_9  and  N_10
REMARK    7  A    between atoms: C_11  and  S_12
REMARK    8  A    between atoms: N_13  and  C_14
REMARK    9  A    between atoms: C_14  and  C_15
REMARK                            x       y       z     vdW  Elec       q    Type
REMARK                         _______ _______ _______ _____ _____    ______ ____
ROOT
ATOM      1  N   UNL     1       6.814   7.006  16.723  0.00  0.00    +0.000 NA
ATOM      2  C   UNL     1       7.511   7.102  17.797  0.00  0.00    +0.000 C 
ATOM      3  N   UNL     1       8.010   8.284  18.258  0.00  0.00    +0.000 N 
ATOM      4  H   UNL     1       8.587   8.205  19.084  0.00  0.00    +0.000 HD
ENDROOT
BRANCH   2   5
ATOM      5  S   UNL     1       7.946   5.790  18.878  0.00  0.00    +0.000 S 
ATOM      6  H   UNL     1       9.128   5.469  18.348  0.00  0.00    +0.000 HD
ENDBRANCH   2   5
BRANCH   1   7
ATOM      7  C   UNL     1       6.178   5.769  16.279  0.00  0.00    +0.000 C 
BRANCH   7  11
ATOM      8  C   UNL     1       3.050   4.349  18.988  0.00  0.00    +0.000 A 
ATOM      9  C   UNL     1       3.187   5.706  18.664  0.00  0.00    +0.000 A 
ATOM     10  C   UNL     1       4.194   6.156  17.802  0.00  0.00    +0.000 A 
ATOM     11  C   UNL     1       5.116   5.268  17.238  0.00  0.00    +0.000 A 
ATOM     12  C   UNL     1       4.989   3.912  17.546  0.00  0.00    +0.000 A 
ATOM     13  C   UNL     1       3.971   3.463  18.411  0.00  0.00    +0.000 A 
BRANCH   8  15
ATOM     14  C   UNL     1       2.445   2.993  21.097  0.00  0.00    +0.000 C 
ATOM     15  C   UNL     1       1.929   3.837  19.910  0.00  0.00    +0.000 C 
ATOM     16  C   UNL     1       0.951   2.948  19.114  0.00  0.00    +0.000 C 
ATOM     17  C   UNL     1       1.149   5.028  20.505  0.00  0.00    +0.000 C 
ENDBRANCH   8  15
ENDBRANCH   7  11
ENDBRANCH   1   7
BRANCH   3  18
ATOM     18  C   UNL     1       8.232   9.464  17.451  0.00  0.00    +0.000 C 
BRANCH  18  19
ATOM     19  C   UNL     1       8.785  10.536  18.364  0.00  0.00    +0.000 A 
ATOM     20  C   UNL     1       9.331  10.196  19.627  0.00  0.00    +0.000 A 
ATOM     21  C   UNL     1      10.072  11.124  20.364  0.00  0.00    +0.000 A 
ATOM     22  C   UNL     1      10.279  12.361  19.796  0.00  0.00    +0.000 A 
ATOM     23  C   UNL     1       9.708  12.716  18.595  0.00  0.00    +0.000 A 
ATOM     24  C   UNL     1       8.932  11.842  17.869  0.00  0.00    +0.000 A 
ATOM     25  O   UNL     1      10.095  13.957  18.189  0.00  0.00    +0.000 OA
ATOM     26  C   UNL     1      11.190  14.173  19.099  0.00  0.00    +0.000 C 
ATOM     27  O   UNL     1      11.108  13.333  20.270  0.00  0.00    +0.000 OA
ENDBRANCH  18  19
ENDBRANCH   3  18
TORSDOF 6
ENDMDL
MODEL 2
REMARK VINA RESULT:      -7.9      0.833      1.700
REMARK  Name = 
REMARK  9 active torsions:
REMARK  status: ('A' for Active; 'I' for Inactive)
REMARK    1  A    between atoms: C_1  and  C_2
REMARK    2  A    between atoms: C_2  and  C_3
REMARK    3  A    between atoms: C_2  and  C_4
REMARK    4  A    between atoms: C_2  and  C_5
REMARK    5  A    between atoms: C_8  and  C_9
REMARK    6  A    between atoms: C_9  and  N_10
REMARK    7  A    between atoms: C_11  and  S_12
REMARK    8  A    between atoms: N_13  and  C_14
REMARK    9  A    between atoms: C_14  and  C_15
REMARK                            x       y       z     vdW  Elec       q    Type
REMARK                         _______ _______ _______ _____ _____    ______ ____
ROOT
ATOM      1  N   UNL     1       6.883   6.997  16.804  0.00  0.00    +0.000 NA
ATOM      2  C   UNL     1       7.577   7.054  17.883  0.00  0.00    +0.000 C 
ATOM      3  N   UNL     1       8.086   8.217  18.380  0.00  0.00    +0.000 N 
ATOM      4  H   UNL     1       8.659   8.108  19.205  0.00  0.00    +0.000 HD
ENDROOT
BRANCH   2   5
ATOM      5  S   UNL     1       7.994   5.707  18.926  0.00  0.00    +0.000 S 
ATOM      6  H   UNL     1       6.917   5.714  19.714  0.00  0.00    +0.000 HD
ENDBRANCH   2   5
BRANCH   1   7
ATOM      7  C   UNL     1       6.236   5.780  16.322  0.00  0.00    +0.000 C 
BRANCH   7  11
ATOM      8  C   UNL     1       3.065   4.373  18.988  0.00  0.00    +0.000 A 
ATOM      9  C   UNL     1       3.959   3.488  18.370  0.00  0.00    +0.000 A 
ATOM     10  C   UNL     1       4.967   3.943  17.512  0.00  0.00    +0.000 A 
ATOM     11  C   UNL     1       5.116   5.303  17.225  0.00  0.00    +0.000 A 
ATOM     12  C   UNL     1       4.237   6.199  17.837  0.00  0.00    +0.000 A 
ATOM     13  C   UNL     1       3.226   5.737  18.704  0.00  0.00    +0.000 A 
BRANCH   8  15
ATOM     14  C   UNL     1       2.509   3.008  21.104  0.00  0.00    +0.000 C 
ATOM     15  C   UNL     1       1.971   3.891  19.956  0.00  0.00    +0.000 C 
ATOM     16  C   UNL     1       0.920   3.054  19.196  0.00  0.00    +0.000 C 
ATOM     17  C   UNL     1       1.268   5.102  20.605  0.00  0.00    +0.000 C 
ENDBRANCH   8  15
ENDBRANCH   7  11
ENDBRANCH   1   7
BRANCH   3  18
ATOM     18  C   UNL     1       8.324   9.417  17.609  0.00  0.00    +0.000 C 
BRANCH  18  19
ATOM     19  C   UNL     1       9.198  10.325  18.447  0.00  0.00    +0.000 A 
ATOM     20  C   UNL     1      10.139  11.187  17.832  0.00  0.00    +0.000 A 
ATOM     21  C   UNL     1      10.762  12.206  18.559  0.00  0.00    +0.000 A 
ATOM     22  C   UNL     1      10.397  12.356  19.877  0.00  0.00    +0.000 A 
ATOM     23  C   UNL     1       9.524  11.489  20.495  0.00  0.00    +0.000 A 
ATOM     24  C   UNL     1       8.931  10.447  19.820  0.00  0.00    +0.000 A 
ATOM     25  O   UNL     1       9.253  11.860  21.776  0.00  0.00    +0.000 OA
ATOM     26  C   UNL     1       9.794  13.194  21.757  0.00  0.00    +0.000 C 
ATOM     27  O   UNL     1      10.756  13.383  20.698  0.00  0.00    +0.000 OA
ENDBRANCH  18  19
ENDBRANCH   3  18
TORSDOF 6
ENDMDL
MODEL 3
REMARK VINA RESULT:      -7.8      0.903      1.717
REMARK  Name = 
REMARK  9 active torsions:
REMARK  status: ('A' for Active; 'I' for Inactive)
REMARK    1  A    between atoms: C_1  and  C_2
REMARK    2  A    between atoms: C_2  and  C_3
REMARK    3  A    between atoms: C_2  and  C_4
REMARK    4  A    between atoms: C_2  and  C_5
REMARK    5  A    between atoms: C_8  and  C_9
REMARK    6  A    between atoms: C_9  and  N_10
REMARK    7  A    between atoms: C_11  and  S_12
REMARK    8  A    between atoms: N_13  and  C_14
REMARK    9  A    between atoms: C_14  and  C_15
REMARK                            x       y       z     vdW  Elec       q    Type
REMARK                         _______ _______ _______ _____ _____    ______ ____
ROOT
ATOM      1  N   UNL     1       6.672   6.987  16.619  0.00  0.00    +0.000 NA
ATOM      2  C   UNL     1       7.437   6.948  17.649  0.00  0.00    +0.000 C 
ATOM      3  N   UNL     1       8.007   8.060  18.196  0.00  0.00    +0.000 N 
ATOM      4  H   UNL     1       8.630   7.876  18.970  0.00  0.00    +0.000 HD
ENDROOT
BRANCH   2   5
ATOM      5  S   UNL     1       7.889   5.517  18.557  0.00  0.00    +0.000 S 
ATOM      6  H   UNL     1       7.290   5.808  19.714  0.00  0.00    +0.000 HD
ENDBRANCH   2   5
BRANCH   1   7
ATOM      7  C   UNL     1       5.965   5.824  16.091  0.00  0.00    +0.000 C 
BRANCH   7  11
ATOM      8  C   UNL     1       2.970   4.214  18.844  0.00  0.00    +0.000 A 
ATOM      9  C   UNL     1       3.162   5.593  18.684  0.00  0.00    +0.000 A 
ATOM     10  C   UNL     1       4.126   6.103  17.807  0.00  0.00    +0.000 A 
ATOM     11  C   UNL     1       4.950   5.253  17.061  0.00  0.00    +0.000 A 
ATOM     12  C   UNL     1       4.768   3.877  17.205  0.00  0.00    +0.000 A 
ATOM     13  C   UNL     1       3.792   3.368  18.086  0.00  0.00    +0.000 A 
BRANCH   8  15
ATOM     14  C   UNL     1       1.026   4.723  20.460  0.00  0.00    +0.000 C 
ATOM     15  C   UNL     1       1.893   3.639  19.781  0.00  0.00    +0.000 C 
ATOM     16  C   UNL     1       2.554   2.817  20.907  0.00  0.00    +0.000 C 
ATOM     17  C   UNL     1       0.937   2.723  18.989  0.00  0.00    +0.000 C 
ENDBRANCH   8  15
ENDBRANCH   7  11
ENDBRANCH   1   7
BRANCH   3  18
ATOM     18  C   UNL     1       8.222   9.310  17.503  0.00  0.00    +0.000 C 
BRANCH  18  19
ATOM     19  C   UNL     1       9.090  10.174  18.392  0.00  0.00    +0.000 A 
ATOM     20  C   UNL     1      10.016  11.086  17.829  0.00  0.00    +0.000 A 
ATOM     21  C   UNL     1      10.631  12.065  18.615  0.00  0.00    +0.000 A 
ATOM     22  C   UNL     1      10.272  12.126  19.943  0.00  0.00    +0.000 A 
ATOM     23  C   UNL     1       9.413  11.210  20.509  0.00  0.00    +0.000 A 
ATOM     24  C   UNL     1       8.829  10.206  19.772  0.00  0.00    +0.000 A 
ATOM     25  O   UNL     1       9.145  11.495  21.813  0.00  0.00    +0.000 OA
ATOM     26  C   UNL     1       9.670  12.835  21.876  0.00  0.00    +0.000 C 
ATOM     27  O   UNL     1      10.623  13.103  20.825  0.00  0.00    +0.000 OA
ENDBRANCH  18  19
ENDBRANCH   3  18
TORSDOF 6
ENDMDL
MODEL 4
REMARK VINA RESULT:      -7.7      4.461      7.248
REMARK  Name = 
REMARK  9 active torsions:
REMARK  status: ('A' for Active; 'I' for Inactive)
REMARK    1  A    between atoms: C_1  and  C_2
REMARK    2  A    between atoms: C_2  and  C_3
REMARK    3  A    between atoms: C_2  and  C_4
REMARK    4  A    between atoms: C_2  and  C_5
REMARK    5  A    between atoms: C_8  and  C_9
REMARK    6  A    between atoms: C_9  and  N_10
REMARK    7  A    between atoms: C_11  and  S_12
REMARK    8  A    between atoms: N_13  and  C_14
REMARK    9  A    between atoms: C_14  and  C_15
REMARK                            x       y       z     vdW  Elec       q    Type
REMARK                         _______ _______ _______ _____ _____    ______ ____
ROOT
ATOM      1  N   UNL     1       2.395   4.942  19.719  0.00  0.00    +0.000 NA
ATOM      2  C   UNL     1       2.790   3.728  19.856  0.00  0.00    +0.000 C 
ATOM      3  N   UNL     1       3.458   3.048  18.881  0.00  0.00    +0.000 N 
ATOM      4  H   UNL     1       3.660   2.083  19.102  0.00  0.00    +0.000 HD
ENDROOT
BRANCH   2   5
ATOM      5  S   UNL     1       2.585   2.719  21.276  0.00  0.00    +0.000 S 
ATOM      6  H   UNL     1       3.088   1.580  20.795  0.00  0.00    +0.000 HD
ENDBRANCH   2   5
BRANCH   1   7
ATOM      7  C   UNL     1       1.782   5.720  20.793  0.00  0.00    +0.000 C 
BRANCH   7  11
ATOM      8  C   UNL     1       1.126   9.897  19.671  0.00  0.00    +0.000 A 
ATOM      9  C   UNL     1       1.808   9.004  18.832  0.00  0.00    +0.000 A 
ATOM     10  C   UNL     1       2.021   7.671  19.199  0.00  0.00    +0.000 A 
ATOM     11  C   UNL     1       1.573   7.176  20.428  0.00  0.00    +0.000 A 
ATOM     12  C   UNL     1       0.887   8.051  21.273  0.00  0.00    +0.000 A 
ATOM     13  C   UNL     1       0.671   9.392  20.897  0.00  0.00    +0.000 A 
BRANCH   8  15
ATOM     14  C   UNL     1       0.806  12.329  20.468  0.00  0.00    +0.000 C 
ATOM     15  C   UNL     1       0.858  11.358  19.268  0.00  0.00    +0.000 C 
ATOM     16  C   UNL     1      -0.496  11.467  18.537  0.00  0.00    +0.000 C 
ATOM     17  C   UNL     1       1.974  11.859  18.327  0.00  0.00    +0.000 C 
ENDBRANCH   8  15
ENDBRANCH   7  11
ENDBRANCH   1   7
BRANCH   3  18
ATOM     18  C   UNL     1       3.428   3.373  17.472  0.00  0.00    +0.000 C 
BRANCH  18  19
ATOM     19  C   UNL     1       4.725   4.081  17.146  0.00  0.00    +0.000 A 
ATOM     20  C   UNL     1       5.024   4.458  15.813  0.00  0.00    +0.000 A 
ATOM     21  C   UNL     1       6.080   5.332  15.533  0.00  0.00    +0.000 A 
ATOM     22  C   UNL     1       6.786   5.834  16.603  0.00  0.00    +0.000 A 
ATOM     23  C   UNL     1       6.534   5.431  17.896  0.00  0.00    +0.000 A 
ATOM     24  C   UNL     1       5.535   4.536  18.199  0.00  0.00    +0.000 A 
ATOM     25  O   UNL     1       7.301   6.099  18.800  0.00  0.00    +0.000 OA
ATOM     26  C   UNL     1       7.799   7.154  17.956  0.00  0.00    +0.000 C 
ATOM     27  O   UNL     1       7.726   6.819  16.554  0.00  0.00    +0.000 OA
ENDBRANCH  18  19
ENDBRANCH   3  18
TORSDOF 6
ENDMDL
MODEL 5
REMARK VINA RESULT:      -7.7      4.412      7.194
REMARK  Name = 
REMARK  9 active torsions:
REMARK  status: ('A' for Active; 'I' for Inactive)
REMARK    1  A    between atoms: C_1  and  C_2
REMARK    2  A    between atoms: C_2  and  C_3
REMARK    3  A    between atoms: C_2  and  C_4
REMARK    4  A    between atoms: C_2  and  C_5
REMARK    5  A    between atoms: C_8  and  C_9
REMARK    6  A    between atoms: C_9  and  N_10
REMARK    7  A    between atoms: C_11  and  S_12
REMARK    8  A    between atoms: N_13  and  C_14
REMARK    9  A    between atoms: C_14  and  C_15
REMARK                            x       y       z     vdW  Elec       q    Type
REMARK                         _______ _______ _______ _____ _____    ______ ____
ROOT
ATOM      1  N   UNL     1       2.488   4.861  19.698  0.00  0.00    +0.000 NA
ATOM      2  C   UNL     1       2.917   3.664  19.870  0.00  0.00    +0.000 C 
ATOM      3  N   UNL     1       3.601   2.973  18.913  0.00  0.00    +0.000 N 
ATOM      4  H   UNL     1       3.830   2.022  19.163  0.00  0.00    +0.000 HD
ENDROOT
BRANCH   2   5
ATOM      5  S   UNL     1       2.743   2.693  21.320  0.00  0.00    +0.000 S 
ATOM      6  H   UNL     1       3.682   1.778  21.071  0.00  0.00    +0.000 HD
ENDBRANCH   2   5
BRANCH   1   7
ATOM      7  C   UNL     1       1.856   5.654  20.750  0.00  0.00    +0.000 C 
BRANCH   7  11
ATOM      8  C   UNL     1       1.163   9.827  19.635  0.00  0.00    +0.000 A 
ATOM      9  C   UNL     1       0.675   9.291  20.835  0.00  0.00    +0.000 A 
ATOM     10  C   UNL     1       0.893   7.953  21.183  0.00  0.00    +0.000 A 
ATOM     11  C   UNL     1       1.599   7.090  20.339  0.00  0.00    +0.000 A 
ATOM     12  C   UNL     1       2.098   7.610  19.143  0.00  0.00    +0.000 A 
ATOM     13  C   UNL     1       1.879   8.959  18.799  0.00  0.00    +0.000 A 
BRANCH   8  15
ATOM     14  C   UNL     1      -0.425  11.590  18.624  0.00  0.00    +0.000 C 
ATOM     15  C   UNL     1       0.956  11.304  19.254  0.00  0.00    +0.000 C 
ATOM     16  C   UNL     1       2.021  11.741  18.227  0.00  0.00    +0.000 C 
ATOM     17  C   UNL     1       1.077  12.195  20.508  0.00  0.00    +0.000 C 
ENDBRANCH   8  15
ENDBRANCH   7  11
ENDBRANCH   1   7
BRANCH   3  18
ATOM     18  C   UNL     1       3.559   3.254  17.495  0.00  0.00    +0.000 C 
BRANCH  18  19
ATOM     19  C   UNL     1       4.820   4.016  17.150  0.00  0.00    +0.000 A 
ATOM     20  C   UNL     1       5.057   4.454  15.824  0.00  0.00    +0.000 A 
ATOM     21  C   UNL     1       6.074   5.371  15.540  0.00  0.00    +0.000 A 
ATOM     22  C   UNL     1       6.804   5.854  16.603  0.00  0.00    +0.000 A 
ATOM     23  C   UNL     1       6.614   5.393  17.886  0.00  0.00    +0.000 A 
ATOM     24  C   UNL     1       5.655   4.455  18.191  0.00  0.00    +0.000 A 
ATOM     25  O   UNL     1       7.394   6.050  18.788  0.00  0.00    +0.000 OA
ATOM     26  C   UNL     1       7.827   7.153  17.968  0.00  0.00    +0.000 C 
ATOM     27  O   UNL     1       7.711   6.869  16.558  0.00  0.00    +0.000 OA
ENDBRANCH  18  19
ENDBRANCH   3  18
TORSDOF 6
ENDMDL
MODEL 6
REMARK VINA RESULT:      -7.7      3.673      5.794
REMARK  Name = 
REMARK  9 active torsions:
REMARK  status: ('A' for Active; 'I' for Inactive)
REMARK    1  A    between atoms: C_1  and  C_2
REMARK    2  A    between atoms: C_2  and  C_3
REMARK    3  A    between atoms: C_2  and  C_4
REMARK    4  A    between atoms: C_2  and  C_5
REMARK    5  A    between atoms: C_8  and  C_9
REMARK    6  A    between atoms: C_9  and  N_10
REMARK    7  A    between atoms: C_11  and  S_12
REMARK    8  A    between atoms: N_13  and  C_14
REMARK    9  A    between atoms: C_14  and  C_15
REMARK                            x       y       z     vdW  Elec       q    Type
REMARK                         _______ _______ _______ _____ _____    ______ ____
ROOT
ATOM      1  N   UNL     1       3.925   4.615  18.445  0.00  0.00    +0.000 NA
ATOM      2  C   UNL     1       4.087   3.445  17.941  0.00  0.00    +0.000 C 
ATOM      3  N   UNL     1       5.070   3.150  17.044  0.00  0.00    +0.000 N 
ATOM      4  H   UNL     1       5.046   2.205  16.688  0.00  0.00    +0.000 HD
ENDROOT
BRANCH   2   5
ATOM      5  S   UNL     1       3.129   2.018  18.292  0.00  0.00    +0.000 S 
ATOM      6  H   UNL     1       3.290   1.371  17.136  0.00  0.00    +0.000 HD
ENDBRANCH   2   5
BRANCH   1   7
ATOM      7  C   UNL     1       2.952   4.919  19.491  0.00  0.00    +0.000 C 
BRANCH   7  11
ATOM      8  C   UNL     1       1.420   9.010  19.262  0.00  0.00    +0.000 A 
ATOM      9  C   UNL     1       2.044   8.392  18.169  0.00  0.00    +0.000 A 
ATOM     10  C   UNL     1       2.539   7.085  18.250  0.00  0.00    +0.000 A 
ATOM     11  C   UNL     1       2.442   6.345  19.433  0.00  0.00    +0.000 A 
ATOM     12  C   UNL     1       1.818   6.944  20.529  0.00  0.00    +0.000 A 
ATOM     13  C   UNL     1       1.317   8.259  20.441  0.00  0.00    +0.000 A 
BRANCH   8  15
ATOM     14  C   UNL     1      -0.519  10.509  18.455  0.00  0.00    +0.000 C 
ATOM     15  C   UNL     1       0.845  10.435  19.178  0.00  0.00    +0.000 C 
ATOM     16  C   UNL     1       1.816  11.355  18.410  0.00  0.00    +0.000 C 
ATOM     17  C   UNL     1       0.637  11.005  20.598  0.00  0.00    +0.000 C 
ENDBRANCH   8  15
ENDBRANCH   7  11
ENDBRANCH   1   7
BRANCH   3  18
ATOM     18  C   UNL     1       5.751   4.116  16.209  0.00  0.00    +0.000 C 
BRANCH  18  19
ATOM     19  C   UNL     1       6.378   5.141  17.128  0.00  0.00    +0.000 A 
ATOM     20  C   UNL     1       7.315   4.746  18.115  0.00  0.00    +0.000 A 
ATOM     21  C   UNL     1       8.091   5.694  18.789  0.00  0.00    +0.000 A 
ATOM     22  C   UNL     1       7.932   7.013  18.429  0.00  0.00    +0.000 A 
ATOM     23  C   UNL     1       6.987   7.409  17.509  0.00  0.00    +0.000 A 
ATOM     24  C   UNL     1       6.174   6.505  16.864  0.00  0.00    +0.000 A 
ATOM     25  O   UNL     1       7.046   8.745  17.255  0.00  0.00    +0.000 OA
ATOM     26  C   UNL     1       8.315   9.047  17.866  0.00  0.00    +0.000 C 
ATOM     27  O   UNL     1       8.707   8.056  18.840  0.00  0.00    +0.000 OA
ENDBRANCH  18  19
ENDBRANCH   3  18
TORSDOF 6
ENDMDL
MODEL 7
REMARK VINA RESULT:      -7.6      4.168      6.822
REMARK  Name = 
REMARK  9 active torsions:
REMARK  status: ('A' for Active; 'I' for Inactive)
REMARK    1  A    between atoms: C_1  and  C_2
REMARK    2  A    between atoms: C_2  and  C_3
REMARK    3  A    between atoms: C_2  and  C_4
REMARK    4  A    between atoms: C_2  and  C_5
REMARK    5  A    between atoms: C_8  and  C_9
REMARK    6  A    between atoms: C_9  and  N_10
REMARK    7  A    between atoms: C_11  and  S_12
REMARK    8  A    between atoms: N_13  and  C_14
REMARK    9  A    between atoms: C_14  and  C_15
REMARK                            x       y       z     vdW  Elec       q    Type
REMARK                         _______ _______ _______ _____ _____    ______ ____
ROOT
ATOM      1  N   UNL     1       2.860   4.653  19.436  0.00  0.00    +0.000 NA
ATOM      2  C   UNL     1       3.417   3.508  19.599  0.00  0.00    +0.000 C 
ATOM      3  N   UNL     1       4.211   2.925  18.656  0.00  0.00    +0.000 N 
ATOM      4  H   UNL     1       4.538   1.999  18.894  0.00  0.00    +0.000 HD
ENDROOT
BRANCH   2   5
ATOM      5  S   UNL     1       3.301   2.486  21.020  0.00  0.00    +0.000 S 
ATOM      6  H   UNL     1       2.139   2.932  21.502  0.00  0.00    +0.000 HD
ENDBRANCH   2   5
BRANCH   1   7
ATOM      7  C   UNL     1       2.103   5.341  20.478  0.00  0.00    +0.000 C 
BRANCH   7  11
ATOM      8  C   UNL     1       1.330   9.538  19.515  0.00  0.00    +0.000 A 
ATOM      9  C   UNL     1       1.939   8.668  18.599  0.00  0.00    +0.000 A 
ATOM     10  C   UNL     1       2.190   7.328  18.915  0.00  0.00    +0.000 A 
ATOM     11  C   UNL     1       1.855   6.803  20.167  0.00  0.00    +0.000 A 
ATOM     12  C   UNL     1       1.242   7.654  21.089  0.00  0.00    +0.000 A 
ATOM     13  C   UNL     1       0.987   9.002  20.765  0.00  0.00    +0.000 A 
BRANCH   8  15
ATOM     14  C   UNL     1       2.034  11.636  18.190  0.00  0.00    +0.000 C 
ATOM     15  C   UNL     1       1.020  11.005  19.171  0.00  0.00    +0.000 C 
ATOM     16  C   UNL     1       1.033  11.865  20.451  0.00  0.00    +0.000 C 
ATOM     17  C   UNL     1      -0.373  11.111  18.514  0.00  0.00    +0.000 C 
ENDBRANCH   8  15
ENDBRANCH   7  11
ENDBRANCH   1   7
BRANCH   3  18
ATOM     18  C   UNL     1       4.191   3.236  17.244  0.00  0.00    +0.000 C 
BRANCH  18  19
ATOM     19  C   UNL     1       5.166   4.372  17.020  0.00  0.00    +0.000 A 
ATOM     20  C   UNL     1       4.823   5.460  16.179  0.00  0.00    +0.000 A 
ATOM     21  C   UNL     1       5.593   6.627  16.165  0.00  0.00    +0.000 A 
ATOM     22  C   UNL     1       6.667   6.687  17.024  0.00  0.00    +0.000 A 
ATOM     23  C   UNL     1       7.036   5.614  17.805  0.00  0.00    +0.000 A 
ATOM     24  C   UNL     1       6.329   4.434  17.805  0.00  0.00    +0.000 A 
ATOM     25  O   UNL     1       8.082   5.911  18.624  0.00  0.00    +0.000 OA
ATOM     26  C   UNL     1       8.092   7.345  18.486  0.00  0.00    +0.000 C 
ATOM     27  O   UNL     1       7.427   7.787  17.283  0.00  0.00    +0.000 OA
ENDBRANCH  18  19
ENDBRANCH   3  18
TORSDOF 6
ENDMDL
MODEL 8
REMARK VINA RESULT:      -7.6      7.055      9.488
REMARK  Name = 
REMARK  9 active torsions:
REMARK  status: ('A' for Active; 'I' for Inactive)
REMARK    1  A    between atoms: C_1  and  C_2
REMARK    2  A    between atoms: C_2  and  C_3
REMARK    3  A    between atoms: C_2  and  C_4
REMARK    4  A    between atoms: C_2  and  C_5
REMARK    5  A    between atoms: C_8  and  C_9
REMARK    6  A    between atoms: C_9  and  N_10
REMARK    7  A    between atoms: C_11  and  S_12
REMARK    8  A    between atoms: N_13  and  C_14
REMARK    9  A    between atoms: C_14  and  C_15
REMARK                            x       y       z     vdW  Elec       q    Type
REMARK                         _______ _______ _______ _____ _____    ______ ____
ROOT
ATOM      1  N   UNL     1       1.305   8.927  17.848  0.00  0.00    +0.000 NA
ATOM      2  C   UNL     1       1.019  10.167  18.015  0.00  0.00    +0.000 C 
ATOM      3  N   UNL     1      -0.261  10.636  18.063  0.00  0.00    +0.000 N 
ATOM      4  H   UNL     1      -0.339  11.640  18.144  0.00  0.00    +0.000 HD
ENDROOT
BRANCH   2   5
ATOM      5  S   UNL     1       2.162  11.481  18.229  0.00  0.00    +0.000 S 
ATOM      6  H   UNL     1       2.283  11.859  16.955  0.00  0.00    +0.000 HD
ENDBRANCH   2   5
BRANCH   1   7
ATOM      7  C   UNL     1       2.663   8.394  17.909  0.00  0.00    +0.000 C 
BRANCH   7  11
ATOM      8  C   UNL     1       2.760   4.351  19.578  0.00  0.00    +0.000 A 
ATOM      9  C   UNL     1       2.255   5.439  20.304  0.00  0.00    +0.000 A 
ATOM     10  C   UNL     1       2.233   6.732  19.767  0.00  0.00    +0.000 A 
ATOM     11  C   UNL     1       2.728   6.995  18.486  0.00  0.00    +0.000 A 
ATOM     12  C   UNL     1       3.230   5.921  17.747  0.00  0.00    +0.000 A 
ATOM     13  C   UNL     1       3.246   4.620  18.290  0.00  0.00    +0.000 A 
BRANCH   8  15
ATOM     14  C   UNL     1       4.170   2.283  20.200  0.00  0.00    +0.000 C 
ATOM     15  C   UNL     1       2.764   2.920  20.143  0.00  0.00    +0.000 C 
ATOM     16  C   UNL     1       1.886   2.002  19.267  0.00  0.00    +0.000 C 
ATOM     17  C   UNL     1       2.206   2.919  21.582  0.00  0.00    +0.000 C 
ENDBRANCH   8  15
ENDBRANCH   7  11
ENDBRANCH   1   7
BRANCH   3  18
ATOM     18  C   UNL     1      -1.415   9.962  17.510  0.00  0.00    +0.000 C 
BRANCH  18  19
ATOM     19  C   UNL     1      -2.633  10.780  17.878  0.00  0.00    +0.000 A 
ATOM     20  C   UNL     1      -3.893  10.497  17.296  0.00  0.00    +0.000 A 
ATOM     21  C   UNL     1      -5.065  11.062  17.809  0.00  0.00    +0.000 A 
ATOM     22  C   UNL     1      -4.945  11.869  18.918  0.00  0.00    +0.000 A 
ATOM     23  C   UNL     1      -3.719  12.191  19.456  0.00  0.00    +0.000 A 
ATOM     24  C   UNL     1      -2.544  11.690  18.944  0.00  0.00    +0.000 A 
ATOM     25  O   UNL     1      -3.835  12.945  20.583  0.00  0.00    +0.000 OA
ATOM     26  C   UNL     1      -5.242  12.774  20.839  0.00  0.00    +0.000 C 
ATOM     27  O   UNL     1      -5.971  12.369  19.661  0.00  0.00    +0.000 OA
ENDBRANCH  18  19
ENDBRANCH   3  18
TORSDOF 6
ENDMDL
MODEL 9
REMARK VINA RESULT:      -7.5      5.881      8.271
REMARK  Name = 
REMARK  9 active torsions:
REMARK  status: ('A' for Active; 'I' for Inactive)
REMARK    1  A    between atoms: C_1  and  C_2
REMARK    2  A    between atoms: C_2  and  C_3
REMARK    3  A    between atoms: C_2  and  C_4
REMARK    4  A    between atoms: C_2  and  C_5
REMARK    5  A    between atoms: C_8  and  C_9
REMARK    6  A    between atoms: C_9  and  N_10
REMARK    7  A    between atoms: C_11  and  S_12
REMARK    8  A    between atoms: N_13  and  C_14
REMARK    9  A    between atoms: C_14  and  C_15
REMARK                            x       y       z     vdW  Elec       q    Type
REMARK                         _______ _______ _______ _____ _____    ______ ____
ROOT
ATOM      1  N   UNL     1       4.416   5.856  16.763  0.00  0.00    +0.000 NA
ATOM      2  C   UNL     1       5.520   5.337  17.162  0.00  0.00    +0.000 C 
ATOM      3  N   UNL     1       5.793   4.005  17.070  0.00  0.00    +0.000 N 
ATOM      4  H   UNL     1       6.677   3.726  17.473  0.00  0.00    +0.000 HD
ENDROOT
BRANCH   2   5
ATOM      5  S   UNL     1       6.877   6.193  17.872  0.00  0.00    +0.000 S 
ATOM      6  H   UNL     1       7.717   5.166  18.018  0.00  0.00    +0.000 HD
ENDBRANCH   2   5
BRANCH   1   7
ATOM      7  C   UNL     1       4.155   7.293  16.749  0.00  0.00    +0.000 C 
BRANCH   7  11
ATOM      8  C   UNL     1       1.413   8.563  19.913  0.00  0.00    +0.000 A 
ATOM      9  C   UNL     1       2.126   7.359  19.992  0.00  0.00    +0.000 A 
ATOM     10  C   UNL     1       2.997   6.954  18.974  0.00  0.00    +0.000 A 
ATOM     11  C   UNL     1       3.181   7.730  17.825  0.00  0.00    +0.000 A 
ATOM     12  C   UNL     1       2.482   8.936  17.733  0.00  0.00    +0.000 A 
ATOM     13  C   UNL     1       1.610   9.342  18.764  0.00  0.00    +0.000 A 
BRANCH   8  15
ATOM     14  C   UNL     1      -0.617   8.006  21.403  0.00  0.00    +0.000 C 
ATOM     15  C   UNL     1       0.475   9.035  21.038  0.00  0.00    +0.000 C 
ATOM     16  C   UNL     1      -0.247  10.332  20.618  0.00  0.00    +0.000 C 
ATOM     17  C   UNL     1       1.287   9.310  22.322  0.00  0.00    +0.000 C 
ENDBRANCH   8  15
ENDBRANCH   7  11
ENDBRANCH   1   7
BRANCH   3  18
ATOM     18  C   UNL     1       4.801   2.958  16.956  0.00  0.00    +0.000 C 
BRANCH  18  19
ATOM     19  C   UNL     1       3.703   3.270  17.950  0.00  0.00    +0.000 A 
ATOM     20  C   UNL     1       2.379   3.509  17.508  0.00  0.00    +0.000 A 
ATOM     21  C   UNL     1       1.313   3.540  18.413  0.00  0.00    +0.000 A 
ATOM     22  C   UNL     1       1.601   3.293  19.737  0.00  0.00    +0.000 A 
ATOM     23  C   UNL     1       2.892   3.113  20.180  0.00  0.00    +0.000 A 
ATOM     24  C   UNL     1       3.967   3.126  19.322  0.00  0.00    +0.000 A 
ATOM     25  O   UNL     1       2.942   2.819  21.508  0.00  0.00    +0.000 OA
ATOM     26  C   UNL     1       1.550   2.530  21.740  0.00  0.00    +0.000 C 
ATOM     27  O   UNL     1       0.692   3.111  20.735  0.00  0.00    +0.000 OA
ENDBRANCH  18  19
ENDBRANCH   3  18
TORSDOF 6
ENDMDL
