MODEL 1
REMARK VINA RESULT:      -7.5      0.000      0.000
REMARK  Name = 
REMARK  6 active torsions:
REMARK  status: ('A' for Active; 'I' for Inactive)
REMARK    1  A    between atoms: C_2  and  C_3
REMARK    2  A    between atoms: C_8  and  C_9
REMARK    3  A    between atoms: C_9  and  C_10
REMARK    4  A    between atoms: C_13  and  S_14
REMARK    5  A    between atoms: N_15  and  N_16
REMARK    6  A    between atoms: C_17  and  C_19
REMARK                            x       y       z     vdW  Elec       q    Type
REMARK                         _______ _______ _______ _____ _____    ______ ____
ROOT
ATOM      1  C   UNL     1       2.095   5.529  19.836  0.00  0.00    +0.000 A 
ATOM      2  N   UNL     1       1.235   5.063  20.727  0.00  0.00    +0.000 NA
ATOM      3  N   UNL     1       0.898   3.778  20.372  0.00  0.00    +0.000 NA
ATOM      4  C   UNL     1       1.559   3.480  19.277  0.00  0.00    +0.000 A 
ATOM      5  N   UNL     1       2.262   4.581  18.851  0.00  0.00    +0.000 N 
ENDROOT
BRANCH   5   6
ATOM      6  N   UNL     1       3.084   4.673  17.757  0.00  0.00    +0.000 N 
ATOM      7  C   UNL     1       4.408   4.301  17.908  0.00  0.00    +0.000 C 
ATOM      8  O   UNL     1       4.872   3.866  18.960  0.00  0.00    +0.000 OA
ATOM      9  H   UNL     1       2.631   4.551  16.859  0.00  0.00    +0.000 HD
BRANCH   7  10
ATOM     10  C   UNL     1       5.327   4.462  16.739  0.00  0.00    +0.000 A 
ATOM     11  C   UNL     1       6.665   4.850  16.845  0.00  0.00    +0.000 A 
ATOM     12  C   UNL     1       7.443   5.029  15.688  0.00  0.00    +0.000 A 
ATOM     13  C   UNL     1       6.892   4.799  14.429  0.00  0.00    +0.000 A 
ATOM     14 CL   UNL     1       7.838   5.066  13.018  0.00  0.00    +0.000 Cl
ATOM     15  C   UNL     1       5.576   4.367  14.309  0.00  0.00    +0.000 A 
ATOM     16  C   UNL     1       4.799   4.199  15.459  0.00  0.00    +0.000 A 
ENDBRANCH   7  10
ENDBRANCH   5   6
BRANCH   4  17
ATOM     17  S   UNL     1       1.554   1.924  18.528  0.00  0.00    +0.000 S 
ATOM     18  H   UNL     1       0.409   2.099  17.853  0.00  0.00    +0.000 HD
ENDBRANCH   4  17
BRANCH   1  19
ATOM     19  C   UNL     1       2.817   6.818  19.963  0.00  0.00    +0.000 C 
BRANCH  19  25
ATOM     20  O   UNL     1      -0.037   9.248  23.090  0.00  0.00    +0.000 OA
ATOM     21  C   UNL     1      -0.479  10.187  22.425  0.00  0.00    +0.000 C 
ATOM     22  N   UNL     1      -0.218  10.411  21.093  0.00  0.00    +0.000 N 
ATOM     23  C   UNL     1       0.601   9.603  20.366  0.00  0.00    +0.000 A 
ATOM     24  N   UNL     1       1.365   8.626  20.786  0.00  0.00    +0.000 NA
ATOM     25  C   UNL     1       1.959   8.007  19.700  0.00  0.00    +0.000 A 
ATOM     26  C   UNL     1       1.654   8.567  18.471  0.00  0.00    +0.000 A 
ATOM     27  S   UNL     1       0.609   9.910  18.689  0.00  0.00    +0.000 S 
ATOM     28  H   UNL     1      -0.696  11.159  20.603  0.00  0.00    +0.000 HD
BRANCH  21  29
ATOM     29  C   UNL     1      -1.419  11.177  23.085  0.00  0.00    +0.000 C 
ATOM     30 CL   UNL     1      -1.891  12.518  22.019  0.00  0.00    +0.000 Cl
ENDBRANCH  21  29
ENDBRANCH  19  25
ENDBRANCH   1  19
TORSDOF 6
ENDMDL
MODEL 2
REMARK VINA RESULT:      -7.4      3.233      7.072
REMARK  Name = 
REMARK  6 active torsions:
REMARK  status: ('A' for Active; 'I' for Inactive)
REMARK    1  A    between atoms: C_2  and  C_3
REMARK    2  A    between atoms: C_8  and  C_9
REMARK    3  A    between atoms: C_9  and  C_10
REMARK    4  A    between atoms: C_13  and  S_14
REMARK    5  A    between atoms: N_15  and  N_16
REMARK    6  A    between atoms: C_17  and  C_19
REMARK                            x       y       z     vdW  Elec       q    Type
REMARK                         _______ _______ _______ _____ _____    ______ ____
ROOT
ATOM      1  C   UNL     1       3.378   3.137  17.767  0.00  0.00    +0.000 A 
ATOM      2  N   UNL     1       3.789   1.943  18.162  0.00  0.00    +0.000 NA
ATOM      3  N   UNL     1       3.340   1.733  19.445  0.00  0.00    +0.000 NA
ATOM      4  C   UNL     1       2.659   2.797  19.807  0.00  0.00    +0.000 A 
ATOM      5  N   UNL     1       2.727   3.745  18.816  0.00  0.00    +0.000 N 
ENDROOT
BRANCH   5   6
ATOM      6  N   UNL     1       2.138   4.985  18.806  0.00  0.00    +0.000 N 
ATOM      7  C   UNL     1       2.870   6.054  19.292  0.00  0.00    +0.000 C 
ATOM      8  O   UNL     1       4.025   5.952  19.702  0.00  0.00    +0.000 OA
ATOM      9  H   UNL     1       1.459   5.138  18.071  0.00  0.00    +0.000 HD
BRANCH   7  10
ATOM     10  C   UNL     1       2.212   7.396  19.346  0.00  0.00    +0.000 A 
ATOM     11  C   UNL     1       1.596   7.918  20.487  0.00  0.00    +0.000 A 
ATOM     12  C   UNL     1       0.954   9.167  20.434  0.00  0.00    +0.000 A 
ATOM     13  C   UNL     1       0.947   9.903  19.251  0.00  0.00    +0.000 A 
ATOM     14 CL   UNL     1       0.119  11.409  19.184  0.00  0.00    +0.000 Cl
ATOM     15  C   UNL     1       1.596   9.419  18.121  0.00  0.00    +0.000 A 
ATOM     16  C   UNL     1       2.226   8.172  18.170  0.00  0.00    +0.000 A 
ENDBRANCH   7  10
ENDBRANCH   5   6
BRANCH   4  17
ATOM     17  S   UNL     1       1.794   2.940  21.296  0.00  0.00    +0.000 S 
ATOM     18  H   UNL     1       2.724   2.344  22.055  0.00  0.00    +0.000 HD
ENDBRANCH   4  17
BRANCH   1  19
ATOM     19  C   UNL     1       3.522   3.657  16.385  0.00  0.00    +0.000 C 
BRANCH  19  25
ATOM     20  O   UNL     1       5.705   7.794  17.777  0.00  0.00    +0.000 OA
ATOM     21  C   UNL     1       6.850   7.694  17.331  0.00  0.00    +0.000 C 
ATOM     22  N   UNL     1       7.322   6.642  16.580  0.00  0.00    +0.000 N 
ATOM     23  C   UNL     1       6.550   5.566  16.270  0.00  0.00    +0.000 A 
ATOM     24  N   UNL     1       5.356   5.262  16.715  0.00  0.00    +0.000 NA
ATOM     25  C   UNL     1       4.898   4.127  16.069  0.00  0.00    +0.000 A 
ATOM     26  C   UNL     1       5.789   3.571  15.166  0.00  0.00    +0.000 A 
ATOM     27  S   UNL     1       7.239   4.489  15.143  0.00  0.00    +0.000 S 
ATOM     28  H   UNL     1       8.252   6.685  16.179  0.00  0.00    +0.000 HD
BRANCH  21  29
ATOM     29  C   UNL     1       7.836   8.819  17.579  0.00  0.00    +0.000 C 
ATOM     30 CL   UNL     1       8.883   8.538  18.987  0.00  0.00    +0.000 Cl
ENDBRANCH  21  29
ENDBRANCH  19  25
ENDBRANCH   1  19
TORSDOF 6
ENDMDL
MODEL 3
REMARK VINA RESULT:      -7.4      2.984      7.816
REMARK  Name = 
REMARK  6 active torsions:
REMARK  status: ('A' for Active; 'I' for Inactive)
REMARK    1  A    between atoms: C_2  and  C_3
REMARK    2  A    between atoms: C_8  and  C_9
REMARK    3  A    between atoms: C_9  and  C_10
REMARK    4  A    between atoms: C_13  and  S_14
REMARK    5  A    between atoms: N_15  and  N_16
REMARK    6  A    between atoms: C_17  and  C_19
REMARK                            x       y       z     vdW  Elec       q    Type
REMARK                         _______ _______ _______ _____ _____    ______ ____
ROOT
ATOM      1  C   UNL     1       4.754   3.899  19.465  0.00  0.00    +0.000 A 
ATOM      2  N   UNL     1       4.927   2.636  19.110  0.00  0.00    +0.000 NA
ATOM      3  N   UNL     1       3.698   2.097  18.812  0.00  0.00    +0.000 NA
ATOM      4  C   UNL     1       2.798   3.038  18.984  0.00  0.00    +0.000 A 
ATOM      5  N   UNL     1       3.403   4.168  19.478  0.00  0.00    +0.000 N 
ENDROOT
BRANCH   5   6
ATOM      6  N   UNL     1       2.811   5.369  19.777  0.00  0.00    +0.000 N 
ATOM      7  C   UNL     1       2.672   6.294  18.758  0.00  0.00    +0.000 C 
ATOM      8  O   UNL     1       3.024   6.081  17.599  0.00  0.00    +0.000 OA
ATOM      9  H   UNL     1       2.128   5.344  20.525  0.00  0.00    +0.000 HD
BRANCH   7  10
ATOM     10  C   UNL     1       2.088   7.631  19.090  0.00  0.00    +0.000 A 
ATOM     11  C   UNL     1       1.631   7.990  20.361  0.00  0.00    +0.000 A 
ATOM     12  C   UNL     1       1.047   9.251  20.570  0.00  0.00    +0.000 A 
ATOM     13  C   UNL     1       0.940  10.159  19.520  0.00  0.00    +0.000 A 
ATOM     14 CL   UNL     1       0.182  11.681  19.777  0.00  0.00    +0.000 Cl
ATOM     15  C   UNL     1       1.432   9.835  18.261  0.00  0.00    +0.000 A 
ATOM     16  C   UNL     1       2.005   8.577  18.049  0.00  0.00    +0.000 A 
ENDBRANCH   7  10
ENDBRANCH   5   6
BRANCH   4  17
ATOM     17  S   UNL     1       1.121   2.864  18.608  0.00  0.00    +0.000 S 
ATOM     18  H   UNL     1       1.089   1.530  18.731  0.00  0.00    +0.000 HD
ENDBRANCH   4  17
BRANCH   1  19
ATOM     19  C   UNL     1       5.856   4.862  19.700  0.00  0.00    +0.000 C 
BRANCH  19  25
ATOM     20  O   UNL     1       5.863   3.120  15.141  0.00  0.00    +0.000 OA
ATOM     21  C   UNL     1       6.288   4.057  14.462  0.00  0.00    +0.000 C 
ATOM     22  N   UNL     1       6.693   5.277  14.955  0.00  0.00    +0.000 N 
ATOM     23  C   UNL     1       6.636   5.581  16.279  0.00  0.00    +0.000 A 
ATOM     24  N   UNL     1       6.087   4.897  17.251  0.00  0.00    +0.000 NA
ATOM     25  C   UNL     1       6.340   5.525  18.458  0.00  0.00    +0.000 A 
ATOM     26  C   UNL     1       7.053   6.708  18.361  0.00  0.00    +0.000 A 
ATOM     27  S   UNL     1       7.397   7.043  16.713  0.00  0.00    +0.000 S 
ATOM     28  H   UNL     1       7.113   5.958  14.333  0.00  0.00    +0.000 HD
BRANCH  21  29
ATOM     29  C   UNL     1       6.424   3.876  12.963  0.00  0.00    +0.000 C 
ATOM     30 CL   UNL     1       4.905   3.409  12.169  0.00  0.00    +0.000 Cl
ENDBRANCH  21  29
ENDBRANCH  19  25
ENDBRANCH   1  19
TORSDOF 6
ENDMDL
MODEL 4
REMARK VINA RESULT:      -7.4      2.932      7.837
REMARK  Name = 
REMARK  6 active torsions:
REMARK  status: ('A' for Active; 'I' for Inactive)
REMARK    1  A    between atoms: C_2  and  C_3
REMARK    2  A    between atoms: C_8  and  C_9
REMARK    3  A    between atoms: C_9  and  C_10
REMARK    4  A    between atoms: C_13  and  S_14
REMARK    5  A    between atoms: N_15  and  N_16
REMARK    6  A    between atoms: C_17  and  C_19
REMARK                            x       y       z     vdW  Elec       q    Type
REMARK                         _______ _______ _______ _____ _____    ______ ____
ROOT
ATOM      1  C   UNL     1       4.866   4.135  19.552  0.00  0.00    +0.000 A 
ATOM      2  N   UNL     1       4.960   2.816  19.505  0.00  0.00    +0.000 NA
ATOM      3  N   UNL     1       3.745   2.283  19.866  0.00  0.00    +0.000 NA
ATOM      4  C   UNL     1       2.931   3.283  20.122  0.00  0.00    +0.000 A 
ATOM      5  N   UNL     1       3.616   4.469  20.022  0.00  0.00    +0.000 N 
ENDROOT
BRANCH   5   6
ATOM      6  N   UNL     1       3.120   5.736  20.200  0.00  0.00    +0.000 N 
ATOM      7  C   UNL     1       2.408   6.305  19.160  0.00  0.00    +0.000 C 
ATOM      8  O   UNL     1       2.174   5.723  18.102  0.00  0.00    +0.000 OA
ATOM      9  H   UNL     1       2.892   5.985  21.155  0.00  0.00    +0.000 HD
BRANCH   7  10
ATOM     10  C   UNL     1       1.921   7.711  19.320  0.00  0.00    +0.000 A 
ATOM     11  C   UNL     1       1.414   8.231  20.514  0.00  0.00    +0.000 A 
ATOM     12  C   UNL     1       0.929   9.548  20.560  0.00  0.00    +0.000 A 
ATOM     13  C   UNL     1       0.970  10.353  19.424  0.00  0.00    +0.000 A 
ATOM     14 CL   UNL     1       0.330  11.948  19.479  0.00  0.00    +0.000 Cl
ATOM     15  C   UNL     1       1.514   9.866  18.241  0.00  0.00    +0.000 A 
ATOM     16  C   UNL     1       1.989   8.551  18.191  0.00  0.00    +0.000 A 
ENDBRANCH   7  10
ENDBRANCH   5   6
BRANCH   4  17
ATOM     17  S   UNL     1       1.254   3.104  20.493  0.00  0.00    +0.000 S 
ATOM     18  H   UNL     1       0.971   4.414  20.493  0.00  0.00    +0.000 HD
ENDBRANCH   4  17
BRANCH   1  19
ATOM     19  C   UNL     1       5.916   5.067  19.073  0.00  0.00    +0.000 C 
BRANCH  19  25
ATOM     20  O   UNL     1       6.493   3.015  14.682  0.00  0.00    +0.000 OA
ATOM     21  C   UNL     1       6.050   3.856  13.898  0.00  0.00    +0.000 C 
ATOM     22  N   UNL     1       5.559   5.092  14.250  0.00  0.00    +0.000 N 
ATOM     23  C   UNL     1       5.492   5.506  15.544  0.00  0.00    +0.000 A 
ATOM     24  N   UNL     1       5.714   4.815  16.634  0.00  0.00    +0.000 NA
ATOM     25  C   UNL     1       5.626   5.650  17.734  0.00  0.00    +0.000 A 
ATOM     26  C   UNL     1       5.296   6.964  17.445  0.00  0.00    +0.000 A 
ATOM     27  S   UNL     1       5.077   7.146  15.752  0.00  0.00    +0.000 S 
ATOM     28  H   UNL     1       5.297   5.755  13.530  0.00  0.00    +0.000 HD
BRANCH  21  29
ATOM     29  C   UNL     1       6.063   3.553  12.412  0.00  0.00    +0.000 C 
ATOM     30 CL   UNL     1       4.437   3.406  11.709  0.00  0.00    +0.000 Cl
ENDBRANCH  21  29
ENDBRANCH  19  25
ENDBRANCH   1  19
TORSDOF 6
ENDMDL
MODEL 5
REMARK VINA RESULT:      -7.3      2.926      8.627
REMARK  Name = 
REMARK  6 active torsions:
REMARK  status: ('A' for Active; 'I' for Inactive)
REMARK    1  A    between atoms: C_2  and  C_3
REMARK    2  A    between atoms: C_8  and  C_9
REMARK    3  A    between atoms: C_9  and  C_10
REMARK    4  A    between atoms: C_13  and  S_14
REMARK    5  A    between atoms: N_15  and  N_16
REMARK    6  A    between atoms: C_17  and  C_19
REMARK                            x       y       z     vdW  Elec       q    Type
REMARK                         _______ _______ _______ _____ _____    ______ ____
ROOT
ATOM      1  C   UNL     1       3.089   3.273  18.243  0.00  0.00    +0.000 A 
ATOM      2  N   UNL     1       3.530   2.059  18.530  0.00  0.00    +0.000 NA
ATOM      3  N   UNL     1       3.112   1.736  19.799  0.00  0.00    +0.000 NA
ATOM      4  C   UNL     1       2.421   2.752  20.263  0.00  0.00    +0.000 A 
ATOM      5  N   UNL     1       2.450   3.780  19.353  0.00  0.00    +0.000 N 
ENDROOT
BRANCH   5   6
ATOM      6  N   UNL     1       1.839   5.004  19.457  0.00  0.00    +0.000 N 
ATOM      7  C   UNL     1       2.641   6.116  19.642  0.00  0.00    +0.000 C 
ATOM      8  O   UNL     1       3.869   6.063  19.687  0.00  0.00    +0.000 OA
ATOM      9  H   UNL     1       0.964   5.099  18.955  0.00  0.00    +0.000 HD
BRANCH   7  10
ATOM     10  C   UNL     1       1.980   7.445  19.824  0.00  0.00    +0.000 A 
ATOM     11  C   UNL     1       1.382   7.864  21.016  0.00  0.00    +0.000 A 
ATOM     12  C   UNL     1       0.736   9.109  21.082  0.00  0.00    +0.000 A 
ATOM     13  C   UNL     1       0.704   9.945  19.968  0.00  0.00    +0.000 A 
ATOM     14 CL   UNL     1      -0.130  11.447  20.046  0.00  0.00    +0.000 Cl
ATOM     15  C   UNL     1       1.334   9.563  18.789  0.00  0.00    +0.000 A 
ATOM     16  C   UNL     1       1.969   8.319  18.719  0.00  0.00    +0.000 A 
ENDBRANCH   7  10
ENDBRANCH   5   6
BRANCH   4  17
ATOM     17  S   UNL     1       1.586   2.755  21.775  0.00  0.00    +0.000 S 
ATOM     18  H   UNL     1       2.456   1.962  22.415  0.00  0.00    +0.000 HD
ENDBRANCH   4  17
BRANCH   1  19
ATOM     19  C   UNL     1       3.192   3.908  16.907  0.00  0.00    +0.000 C 
BRANCH  19  25
ATOM     20  O   UNL     1       5.207   3.205  12.517  0.00  0.00    +0.000 OA
ATOM     21  C   UNL     1       6.356   3.633  12.642  0.00  0.00    +0.000 C 
ATOM     22  N   UNL     1       6.894   4.140  13.802  0.00  0.00    +0.000 N 
ATOM     23  C   UNL     1       6.175   4.243  14.953  0.00  0.00    +0.000 A 
ATOM     24  N   UNL     1       4.894   4.046  15.135  0.00  0.00    +0.000 NA
ATOM     25  C   UNL     1       4.595   4.168  16.481  0.00  0.00    +0.000 A 
ATOM     26  C   UNL     1       5.671   4.498  17.289  0.00  0.00    +0.000 A 
ATOM     27  S   UNL     1       7.083   4.673  16.330  0.00  0.00    +0.000 S 
ATOM     28  H   UNL     1       7.877   4.387  13.838  0.00  0.00    +0.000 HD
BRANCH  21  29
ATOM     29  C   UNL     1       7.294   3.579  11.452  0.00  0.00    +0.000 C 
ATOM     30 CL   UNL     1       7.577   1.930  10.853  0.00  0.00    +0.000 Cl
ENDBRANCH  21  29
ENDBRANCH  19  25
ENDBRANCH   1  19
TORSDOF 6
ENDMDL
MODEL 6
REMARK VINA RESULT:      -7.2      2.839      7.867
REMARK  Name = 
REMARK  6 active torsions:
REMARK  status: ('A' for Active; 'I' for Inactive)
REMARK    1  A    between atoms: C_2  and  C_3
REMARK    2  A    between atoms: C_8  and  C_9
REMARK    3  A    between atoms: C_9  and  C_10
REMARK    4  A    between atoms: C_13  and  S_14
REMARK    5  A    between atoms: N_15  and  N_16
REMARK    6  A    between atoms: C_17  and  C_19
REMARK                            x       y       z     vdW  Elec       q    Type
REMARK                         _______ _______ _______ _____ _____    ______ ____
ROOT
ATOM      1  C   UNL     1       4.860   3.996  19.540  0.00  0.00    +0.000 A 
ATOM      2  N   UNL     1       4.837   2.682  19.695  0.00  0.00    +0.000 NA
ATOM      3  N   UNL     1       3.599   2.222  19.314  0.00  0.00    +0.000 NA
ATOM      4  C   UNL     1       2.890   3.258  18.928  0.00  0.00    +0.000 A 
ATOM      5  N   UNL     1       3.611   4.409  19.133  0.00  0.00    +0.000 N 
ENDROOT
BRANCH   5   6
ATOM      6  N   UNL     1       3.228   5.695  18.846  0.00  0.00    +0.000 N 
ATOM      7  C   UNL     1       2.427   6.353  19.763  0.00  0.00    +0.000 C 
ATOM      8  O   UNL     1       2.070   5.853  20.829  0.00  0.00    +0.000 OA
ATOM      9  H   UNL     1       3.877   6.227  18.279  0.00  0.00    +0.000 HD
BRANCH   7  10
ATOM     10  C   UNL     1       1.950   7.730  19.428  0.00  0.00    +0.000 A 
ATOM     11  C   UNL     1       2.120   8.333  18.178  0.00  0.00    +0.000 A 
ATOM     12  C   UNL     1       1.687   9.653  17.967  0.00  0.00    +0.000 A 
ATOM     13  C   UNL     1       1.067  10.362  18.993  0.00  0.00    +0.000 A 
ATOM     14 CL   UNL     1       0.583  11.992  18.738  0.00  0.00    +0.000 Cl
ATOM     15  C   UNL     1       0.849   9.760  20.227  0.00  0.00    +0.000 A 
ATOM     16  C   UNL     1       1.287   8.450  20.441  0.00  0.00    +0.000 A 
ENDBRANCH   7  10
ENDBRANCH   5   6
BRANCH   4  17
ATOM     17  S   UNL     1       1.308   3.156  18.241  0.00  0.00    +0.000 S 
ATOM     18  H   UNL     1       1.323   1.829  18.055  0.00  0.00    +0.000 HD
ENDBRANCH   4  17
BRANCH   1  19
ATOM     19  C   UNL     1       6.072   4.836  19.688  0.00  0.00    +0.000 C 
BRANCH  19  25
ATOM     20  O   UNL     1       5.890   3.117  15.123  0.00  0.00    +0.000 OA
ATOM     21  C   UNL     1       6.262   4.066  14.430  0.00  0.00    +0.000 C 
ATOM     22  N   UNL     1       6.666   5.291  14.909  0.00  0.00    +0.000 N 
ATOM     23  C   UNL     1       6.667   5.588  16.237  0.00  0.00    +0.000 A 
ATOM     24  N   UNL     1       6.181   4.888  17.230  0.00  0.00    +0.000 NA
ATOM     25  C   UNL     1       6.481   5.515  18.427  0.00  0.00    +0.000 A 
ATOM     26  C   UNL     1       7.163   6.714  18.302  0.00  0.00    +0.000 A 
ATOM     27  S   UNL     1       7.419   7.064  16.641  0.00  0.00    +0.000 S 
ATOM     28  H   UNL     1       7.041   5.985  14.272  0.00  0.00    +0.000 HD
BRANCH  21  29
ATOM     29  C   UNL     1       6.329   3.896  12.925  0.00  0.00    +0.000 C 
ATOM     30 CL   UNL     1       7.582   4.895  12.158  0.00  0.00    +0.000 Cl
ENDBRANCH  21  29
ENDBRANCH  19  25
ENDBRANCH   1  19
TORSDOF 6
ENDMDL
MODEL 7
REMARK VINA RESULT:      -7.2      3.159      7.203
REMARK  Name = 
REMARK  6 active torsions:
REMARK  status: ('A' for Active; 'I' for Inactive)
REMARK    1  A    between atoms: C_2  and  C_3
REMARK    2  A    between atoms: C_8  and  C_9
REMARK    3  A    between atoms: C_9  and  C_10
REMARK    4  A    between atoms: C_13  and  S_14
REMARK    5  A    between atoms: N_15  and  N_16
REMARK    6  A    between atoms: C_17  and  C_19
REMARK                            x       y       z     vdW  Elec       q    Type
REMARK                         _______ _______ _______ _____ _____    ______ ____
ROOT
ATOM      1  C   UNL     1       3.317   3.238  17.732  0.00  0.00    +0.000 A 
ATOM      2  N   UNL     1       3.776   2.040  18.057  0.00  0.00    +0.000 NA
ATOM      3  N   UNL     1       3.378   1.758  19.343  0.00  0.00    +0.000 NA
ATOM      4  C   UNL     1       2.680   2.783  19.778  0.00  0.00    +0.000 A 
ATOM      5  N   UNL     1       2.686   3.778  18.831  0.00  0.00    +0.000 N 
ENDROOT
BRANCH   5   6
ATOM      6  N   UNL     1       2.062   4.998  18.899  0.00  0.00    +0.000 N 
ATOM      7  C   UNL     1       2.784   6.068  19.396  0.00  0.00    +0.000 C 
ATOM      8  O   UNL     1       3.959   5.985  19.749  0.00  0.00    +0.000 OA
ATOM      9  H   UNL     1       1.346   5.160  18.201  0.00  0.00    +0.000 HD
BRANCH   7  10
ATOM     10  C   UNL     1       2.091   7.386  19.536  0.00  0.00    +0.000 A 
ATOM     11  C   UNL     1       1.972   8.319  18.502  0.00  0.00    +0.000 A 
ATOM     12  C   UNL     1       1.350   9.557  18.737  0.00  0.00    +0.000 A 
ATOM     13  C   UNL     1       0.830   9.855  19.995  0.00  0.00    +0.000 A 
ATOM     14 CL   UNL     1       0.113  11.391  20.284  0.00  0.00    +0.000 Cl
ATOM     15  C   UNL     1       0.900   8.919  21.020  0.00  0.00    +0.000 A 
ATOM     16  C   UNL     1       1.527   7.691  20.790  0.00  0.00    +0.000 A 
ENDBRANCH   7  10
ENDBRANCH   5   6
BRANCH   4  17
ATOM     17  S   UNL     1       1.864   2.832  21.299  0.00  0.00    +0.000 S 
ATOM     18  H   UNL     1       2.743   3.644  21.902  0.00  0.00    +0.000 HD
ENDBRANCH   4  17
BRANCH   1  19
ATOM     19  C   UNL     1       3.397   3.825  16.373  0.00  0.00    +0.000 C 
BRANCH  19  25
ATOM     20  O   UNL     1       6.131   7.492  18.077  0.00  0.00    +0.000 OA
ATOM     21  C   UNL     1       7.210   7.356  17.497  0.00  0.00    +0.000 C 
ATOM     22  N   UNL     1       7.493   6.391  16.559  0.00  0.00    +0.000 N 
ATOM     23  C   UNL     1       6.585   5.447  16.190  0.00  0.00    +0.000 A 
ATOM     24  N   UNL     1       5.415   5.190  16.717  0.00  0.00    +0.000 NA
ATOM     25  C   UNL     1       4.779   4.211  15.974  0.00  0.00    +0.000 A 
ATOM     26  C   UNL     1       5.515   3.718  14.909  0.00  0.00    +0.000 A 
ATOM     27  S   UNL     1       7.045   4.493  14.853  0.00  0.00    +0.000 S 
ATOM     28  H   UNL     1       8.379   6.408  16.067  0.00  0.00    +0.000 HD
BRANCH  21  29
ATOM     29  C   UNL     1       8.329   8.337  17.788  0.00  0.00    +0.000 C 
ATOM     30 CL   UNL     1       7.788  10.029  17.836  0.00  0.00    +0.000 Cl
ENDBRANCH  21  29
ENDBRANCH  19  25
ENDBRANCH   1  19
TORSDOF 6
ENDMDL
MODEL 8
REMARK VINA RESULT:      -7.2      3.514      7.115
REMARK  Name = 
REMARK  6 active torsions:
REMARK  status: ('A' for Active; 'I' for Inactive)
REMARK    1  A    between atoms: C_2  and  C_3
REMARK    2  A    between atoms: C_8  and  C_9
REMARK    3  A    between atoms: C_9  and  C_10
REMARK    4  A    between atoms: C_13  and  S_14
REMARK    5  A    between atoms: N_15  and  N_16
REMARK    6  A    between atoms: C_17  and  C_19
REMARK                            x       y       z     vdW  Elec       q    Type
REMARK                         _______ _______ _______ _____ _____    ______ ____
ROOT
ATOM      1  C   UNL     1       4.156   3.826  17.363  0.00  0.00    +0.000 A 
ATOM      2  N   UNL     1       4.298   2.512  17.430  0.00  0.00    +0.000 NA
ATOM      3  N   UNL     1       3.141   1.977  17.944  0.00  0.00    +0.000 NA
ATOM      4  C   UNL     1       2.312   2.969  18.176  0.00  0.00    +0.000 A 
ATOM      5  N   UNL     1       2.936   4.162  17.907  0.00  0.00    +0.000 N 
ENDROOT
BRANCH   5   6
ATOM      6  N   UNL     1       2.405   5.423  18.010  0.00  0.00    +0.000 N 
ATOM      7  C   UNL     1       2.773   6.194  19.097  0.00  0.00    +0.000 C 
ATOM      8  O   UNL     1       3.570   5.818  19.955  0.00  0.00    +0.000 OA
ATOM      9  H   UNL     1       2.182   5.875  17.131  0.00  0.00    +0.000 HD
BRANCH   7  10
ATOM     10  C   UNL     1       2.148   7.545  19.252  0.00  0.00    +0.000 A 
ATOM     11  C   UNL     1       1.604   8.021  20.449  0.00  0.00    +0.000 A 
ATOM     12  C   UNL     1       0.988   9.283  20.491  0.00  0.00    +0.000 A 
ATOM     13  C   UNL     1       0.933  10.076  19.347  0.00  0.00    +0.000 A 
ATOM     14 CL   UNL     1       0.135  11.599  19.398  0.00  0.00    +0.000 Cl
ATOM     15  C   UNL     1       1.510   9.637  18.162  0.00  0.00    +0.000 A 
ATOM     16  C   UNL     1       2.116   8.377  18.116  0.00  0.00    +0.000 A 
ENDBRANCH   7  10
ENDBRANCH   5   6
BRANCH   4  17
ATOM     17  S   UNL     1       0.680   2.772  18.708  0.00  0.00    +0.000 S 
ATOM     18  H   UNL     1       0.977   2.584  20.001  0.00  0.00    +0.000 HD
ENDBRANCH   4  17
BRANCH   1  19
ATOM     19  C   UNL     1       5.123   4.741  16.710  0.00  0.00    +0.000 C 
BRANCH  19  25
ATOM     20  O   UNL     1       7.257   9.124  16.949  0.00  0.00    +0.000 OA
ATOM     21  C   UNL     1       8.045   9.023  17.892  0.00  0.00    +0.000 C 
ATOM     22  N   UNL     1       8.254   7.885  18.636  0.00  0.00    +0.000 N 
ATOM     23  C   UNL     1       7.568   6.732  18.408  0.00  0.00    +0.000 A 
ATOM     24  N   UNL     1       6.550   6.532  17.611  0.00  0.00    +0.000 NA
ATOM     25  C   UNL     1       6.219   5.188  17.613  0.00  0.00    +0.000 A 
ATOM     26  C   UNL     1       6.985   4.401  18.457  0.00  0.00    +0.000 A 
ATOM     27  S   UNL     1       8.135   5.377  19.275  0.00  0.00    +0.000 S 
ATOM     28  H   UNL     1       8.986   7.866  19.336  0.00  0.00    +0.000 HD
BRANCH  21  29
ATOM     29  C   UNL     1       8.897  10.220  18.269  0.00  0.00    +0.000 C 
ATOM     30 CL   UNL     1       9.425  10.200  19.965  0.00  0.00    +0.000 Cl
ENDBRANCH  21  29
ENDBRANCH  19  25
ENDBRANCH   1  19
TORSDOF 6
ENDMDL
MODEL 9
REMARK VINA RESULT:      -7.1      3.009      8.113
REMARK  Name = 
REMARK  6 active torsions:
REMARK  status: ('A' for Active; 'I' for Inactive)
REMARK    1  A    between atoms: C_2  and  C_3
REMARK    2  A    between atoms: C_8  and  C_9
REMARK    3  A    between atoms: C_9  and  C_10
REMARK    4  A    between atoms: C_13  and  S_14
REMARK    5  A    between atoms: N_15  and  N_16
REMARK    6  A    between atoms: C_17  and  C_19
REMARK                            x       y       z     vdW  Elec       q    Type
REMARK                         _______ _______ _______ _____ _____    ______ ____
ROOT
ATOM      1  C   UNL     1       3.510   2.884  18.364  0.00  0.00    +0.000 A 
ATOM      2  N   UNL     1       3.826   1.730  18.929  0.00  0.00    +0.000 NA
ATOM      3  N   UNL     1       3.163   1.640  20.130  0.00  0.00    +0.000 NA
ATOM      4  C   UNL     1       2.450   2.735  20.275  0.00  0.00    +0.000 A 
ATOM      5  N   UNL     1       2.702   3.588  19.229  0.00  0.00    +0.000 N 
ENDROOT
BRANCH   5   6
ATOM      6  N   UNL     1       2.146   4.823  19.008  0.00  0.00    +0.000 N 
ATOM      7  C   UNL     1       2.859   5.937  19.414  0.00  0.00    +0.000 C 
ATOM      8  O   UNL     1       3.972   5.874  19.934  0.00  0.00    +0.000 OA
ATOM      9  H   UNL     1       1.536   4.889  18.202  0.00  0.00    +0.000 HD
BRANCH   7  10
ATOM     10  C   UNL     1       2.231   7.283  19.238  0.00  0.00    +0.000 A 
ATOM     11  C   UNL     1       2.212   7.984  18.029  0.00  0.00    +0.000 A 
ATOM     12  C   UNL     1       1.647   9.268  17.966  0.00  0.00    +0.000 A 
ATOM     13  C   UNL     1       1.083   9.844  19.103  0.00  0.00    +0.000 A 
ATOM     14 CL   UNL     1       0.435  11.435  19.026  0.00  0.00    +0.000 Cl
ATOM     15  C   UNL     1       1.052   9.141  20.301  0.00  0.00    +0.000 A 
ATOM     16  C   UNL     1       1.623   7.866  20.367  0.00  0.00    +0.000 A 
ENDBRANCH   7  10
ENDBRANCH   5   6
BRANCH   4  17
ATOM     17  S   UNL     1       1.349   3.016  21.576  0.00  0.00    +0.000 S 
ATOM     18  H   UNL     1       0.948   4.225  21.159  0.00  0.00    +0.000 HD
ENDBRANCH   4  17
BRANCH   1  19
ATOM     19  C   UNL     1       3.894   3.275  16.986  0.00  0.00    +0.000 C 
BRANCH  19  25
ATOM     20  O   UNL     1       6.647   4.288  13.084  0.00  0.00    +0.000 OA
ATOM     21  C   UNL     1       7.531   5.025  13.525  0.00  0.00    +0.000 C 
ATOM     22  N   UNL     1       7.673   5.399  14.841  0.00  0.00    +0.000 N 
ATOM     23  C   UNL     1       6.805   4.997  15.809  0.00  0.00    +0.000 A 
ATOM     24  N   UNL     1       5.670   4.359  15.673  0.00  0.00    +0.000 NA
ATOM     25  C   UNL     1       5.154   4.066  16.923  0.00  0.00    +0.000 A 
ATOM     26  C   UNL     1       5.906   4.533  17.989  0.00  0.00    +0.000 A 
ATOM     27  S   UNL     1       7.283   5.372  17.402  0.00  0.00    +0.000 S 
ATOM     28  H   UNL     1       8.483   5.937  15.129  0.00  0.00    +0.000 HD
BRANCH  21  29
ATOM     29  C   UNL     1       8.589   5.552  12.575  0.00  0.00    +0.000 C 
ATOM     30 CL   UNL     1       7.936   6.634  11.325  0.00  0.00    +0.000 Cl
ENDBRANCH  21  29
ENDBRANCH  19  25
ENDBRANCH   1  19
TORSDOF 6
ENDMDL
