MODEL 1
REMARK VINA RESULT:      -7.8      0.000      0.000
REMARK  Name = 
REMARK  4 active torsions:
REMARK  status: ('A' for Active; 'I' for Inactive)
REMARK    1  A    between atoms: C_1  and  C_2
REMARK    2  A    between atoms: C_4  and  N_5
REMARK    3  A    between atoms: N_9  and  S_10
REMARK    4  A    between atoms: S_10  and  C_13
REMARK                            x       y       z     vdW  Elec       q    Type
REMARK                         _______ _______ _______ _____ _____    ______ ____
ROOT
ATOM      1  S   UNL     1       4.868   4.213  18.143  0.00  0.00    +0.000 S 
ATOM      2  O   UNL     1       4.023   3.171  17.597  0.00  0.00    +0.000 OA
ATOM      3  O   UNL     1       5.753   3.975  19.267  0.00  0.00    +0.000 OA
ENDROOT
BRANCH   1   4
ATOM      4  C   UNL     1       3.869   5.625  18.534  0.00  0.00    +0.000 A 
ATOM      5  C   UNL     1       3.752   6.668  17.607  0.00  0.00    +0.000 A 
ATOM      6  C   UNL     1       2.908   7.745  17.887  0.00  0.00    +0.000 A 
ATOM      7  C   UNL     1       2.187   7.765  19.077  0.00  0.00    +0.000 A 
ATOM      8  F   UNL     1       1.371   8.794  19.336  0.00  0.00    +0.000 F 
ATOM      9  C   UNL     1       2.290   6.725  19.996  0.00  0.00    +0.000 A 
ATOM     10  C   UNL     1       3.131   5.643  19.725  0.00  0.00    +0.000 A 
ENDBRANCH   1   4
BRANCH   1  16
ATOM     11  C   UNL     1       7.450   6.206  18.199  0.00  0.00    +0.000 C 
ATOM     12  C   UNL     1       6.983   5.516  16.970  0.00  0.00    +0.000 A 
ATOM     13  N   UNL     1       7.566   5.620  15.786  0.00  0.00    +0.000 NA
ATOM     14  C   UNL     1       6.805   4.859  14.921  0.00  0.00    +0.000 A 
ATOM     15  C   UNL     1       5.760   4.255  15.585  0.00  0.00    +0.000 A 
ATOM     16  N   UNL     1       5.874   4.707  16.874  0.00  0.00    +0.000 N 
BRANCH  14  17
ATOM     17  N   UNL     1       7.134   4.759  13.514  0.00  0.00    +0.000 N 
ATOM     18  O   UNL     1       7.956   5.580  13.081  0.00  0.00    +0.000 OA
ATOM     19  O   UNL     1       6.577   3.875  12.852  0.00  0.00    +0.000 OA
ENDBRANCH  14  17
ENDBRANCH   1  16
TORSDOF 3
ENDMDL
MODEL 2
REMARK VINA RESULT:      -7.8      0.064      1.116
REMARK  Name = 
REMARK  4 active torsions:
REMARK  status: ('A' for Active; 'I' for Inactive)
REMARK    1  A    between atoms: C_1  and  C_2
REMARK    2  A    between atoms: C_4  and  N_5
REMARK    3  A    between atoms: N_9  and  S_10
REMARK    4  A    between atoms: S_10  and  C_13
REMARK                            x       y       z     vdW  Elec       q    Type
REMARK                         _______ _______ _______ _____ _____    ______ ____
ROOT
ATOM      1  S   UNL     1       4.872   4.168  18.120  0.00  0.00    +0.000 S 
ATOM      2  O   UNL     1       4.090   3.072  17.585  0.00  0.00    +0.000 OA
ATOM      3  O   UNL     1       5.750   4.002  19.262  0.00  0.00    +0.000 OA
ENDROOT
BRANCH   1   4
ATOM      4  C   UNL     1       3.797   5.536  18.461  0.00  0.00    +0.000 A 
ATOM      5  C   UNL     1       3.089   5.576  19.669  0.00  0.00    +0.000 A 
ATOM      6  C   UNL     1       2.299   6.688  19.966  0.00  0.00    +0.000 A 
ATOM      7  C   UNL     1       2.232   7.747  19.066  0.00  0.00    +0.000 A 
ATOM      8  F   UNL     1       1.483   8.817  19.360  0.00  0.00    +0.000 F 
ATOM      9  C   UNL     1       2.945   7.719  17.870  0.00  0.00    +0.000 A 
ATOM     10  C   UNL     1       3.738   6.610  17.564  0.00  0.00    +0.000 A 
ENDBRANCH   1   4
BRANCH   1  16
ATOM     11  C   UNL     1       7.422   6.201  18.188  0.00  0.00    +0.000 C 
ATOM     12  C   UNL     1       6.968   5.509  16.955  0.00  0.00    +0.000 A 
ATOM     13  N   UNL     1       7.552   5.626  15.773  0.00  0.00    +0.000 NA
ATOM     14  C   UNL     1       6.805   4.857  14.903  0.00  0.00    +0.000 A 
ATOM     15  C   UNL     1       5.768   4.233  15.563  0.00  0.00    +0.000 A 
ATOM     16  N   UNL     1       5.873   4.683  16.854  0.00  0.00    +0.000 N 
BRANCH  14  17
ATOM     17  N   UNL     1       7.138   4.767  13.497  0.00  0.00    +0.000 N 
ATOM     18  O   UNL     1       7.961   5.592  13.072  0.00  0.00    +0.000 OA
ATOM     19  O   UNL     1       6.583   3.888  12.827  0.00  0.00    +0.000 OA
ENDBRANCH  14  17
ENDBRANCH   1  16
TORSDOF 3
ENDMDL
MODEL 3
REMARK VINA RESULT:      -7.5      2.489      3.049
REMARK  Name = 
REMARK  4 active torsions:
REMARK  status: ('A' for Active; 'I' for Inactive)
REMARK    1  A    between atoms: C_1  and  C_2
REMARK    2  A    between atoms: C_4  and  N_5
REMARK    3  A    between atoms: N_9  and  S_10
REMARK    4  A    between atoms: S_10  and  C_13
REMARK                            x       y       z     vdW  Elec       q    Type
REMARK                         _______ _______ _______ _____ _____    ______ ____
ROOT
ATOM      1  S   UNL     1       5.230   5.235  18.849  0.00  0.00    +0.000 S 
ATOM      2  O   UNL     1       6.197   4.600  19.721  0.00  0.00    +0.000 OA
ATOM      3  O   UNL     1       4.712   6.563  19.111  0.00  0.00    +0.000 OA
ENDROOT
BRANCH   1   4
ATOM      4  C   UNL     1       3.844   4.149  18.632  0.00  0.00    +0.000 A 
ATOM      5  C   UNL     1       3.967   2.794  18.965  0.00  0.00    +0.000 A 
ATOM      6  C   UNL     1       2.854   1.957  18.861  0.00  0.00    +0.000 A 
ATOM      7  C   UNL     1       1.635   2.480  18.439  0.00  0.00    +0.000 A 
ATOM      8  F   UNL     1       0.568   1.676  18.352  0.00  0.00    +0.000 F 
ATOM      9  C   UNL     1       1.505   3.829  18.120  0.00  0.00    +0.000 A 
ATOM     10  C   UNL     1       2.612   4.674  18.221  0.00  0.00    +0.000 A 
ENDBRANCH   1   4
BRANCH   1  16
ATOM     11  C   UNL     1       7.705   7.118  17.866  0.00  0.00    +0.000 C 
ATOM     12  C   UNL     1       7.049   6.116  16.988  0.00  0.00    +0.000 A 
ATOM     13  N   UNL     1       7.404   5.870  15.737  0.00  0.00    +0.000 NA
ATOM     14  C   UNL     1       6.527   4.909  15.275  0.00  0.00    +0.000 A 
ATOM     15  C   UNL     1       5.642   4.535  16.263  0.00  0.00    +0.000 A 
ATOM     16  N   UNL     1       5.971   5.332  17.329  0.00  0.00    +0.000 N 
BRANCH  14  17
ATOM     17  N   UNL     1       6.599   4.409  13.918  0.00  0.00    +0.000 N 
ATOM     18  O   UNL     1       7.466   4.914  13.191  0.00  0.00    +0.000 OA
ATOM     19  O   UNL     1       5.799   3.526  13.584  0.00  0.00    +0.000 OA
ENDBRANCH  14  17
ENDBRANCH   1  16
TORSDOF 3
ENDMDL
MODEL 4
REMARK VINA RESULT:      -7.4      2.463      3.155
REMARK  Name = 
REMARK  4 active torsions:
REMARK  status: ('A' for Active; 'I' for Inactive)
REMARK    1  A    between atoms: C_1  and  C_2
REMARK    2  A    between atoms: C_4  and  N_5
REMARK    3  A    between atoms: N_9  and  S_10
REMARK    4  A    between atoms: S_10  and  C_13
REMARK                            x       y       z     vdW  Elec       q    Type
REMARK                         _______ _______ _______ _____ _____    ______ ____
ROOT
ATOM      1  S   UNL     1       5.156   4.778  18.860  0.00  0.00    +0.000 S 
ATOM      2  O   UNL     1       6.216   3.864  19.233  0.00  0.00    +0.000 OA
ATOM      3  O   UNL     1       4.951   6.040  19.544  0.00  0.00    +0.000 OA
ENDROOT
BRANCH   1   4
ATOM      4  C   UNL     1       3.611   3.907  18.864  0.00  0.00    +0.000 A 
ATOM      5  C   UNL     1       2.557   4.369  19.663  0.00  0.00    +0.000 A 
ATOM      6  C   UNL     1       1.320   3.724  19.611  0.00  0.00    +0.000 A 
ATOM      7  C   UNL     1       1.145   2.637  18.759  0.00  0.00    +0.000 A 
ATOM      8  F   UNL     1      -0.046   2.029  18.703  0.00  0.00    +0.000 F 
ATOM      9  C   UNL     1       2.185   2.183  17.952  0.00  0.00    +0.000 A 
ATOM     10  C   UNL     1       3.426   2.821  17.998  0.00  0.00    +0.000 A 
ENDBRANCH   1   4
BRANCH   1  16
ATOM     11  C   UNL     1       3.928   7.225  17.087  0.00  0.00    +0.000 C 
ATOM     12  C   UNL     1       4.928   6.263  16.560  0.00  0.00    +0.000 A 
ATOM     13  N   UNL     1       5.435   6.305  15.338  0.00  0.00    +0.000 NA
ATOM     14  C   UNL     1       6.289   5.223  15.244  0.00  0.00    +0.000 A 
ATOM     15  C   UNL     1       6.333   4.526  16.432  0.00  0.00    +0.000 A 
ATOM     16  N   UNL     1       5.443   5.184  17.241  0.00  0.00    +0.000 N 
BRANCH  14  17
ATOM     17  N   UNL     1       7.011   4.934  14.023  0.00  0.00    +0.000 N 
ATOM     18  O   UNL     1       8.011   5.631  13.795  0.00  0.00    +0.000 OA
ATOM     19  O   UNL     1       6.582   4.026  13.300  0.00  0.00    +0.000 OA
ENDBRANCH  14  17
ENDBRANCH   1  16
TORSDOF 3
ENDMDL
MODEL 5
REMARK VINA RESULT:      -7.4      2.573      3.148
REMARK  Name = 
REMARK  4 active torsions:
REMARK  status: ('A' for Active; 'I' for Inactive)
REMARK    1  A    between atoms: C_1  and  C_2
REMARK    2  A    between atoms: C_4  and  N_5
REMARK    3  A    between atoms: N_9  and  S_10
REMARK    4  A    between atoms: S_10  and  C_13
REMARK                            x       y       z     vdW  Elec       q    Type
REMARK                         _______ _______ _______ _____ _____    ______ ____
ROOT
ATOM      1  S   UNL     1       4.802   5.820  18.112  0.00  0.00    +0.000 S 
ATOM      2  O   UNL     1       5.545   5.794  19.356  0.00  0.00    +0.000 OA
ATOM      3  O   UNL     1       4.159   7.025  17.625  0.00  0.00    +0.000 OA
ENDROOT
BRANCH   1   4
ATOM      4  C   UNL     1       3.584   4.532  18.137  0.00  0.00    +0.000 A 
ATOM      5  C   UNL     1       3.983   3.204  18.335  0.00  0.00    +0.000 A 
ATOM      6  C   UNL     1       3.016   2.201  18.426  0.00  0.00    +0.000 A 
ATOM      7  C   UNL     1       1.668   2.532  18.328  0.00  0.00    +0.000 A 
ATOM      8  F   UNL     1       0.744   1.569  18.427  0.00  0.00    +0.000 F 
ATOM      9  C   UNL     1       1.265   3.852  18.145  0.00  0.00    +0.000 A 
ATOM     10  C   UNL     1       2.225   4.862  18.053  0.00  0.00    +0.000 A 
ENDBRANCH   1   4
BRANCH   1  16
ATOM     11  C   UNL     1       7.882   4.785  18.396  0.00  0.00    +0.000 C 
ATOM     12  C   UNL     1       7.181   4.902  17.092  0.00  0.00    +0.000 A 
ATOM     13  N   UNL     1       7.717   4.585  15.924  0.00  0.00    +0.000 NA
ATOM     14  C   UNL     1       6.755   4.872  14.975  0.00  0.00    +0.000 A 
ATOM     15  C   UNL     1       5.602   5.340  15.568  0.00  0.00    +0.000 A 
ATOM     16  N   UNL     1       5.904   5.378  16.905  0.00  0.00    +0.000 N 
BRANCH  14  17
ATOM     17  N   UNL     1       7.004   4.672  13.563  0.00  0.00    +0.000 N 
ATOM     18  O   UNL     1       6.380   3.750  13.018  0.00  0.00    +0.000 OA
ATOM     19  O   UNL     1       7.813   5.425  13.007  0.00  0.00    +0.000 OA
ENDBRANCH  14  17
ENDBRANCH   1  16
TORSDOF 3
ENDMDL
MODEL 6
REMARK VINA RESULT:      -7.3      4.009      6.154
REMARK  Name = 
REMARK  4 active torsions:
REMARK  status: ('A' for Active; 'I' for Inactive)
REMARK    1  A    between atoms: C_1  and  C_2
REMARK    2  A    between atoms: C_4  and  N_5
REMARK    3  A    between atoms: N_9  and  S_10
REMARK    4  A    between atoms: S_10  and  C_13
REMARK                            x       y       z     vdW  Elec       q    Type
REMARK                         _______ _______ _______ _____ _____    ______ ____
ROOT
ATOM      1  S   UNL     1       4.059   3.157  18.945  0.00  0.00    +0.000 S 
ATOM      2  O   UNL     1       4.908   2.762  20.050  0.00  0.00    +0.000 OA
ATOM      3  O   UNL     1       3.133   2.234  18.318  0.00  0.00    +0.000 OA
ENDROOT
BRANCH   1   4
ATOM      4  C   UNL     1       5.062   3.867  17.667  0.00  0.00    +0.000 A 
ATOM      5  C   UNL     1       6.343   4.342  17.976  0.00  0.00    +0.000 A 
ATOM      6  C   UNL     1       7.158   4.835  16.955  0.00  0.00    +0.000 A 
ATOM      7  C   UNL     1       6.693   4.839  15.643  0.00  0.00    +0.000 A 
ATOM      8  F   UNL     1       7.482   5.302  14.665  0.00  0.00    +0.000 F 
ATOM      9  C   UNL     1       5.426   4.356  15.329  0.00  0.00    +0.000 A 
ATOM     10  C   UNL     1       4.604   3.861  16.343  0.00  0.00    +0.000 A 
ENDBRANCH   1   4
BRANCH   1  16
ATOM     11  C   UNL     1       1.816   3.145  21.313  0.00  0.00    +0.000 C 
ATOM     12  C   UNL     1       2.203   4.369  20.568  0.00  0.00    +0.000 A 
ATOM     13  N   UNL     1       1.700   5.573  20.793  0.00  0.00    +0.000 NA
ATOM     14  C   UNL     1       2.295   6.411  19.871  0.00  0.00    +0.000 A 
ATOM     15  C   UNL     1       3.198   5.723  19.090  0.00  0.00    +0.000 A 
ATOM     16  N   UNL     1       3.102   4.428  19.529  0.00  0.00    +0.000 N 
BRANCH  14  17
ATOM     17  N   UNL     1       1.961   7.819  19.804  0.00  0.00    +0.000 N 
ATOM     18  O   UNL     1       2.192   8.389  18.727  0.00  0.00    +0.000 OA
ATOM     19  O   UNL     1       1.479   8.347  20.813  0.00  0.00    +0.000 OA
ENDBRANCH  14  17
ENDBRANCH   1  16
TORSDOF 3
ENDMDL
MODEL 7
REMARK VINA RESULT:      -7.3      2.520      2.991
REMARK  Name = 
REMARK  4 active torsions:
REMARK  status: ('A' for Active; 'I' for Inactive)
REMARK    1  A    between atoms: C_1  and  C_2
REMARK    2  A    between atoms: C_4  and  N_5
REMARK    3  A    between atoms: N_9  and  S_10
REMARK    4  A    between atoms: S_10  and  C_13
REMARK                            x       y       z     vdW  Elec       q    Type
REMARK                         _______ _______ _______ _____ _____    ______ ____
ROOT
ATOM      1  S   UNL     1       5.197   5.060  18.676  0.00  0.00    +0.000 S 
ATOM      2  O   UNL     1       6.214   4.361  19.435  0.00  0.00    +0.000 OA
ATOM      3  O   UNL     1       4.813   6.425  18.978  0.00  0.00    +0.000 OA
ENDROOT
BRANCH   1   4
ATOM      4  C   UNL     1       3.720   4.079  18.644  0.00  0.00    +0.000 A 
ATOM      5  C   UNL     1       2.516   4.653  18.218  0.00  0.00    +0.000 A 
ATOM      6  C   UNL     1       1.370   3.860  18.126  0.00  0.00    +0.000 A 
ATOM      7  C   UNL     1       1.440   2.508  18.449  0.00  0.00    +0.000 A 
ATOM      8  F   UNL     1       0.342   1.749  18.349  0.00  0.00    +0.000 F 
ATOM      9  C   UNL     1       2.637   1.930  18.861  0.00  0.00    +0.000 A 
ATOM     10  C   UNL     1       3.788   2.715  18.956  0.00  0.00    +0.000 A 
ENDBRANCH   1   4
BRANCH   1  16
ATOM     11  C   UNL     1       7.550   6.879  17.336  0.00  0.00    +0.000 C 
ATOM     12  C   UNL     1       6.787   5.852  16.581  0.00  0.00    +0.000 A 
ATOM     13  N   UNL     1       6.991   5.556  15.307  0.00  0.00    +0.000 NA
ATOM     14  C   UNL     1       6.059   4.587  14.989  0.00  0.00    +0.000 A 
ATOM     15  C   UNL     1       5.295   4.259  16.089  0.00  0.00    +0.000 A 
ATOM     16  N   UNL     1       5.753   5.092  17.076  0.00  0.00    +0.000 N 
BRANCH  14  17
ATOM     17  N   UNL     1       5.967   4.036  13.653  0.00  0.00    +0.000 N 
ATOM     18  O   UNL     1       7.036   3.899  13.040  0.00  0.00    +0.000 OA
ATOM     19  O   UNL     1       4.844   3.748  13.223  0.00  0.00    +0.000 OA
ENDBRANCH  14  17
ENDBRANCH   1  16
TORSDOF 3
ENDMDL
MODEL 8
REMARK VINA RESULT:      -7.3      3.756      5.890
REMARK  Name = 
REMARK  4 active torsions:
REMARK  status: ('A' for Active; 'I' for Inactive)
REMARK    1  A    between atoms: C_1  and  C_2
REMARK    2  A    between atoms: C_4  and  N_5
REMARK    3  A    between atoms: N_9  and  S_10
REMARK    4  A    between atoms: S_10  and  C_13
REMARK                            x       y       z     vdW  Elec       q    Type
REMARK                         _______ _______ _______ _____ _____    ______ ____
ROOT
ATOM      1  S   UNL     1       4.425   3.746  18.524  0.00  0.00    +0.000 S 
ATOM      2  O   UNL     1       5.328   3.607  19.648  0.00  0.00    +0.000 OA
ATOM      3  O   UNL     1       3.522   2.683  18.127  0.00  0.00    +0.000 OA
ENDROOT
BRANCH   1   4
ATOM      4  C   UNL     1       5.353   4.228  17.091  0.00  0.00    +0.000 A 
ATOM      5  C   UNL     1       6.665   4.694  17.240  0.00  0.00    +0.000 A 
ATOM      6  C   UNL     1       7.417   5.006  16.106  0.00  0.00    +0.000 A 
ATOM      7  C   UNL     1       6.859   4.840  14.842  0.00  0.00    +0.000 A 
ATOM      8  F   UNL     1       7.587   5.128  13.756  0.00  0.00    +0.000 F 
ATOM      9  C   UNL     1       5.560   4.364  14.688  0.00  0.00    +0.000 A 
ATOM     10  C   UNL     1       4.799   4.050  15.817  0.00  0.00    +0.000 A 
ENDBRANCH   1   4
BRANCH   1  16
ATOM     11  C   UNL     1       2.357   4.163  21.011  0.00  0.00    +0.000 C 
ATOM     12  C   UNL     1       2.613   5.205  19.984  0.00  0.00    +0.000 A 
ATOM     13  N   UNL     1       2.052   6.404  19.978  0.00  0.00    +0.000 NA
ATOM     14  C   UNL     1       2.526   7.039  18.847  0.00  0.00    +0.000 A 
ATOM     15  C   UNL     1       3.415   6.235  18.167  0.00  0.00    +0.000 A 
ATOM     16  N   UNL     1       3.432   5.069  18.888  0.00  0.00    +0.000 N 
BRANCH  14  17
ATOM     17  N   UNL     1       2.100   8.378  18.498  0.00  0.00    +0.000 N 
ATOM     18  O   UNL     1       1.481   9.004  19.370  0.00  0.00    +0.000 OA
ATOM     19  O   UNL     1       2.377   8.796  17.367  0.00  0.00    +0.000 OA
ENDBRANCH  14  17
ENDBRANCH   1  16
TORSDOF 3
ENDMDL
MODEL 9
REMARK VINA RESULT:      -7.2      1.304      1.373
REMARK  Name = 
REMARK  4 active torsions:
REMARK  status: ('A' for Active; 'I' for Inactive)
REMARK    1  A    between atoms: C_1  and  C_2
REMARK    2  A    between atoms: C_4  and  N_5
REMARK    3  A    between atoms: N_9  and  S_10
REMARK    4  A    between atoms: S_10  and  C_13
REMARK                            x       y       z     vdW  Elec       q    Type
REMARK                         _______ _______ _______ _____ _____    ______ ____
ROOT
ATOM      1  S   UNL     1       3.224   4.043  18.119  0.00  0.00    +0.000 S 
ATOM      2  O   UNL     1       2.264   3.653  17.106  0.00  0.00    +0.000 OA
ATOM      3  O   UNL     1       3.618   3.149  19.191  0.00  0.00    +0.000 OA
ENDROOT
BRANCH   1   4
ATOM      4  C   UNL     1       2.701   5.569  18.855  0.00  0.00    +0.000 A 
ATOM      5  C   UNL     1       2.749   6.752  18.106  0.00  0.00    +0.000 A 
ATOM      6  C   UNL     1       2.271   7.939  18.664  0.00  0.00    +0.000 A 
ATOM      7  C   UNL     1       1.743   7.932  19.952  0.00  0.00    +0.000 A 
ATOM      8  F   UNL     1       1.275   9.071  20.478  0.00  0.00    +0.000 F 
ATOM      9  C   UNL     1       1.680   6.757  20.695  0.00  0.00    +0.000 A 
ATOM     10  C   UNL     1       2.157   5.565  20.146  0.00  0.00    +0.000 A 
ENDBRANCH   1   4
BRANCH   1  16
ATOM     11  C   UNL     1       6.060   5.173  19.267  0.00  0.00    +0.000 C 
ATOM     12  C   UNL     1       5.838   4.838  17.838  0.00  0.00    +0.000 A 
ATOM     13  N   UNL     1       6.759   4.942  16.893  0.00  0.00    +0.000 NA
ATOM     14  C   UNL     1       6.139   4.571  15.716  0.00  0.00    +0.000 A 
ATOM     15  C   UNL     1       4.831   4.203  15.943  0.00  0.00    +0.000 A 
ATOM     16  N   UNL     1       4.653   4.407  17.287  0.00  0.00    +0.000 N 
BRANCH  14  17
ATOM     17  N   UNL     1       6.845   4.589  14.452  0.00  0.00    +0.000 N 
ATOM     18  O   UNL     1       7.777   5.401  14.353  0.00  0.00    +0.000 OA
ATOM     19  O   UNL     1       6.471   3.806  13.570  0.00  0.00    +0.000 OA
ENDBRANCH  14  17
ENDBRANCH   1  16
TORSDOF 3
ENDMDL
