MODEL 1
REMARK VINA RESULT:      -6.4      0.000      0.000
REMARK  Name = 
REMARK  6 active torsions:
REMARK  status: ('A' for Active; 'I' for Inactive)
REMARK    1  A    between atoms: C_1  and  C_2
REMARK    2  A    between atoms: C_5  and  C_6
REMARK    3  A    between atoms: N_7  and  N_8
REMARK    4  A    between atoms: N_8  and  C_9
REMARK    5  A    between atoms: C_12  and  C_13
REMARK    6  A    between atoms: C_13  and  O_15
REMARK                            x       y       z     vdW  Elec       q    Type
REMARK                         _______ _______ _______ _____ _____    ______ ____
ROOT
ATOM      1  N   UNL     1       7.929   8.365  17.275  0.00  0.00    +0.000 N 
ATOM      2  H   UNL     1       8.442   8.346  16.396  0.00  0.00    +0.000 HD
ENDROOT
BRANCH   1   3
ATOM      3  C   UNL     1       7.171   7.217  17.577  0.00  0.00    +0.000 A 
ATOM      4  C   UNL     1       7.588   6.289  18.544  0.00  0.00    +0.000 A 
ATOM      5  C   UNL     1       6.786   5.206  18.910  0.00  0.00    +0.000 A 
ATOM      6  C   UNL     1       5.531   5.026  18.321  0.00  0.00    +0.000 A 
ATOM      7  C   UNL     1       5.086   5.950  17.369  0.00  0.00    +0.000 A 
ATOM      8  C   UNL     1       5.901   7.036  17.003  0.00  0.00    +0.000 A 
BRANCH   6   9
ATOM      9  C   UNL     1       4.706   3.884  18.803  0.00  0.00    +0.000 C 
ATOM     10  O   UNL     1       3.516   3.782  18.558  0.00  0.00    +0.000 OA
BRANCH   9  11
ATOM     11  O   UNL     1       5.374   2.991  19.560  0.00  0.00    +0.000 OA
ATOM     12  H   UNL     1       5.387   2.079  19.223  0.00  0.00    +0.000 HD
ENDBRANCH   9  11
ENDBRANCH   6   9
ENDBRANCH   1   3
BRANCH   1  14
ATOM     13  C   UNL     1       8.928  10.261  18.011  0.00  0.00    +0.000 C 
ATOM     14  N   UNL     1       8.331   9.149  18.310  0.00  0.00    +0.000 NA
BRANCH  13  19
ATOM     15  C   UNL     1      10.459  14.486  20.809  0.00  0.00    +0.000 C 
ATOM     16  C   UNL     1      10.067  13.113  20.382  0.00  0.00    +0.000 A 
ATOM     17  C   UNL     1      10.019  11.967  21.149  0.00  0.00    +0.000 A 
ATOM     18  C   UNL     1       9.604  10.835  20.394  0.00  0.00    +0.000 A 
ATOM     19  C   UNL     1       9.355  11.144  19.073  0.00  0.00    +0.000 A 
ATOM     20  S   UNL     1       9.604  12.805  18.761  0.00  0.00    +0.000 S 
ENDBRANCH  13  19
ENDBRANCH   1  14
TORSDOF 5
ENDMDL
MODEL 2
REMARK VINA RESULT:      -6.4      6.378      7.365
REMARK  Name = 
REMARK  6 active torsions:
REMARK  status: ('A' for Active; 'I' for Inactive)
REMARK    1  A    between atoms: C_1  and  C_2
REMARK    2  A    between atoms: C_5  and  C_6
REMARK    3  A    between atoms: N_7  and  N_8
REMARK    4  A    between atoms: N_8  and  C_9
REMARK    5  A    between atoms: C_12  and  C_13
REMARK    6  A    between atoms: C_13  and  O_15
REMARK                            x       y       z     vdW  Elec       q    Type
REMARK                         _______ _______ _______ _____ _____    ______ ____
ROOT
ATOM      1  N   UNL     1       2.238   7.767  19.051  0.00  0.00    +0.000 N 
ATOM      2  H   UNL     1       2.701   8.397  18.400  0.00  0.00    +0.000 HD
ENDROOT
BRANCH   1   3
ATOM      3  C   UNL     1       2.739   6.451  19.105  0.00  0.00    +0.000 A 
ATOM      4  C   UNL     1       2.413   5.579  20.155  0.00  0.00    +0.000 A 
ATOM      5  C   UNL     1       2.830   4.247  20.154  0.00  0.00    +0.000 A 
ATOM      6  C   UNL     1       3.582   3.743  19.089  0.00  0.00    +0.000 A 
ATOM      7  C   UNL     1       3.901   4.589  18.020  0.00  0.00    +0.000 A 
ATOM      8  C   UNL     1       3.481   5.931  18.031  0.00  0.00    +0.000 A 
BRANCH   6   9
ATOM      9  C   UNL     1       3.941   2.299  19.126  0.00  0.00    +0.000 C 
ATOM     10  O   UNL     1       3.293   1.444  18.545  0.00  0.00    +0.000 OA
BRANCH   9  11
ATOM     11  O   UNL     1       5.019   2.009  19.881  0.00  0.00    +0.000 OA
ATOM     12  H   UNL     1       4.950   2.245  20.822  0.00  0.00    +0.000 HD
ENDBRANCH   9  11
ENDBRANCH   6   9
ENDBRANCH   1   3
BRANCH   1  14
ATOM     13  C   UNL     1       0.922   9.348  20.000  0.00  0.00    +0.000 C 
ATOM     14  N   UNL     1       1.579   8.239  20.142  0.00  0.00    +0.000 NA
BRANCH  13  19
ATOM     15  C   UNL     1      -1.991  12.427  23.171  0.00  0.00    +0.000 C 
ATOM     16  C   UNL     1      -1.177  11.315  22.603  0.00  0.00    +0.000 A 
ATOM     17  C   UNL     1      -0.789  10.146  23.222  0.00  0.00    +0.000 A 
ATOM     18  C   UNL     1      -0.009   9.320  22.365  0.00  0.00    +0.000 A 
ATOM     19  C   UNL     1       0.183   9.882  21.121  0.00  0.00    +0.000 A 
ATOM     20  S   UNL     1      -0.599  11.396  20.992  0.00  0.00    +0.000 S 
ENDBRANCH  13  19
ENDBRANCH   1  14
TORSDOF 5
ENDMDL
MODEL 3
REMARK VINA RESULT:      -6.3      7.971      9.976
REMARK  Name = 
REMARK  6 active torsions:
REMARK  status: ('A' for Active; 'I' for Inactive)
REMARK    1  A    between atoms: C_1  and  C_2
REMARK    2  A    between atoms: C_5  and  C_6
REMARK    3  A    between atoms: N_7  and  N_8
REMARK    4  A    between atoms: N_8  and  C_9
REMARK    5  A    between atoms: C_12  and  C_13
REMARK    6  A    between atoms: C_13  and  O_15
REMARK                            x       y       z     vdW  Elec       q    Type
REMARK                         _______ _______ _______ _____ _____    ______ ____
ROOT
ATOM      1  N   UNL     1       1.886   8.142  20.754  0.00  0.00    +0.000 N 
ATOM      2  H   UNL     1       2.594   8.506  21.388  0.00  0.00    +0.000 HD
ENDROOT
BRANCH   1   3
ATOM      3  C   UNL     1       1.052   9.098  20.139  0.00  0.00    +0.000 A 
ATOM      4  C   UNL     1       1.071   9.311  18.753  0.00  0.00    +0.000 A 
ATOM      5  C   UNL     1       0.175  10.186  18.136  0.00  0.00    +0.000 A 
ATOM      6  C   UNL     1      -0.779  10.870  18.895  0.00  0.00    +0.000 A 
ATOM      7  C   UNL     1      -0.829  10.657  20.278  0.00  0.00    +0.000 A 
ATOM      8  C   UNL     1       0.080   9.777  20.891  0.00  0.00    +0.000 A 
BRANCH   6   9
ATOM      9  C   UNL     1      -1.740  11.741  18.165  0.00  0.00    +0.000 C 
ATOM     10  O   UNL     1      -2.949  11.617  18.266  0.00  0.00    +0.000 OA
BRANCH   9  11
ATOM     11  O   UNL     1      -1.165  12.655  17.356  0.00  0.00    +0.000 OA
ATOM     12  H   UNL     1      -1.709  12.956  16.608  0.00  0.00    +0.000 HD
ENDBRANCH   9  11
ENDBRANCH   6   9
ENDBRANCH   1   3
BRANCH   1  14
ATOM     13  C   UNL     1       1.680   5.886  20.785  0.00  0.00    +0.000 C 
ATOM     14  N   UNL     1       2.045   6.945  20.131  0.00  0.00    +0.000 NA
BRANCH  13  19
ATOM     15  C   UNL     1       3.473   1.657  18.153  0.00  0.00    +0.000 C 
ATOM     16  C   UNL     1       2.638   2.614  18.934  0.00  0.00    +0.000 A 
ATOM     17  C   UNL     1       1.345   2.441  19.383  0.00  0.00    +0.000 A 
ATOM     18  C   UNL     1       0.869   3.578  20.093  0.00  0.00    +0.000 A 
ATOM     19  C   UNL     1       1.805   4.589  20.160  0.00  0.00    +0.000 A 
ATOM     20  S   UNL     1       3.260   4.146  19.381  0.00  0.00    +0.000 S 
ENDBRANCH  13  19
ENDBRANCH   1  14
TORSDOF 5
ENDMDL
MODEL 4
REMARK VINA RESULT:      -6.3      6.104      6.829
REMARK  Name = 
REMARK  6 active torsions:
REMARK  status: ('A' for Active; 'I' for Inactive)
REMARK    1  A    between atoms: C_1  and  C_2
REMARK    2  A    between atoms: C_5  and  C_6
REMARK    3  A    between atoms: N_7  and  N_8
REMARK    4  A    between atoms: N_8  and  C_9
REMARK    5  A    between atoms: C_12  and  C_13
REMARK    6  A    between atoms: C_13  and  O_15
REMARK                            x       y       z     vdW  Elec       q    Type
REMARK                         _______ _______ _______ _____ _____    ______ ____
ROOT
ATOM      1  N   UNL     1       3.105   5.339  18.756  0.00  0.00    +0.000 N 
ATOM      2  H   UNL     1       2.747   4.480  19.167  0.00  0.00    +0.000 HD
ENDROOT
BRANCH   1   3
ATOM      3  C   UNL     1       4.077   5.189  17.747  0.00  0.00    +0.000 A 
ATOM      4  C   UNL     1       4.435   3.927  17.250  0.00  0.00    +0.000 A 
ATOM      5  C   UNL     1       5.325   3.788  16.183  0.00  0.00    +0.000 A 
ATOM      6  C   UNL     1       5.876   4.918  15.572  0.00  0.00    +0.000 A 
ATOM      7  C   UNL     1       5.517   6.188  16.038  0.00  0.00    +0.000 A 
ATOM      8  C   UNL     1       4.623   6.319  17.116  0.00  0.00    +0.000 A 
BRANCH   6   9
ATOM      9  C   UNL     1       6.770   4.698  14.402  0.00  0.00    +0.000 C 
ATOM     10  O   UNL     1       7.687   5.452  14.122  0.00  0.00    +0.000 OA
BRANCH   9  11
ATOM     11  O   UNL     1       6.462   3.616  13.659  0.00  0.00    +0.000 OA
ATOM     12  H   UNL     1       5.802   3.760  12.959  0.00  0.00    +0.000 HD
ENDBRANCH   9  11
ENDBRANCH   6   9
ENDBRANCH   1   3
BRANCH   1  14
ATOM     13  C   UNL     1       2.270   7.112  19.895  0.00  0.00    +0.000 C 
ATOM     14  N   UNL     1       2.371   6.484  18.765  0.00  0.00    +0.000 NA
BRANCH  13  19
ATOM     15  C   UNL     1       0.062  11.784  18.748  0.00  0.00    +0.000 C 
ATOM     16  C   UNL     1       0.489  10.525  19.423  0.00  0.00    +0.000 A 
ATOM     17  C   UNL     1       0.186  10.104  20.701  0.00  0.00    +0.000 A 
ATOM     18  C   UNL     1       0.779   8.846  21.004  0.00  0.00    +0.000 A 
ATOM     19  C   UNL     1       1.522   8.346  19.955  0.00  0.00    +0.000 A 
ATOM     20  S   UNL     1       1.480   9.393  18.604  0.00  0.00    +0.000 S 
ENDBRANCH  13  19
ENDBRANCH   1  14
TORSDOF 5
ENDMDL
MODEL 5
REMARK VINA RESULT:      -6.3      1.124      1.299
REMARK  Name = 
REMARK  6 active torsions:
REMARK  status: ('A' for Active; 'I' for Inactive)
REMARK    1  A    between atoms: C_1  and  C_2
REMARK    2  A    between atoms: C_5  and  C_6
REMARK    3  A    between atoms: N_7  and  N_8
REMARK    4  A    between atoms: N_8  and  C_9
REMARK    5  A    between atoms: C_12  and  C_13
REMARK    6  A    between atoms: C_13  and  O_15
REMARK                            x       y       z     vdW  Elec       q    Type
REMARK                         _______ _______ _______ _____ _____    ______ ____
ROOT
ATOM      1  N   UNL     1       7.631   7.515  17.089  0.00  0.00    +0.000 N 
ATOM      2  H   UNL     1       8.052   7.183  16.224  0.00  0.00    +0.000 HD
ENDROOT
BRANCH   1   3
ATOM      3  C   UNL     1       6.598   6.718  17.622  0.00  0.00    +0.000 A 
ATOM      4  C   UNL     1       6.833   5.799  18.656  0.00  0.00    +0.000 A 
ATOM      5  C   UNL     1       5.791   5.085  19.249  0.00  0.00    +0.000 A 
ATOM      6  C   UNL     1       4.472   5.278  18.827  0.00  0.00    +0.000 A 
ATOM      7  C   UNL     1       4.212   6.205  17.811  0.00  0.00    +0.000 A 
ATOM      8  C   UNL     1       5.268   6.918  17.217  0.00  0.00    +0.000 A 
BRANCH   6   9
ATOM      9  C   UNL     1       3.406   4.527  19.544  0.00  0.00    +0.000 C 
ATOM     10  O   UNL     1       3.043   3.413  19.205  0.00  0.00    +0.000 OA
BRANCH   9  11
ATOM     11  O   UNL     1       2.851   5.191  20.578  0.00  0.00    +0.000 OA
ATOM     12  H   UNL     1       2.056   4.783  20.962  0.00  0.00    +0.000 HD
ENDBRANCH   9  11
ENDBRANCH   6   9
ENDBRANCH   1   3
BRANCH   1  14
ATOM     13  C   UNL     1       8.303   9.594  17.689  0.00  0.00    +0.000 C 
ATOM     14  N   UNL     1       8.314   8.322  17.942  0.00  0.00    +0.000 NA
BRANCH  13  19
ATOM     15  C   UNL     1      10.945  13.711  19.711  0.00  0.00    +0.000 C 
ATOM     16  C   UNL     1      10.225  12.419  19.526  0.00  0.00    +0.000 A 
ATOM     17  C   UNL     1       9.976  11.443  20.469  0.00  0.00    +0.000 A 
ATOM     18  C   UNL     1       9.263  10.340  19.921  0.00  0.00    +0.000 A 
ATOM     19  C   UNL     1       8.993  10.499  18.578  0.00  0.00    +0.000 A 
ATOM     20  S   UNL     1       9.587  11.992  17.994  0.00  0.00    +0.000 S 
ENDBRANCH  13  19
ENDBRANCH   1  14
TORSDOF 5
ENDMDL
MODEL 6
REMARK VINA RESULT:      -6.2      6.044      7.225
REMARK  Name = 
REMARK  6 active torsions:
REMARK  status: ('A' for Active; 'I' for Inactive)
REMARK    1  A    between atoms: C_1  and  C_2
REMARK    2  A    between atoms: C_5  and  C_6
REMARK    3  A    between atoms: N_7  and  N_8
REMARK    4  A    between atoms: N_8  and  C_9
REMARK    5  A    between atoms: C_12  and  C_13
REMARK    6  A    between atoms: C_13  and  O_15
REMARK                            x       y       z     vdW  Elec       q    Type
REMARK                         _______ _______ _______ _____ _____    ______ ____
ROOT
ATOM      1  N   UNL     1       2.351   6.233  19.973  0.00  0.00    +0.000 N 
ATOM      2  H   UNL     1       1.795   5.398  20.145  0.00  0.00    +0.000 HD
ENDROOT
BRANCH   1   3
ATOM      3  C   UNL     1       3.482   6.068  19.150  0.00  0.00    +0.000 A 
ATOM      4  C   UNL     1       3.649   6.806  17.968  0.00  0.00    +0.000 A 
ATOM      5  C   UNL     1       4.816   6.712  17.207  0.00  0.00    +0.000 A 
ATOM      6  C   UNL     1       5.860   5.879  17.616  0.00  0.00    +0.000 A 
ATOM      7  C   UNL     1       5.725   5.149  18.803  0.00  0.00    +0.000 A 
ATOM      8  C   UNL     1       4.544   5.246  19.561  0.00  0.00    +0.000 A 
BRANCH   6   9
ATOM      9  C   UNL     1       7.098   5.874  16.788  0.00  0.00    +0.000 C 
ATOM     10  O   UNL     1       7.726   6.889  16.537  0.00  0.00    +0.000 OA
BRANCH   9  11
ATOM     11  O   UNL     1       7.447   4.663  16.311  0.00  0.00    +0.000 OA
ATOM     12  H   UNL     1       8.390   4.435  16.391  0.00  0.00    +0.000 HD
ENDBRANCH   9  11
ENDBRANCH   6   9
ENDBRANCH   1   3
BRANCH   1  14
ATOM     13  C   UNL     1       1.299   7.819  21.202  0.00  0.00    +0.000 C 
ATOM     14  N   UNL     1       1.805   7.475  20.060  0.00  0.00    +0.000 NA
BRANCH  13  19
ATOM     15  C   UNL     1      -1.381  12.029  22.969  0.00  0.00    +0.000 C 
ATOM     16  C   UNL     1      -0.520  11.104  22.177  0.00  0.00    +0.000 A 
ATOM     17  C   UNL     1       0.145  11.365  20.998  0.00  0.00    +0.000 A 
ATOM     18  C   UNL     1       0.867  10.232  20.528  0.00  0.00    +0.000 A 
ATOM     19  C   UNL     1       0.727   9.137  21.356  0.00  0.00    +0.000 A 
ATOM     20  S   UNL     1      -0.259   9.495  22.705  0.00  0.00    +0.000 S 
ENDBRANCH  13  19
ENDBRANCH   1  14
TORSDOF 5
ENDMDL
MODEL 7
REMARK VINA RESULT:      -6.2      5.856      6.672
REMARK  Name = 
REMARK  6 active torsions:
REMARK  status: ('A' for Active; 'I' for Inactive)
REMARK    1  A    between atoms: C_1  and  C_2
REMARK    2  A    between atoms: C_5  and  C_6
REMARK    3  A    between atoms: N_7  and  N_8
REMARK    4  A    between atoms: N_8  and  C_9
REMARK    5  A    between atoms: C_12  and  C_13
REMARK    6  A    between atoms: C_13  and  O_15
REMARK                            x       y       z     vdW  Elec       q    Type
REMARK                         _______ _______ _______ _____ _____    ______ ____
ROOT
ATOM      1  N   UNL     1       4.358   4.712  19.319  0.00  0.00    +0.000 N 
ATOM      2  H   UNL     1       3.972   3.847  19.690  0.00  0.00    +0.000 HD
ENDROOT
BRANCH   1   3
ATOM      3  C   UNL     1       5.054   4.608  18.098  0.00  0.00    +0.000 A 
ATOM      4  C   UNL     1       4.464   4.043  16.957  0.00  0.00    +0.000 A 
ATOM      5  C   UNL     1       5.121   4.032  15.725  0.00  0.00    +0.000 A 
ATOM      6  C   UNL     1       6.392   4.599  15.598  0.00  0.00    +0.000 A 
ATOM      7  C   UNL     1       6.991   5.187  16.718  0.00  0.00    +0.000 A 
ATOM      8  C   UNL     1       6.325   5.190  17.956  0.00  0.00    +0.000 A 
BRANCH   6   9
ATOM      9  C   UNL     1       7.007   4.605  14.242  0.00  0.00    +0.000 C 
ATOM     10  O   UNL     1       7.842   5.427  13.900  0.00  0.00    +0.000 OA
BRANCH   9  11
ATOM     11  O   UNL     1       6.541   3.650  13.412  0.00  0.00    +0.000 OA
ATOM     12  H   UNL     1       5.593   3.702  13.200  0.00  0.00    +0.000 HD
ENDBRANCH   9  11
ENDBRANCH   6   9
ENDBRANCH   1   3
BRANCH   1  14
ATOM     13  C   UNL     1       2.643   6.187  19.185  0.00  0.00    +0.000 C 
ATOM     14  N   UNL     1       3.825   5.919  19.645  0.00  0.00    +0.000 NA
BRANCH  13  19
ATOM     15  C   UNL     1       0.736  11.122  19.027  0.00  0.00    +0.000 C 
ATOM     16  C   UNL     1       1.128   9.748  19.451  0.00  0.00    +0.000 A 
ATOM     17  C   UNL     1       0.945   9.156  20.683  0.00  0.00    +0.000 A 
ATOM     18  C   UNL     1       1.456   7.828  20.720  0.00  0.00    +0.000 A 
ATOM     19  C   UNL     1       2.020   7.446  19.521  0.00  0.00    +0.000 A 
ATOM     20  S   UNL     1       1.909   8.689  18.353  0.00  0.00    +0.000 S 
ENDBRANCH  13  19
ENDBRANCH   1  14
TORSDOF 5
ENDMDL
MODEL 8
REMARK VINA RESULT:      -6.2      2.010      2.279
REMARK  Name = 
REMARK  6 active torsions:
REMARK  status: ('A' for Active; 'I' for Inactive)
REMARK    1  A    between atoms: C_1  and  C_2
REMARK    2  A    between atoms: C_5  and  C_6
REMARK    3  A    between atoms: N_7  and  N_8
REMARK    4  A    between atoms: N_8  and  C_9
REMARK    5  A    between atoms: C_12  and  C_13
REMARK    6  A    between atoms: C_13  and  O_15
REMARK                            x       y       z     vdW  Elec       q    Type
REMARK                         _______ _______ _______ _____ _____    ______ ____
ROOT
ATOM      1  N   UNL     1       8.530   7.983  18.973  0.00  0.00    +0.000 N 
ATOM      2  H   UNL     1       8.565   7.874  19.984  0.00  0.00    +0.000 HD
ENDROOT
BRANCH   1   3
ATOM      3  C   UNL     1       7.817   6.994  18.266  0.00  0.00    +0.000 A 
ATOM      4  C   UNL     1       7.851   5.644  18.647  0.00  0.00    +0.000 A 
ATOM      5  C   UNL     1       7.065   4.685  18.006  0.00  0.00    +0.000 A 
ATOM      6  C   UNL     1       6.210   5.054  16.964  0.00  0.00    +0.000 A 
ATOM      7  C   UNL     1       6.144   6.399  16.581  0.00  0.00    +0.000 A 
ATOM      8  C   UNL     1       6.942   7.358  17.229  0.00  0.00    +0.000 A 
BRANCH   6   9
ATOM      9  C   UNL     1       5.358   3.989  16.367  0.00  0.00    +0.000 C 
ATOM     10  O   UNL     1       4.164   3.894  16.597  0.00  0.00    +0.000 OA
BRANCH   9  11
ATOM     11  O   UNL     1       6.020   3.120  15.577  0.00  0.00    +0.000 OA
ATOM     12  H   UNL     1       6.855   2.775  15.938  0.00  0.00    +0.000 HD
ENDBRANCH   9  11
ENDBRANCH   6   9
ENDBRANCH   1   3
BRANCH   1  14
ATOM     13  C   UNL     1       9.415  10.068  19.005  0.00  0.00    +0.000 C 
ATOM     14  N   UNL     1       8.674   9.201  18.389  0.00  0.00    +0.000 NA
BRANCH  13  19
ATOM     15  C   UNL     1      11.586  14.465  17.012  0.00  0.00    +0.000 C 
ATOM     16  C   UNL     1      10.629  13.424  17.484  0.00  0.00    +0.000 A 
ATOM     17  C   UNL     1       9.251  13.478  17.490  0.00  0.00    +0.000 A 
ATOM     18  C   UNL     1       8.672  12.292  18.024  0.00  0.00    +0.000 A 
ATOM     19  C   UNL     1       9.621  11.371  18.416  0.00  0.00    +0.000 A 
ATOM     20  S   UNL     1      11.205  11.939  18.117  0.00  0.00    +0.000 S 
ENDBRANCH  13  19
ENDBRANCH   1  14
TORSDOF 5
ENDMDL
MODEL 9
REMARK VINA RESULT:      -6.2      6.046      7.598
REMARK  Name = 
REMARK  6 active torsions:
REMARK  status: ('A' for Active; 'I' for Inactive)
REMARK    1  A    between atoms: C_1  and  C_2
REMARK    2  A    between atoms: C_5  and  C_6
REMARK    3  A    between atoms: N_7  and  N_8
REMARK    4  A    between atoms: N_8  and  C_9
REMARK    5  A    between atoms: C_12  and  C_13
REMARK    6  A    between atoms: C_13  and  O_15
REMARK                            x       y       z     vdW  Elec       q    Type
REMARK                         _______ _______ _______ _____ _____    ______ ____
ROOT
ATOM      1  N   UNL     1       6.094   5.091  18.396  0.00  0.00    +0.000 N 
ATOM      2  H   UNL     1       6.428   6.020  18.641  0.00  0.00    +0.000 HD
ENDROOT
BRANCH   1   3
ATOM      3  C   UNL     1       5.003   4.605  19.144  0.00  0.00    +0.000 A 
ATOM      4  C   UNL     1       3.946   5.441  19.536  0.00  0.00    +0.000 A 
ATOM      5  C   UNL     1       2.821   4.936  20.191  0.00  0.00    +0.000 A 
ATOM      6  C   UNL     1       2.718   3.569  20.465  0.00  0.00    +0.000 A 
ATOM      7  C   UNL     1       3.751   2.714  20.065  0.00  0.00    +0.000 A 
ATOM      8  C   UNL     1       4.882   3.231  19.409  0.00  0.00    +0.000 A 
BRANCH   6   9
ATOM      9  C   UNL     1       1.464   3.093  21.112  0.00  0.00    +0.000 C 
ATOM     10  O   UNL     1       1.449   2.572  22.215  0.00  0.00    +0.000 OA
BRANCH   9  11
ATOM     11  O   UNL     1       0.353   3.255  20.366  0.00  0.00    +0.000 OA
ATOM     12  H   UNL     1      -0.476   2.950  20.774  0.00  0.00    +0.000 HD
ENDBRANCH   9  11
ENDBRANCH   6   9
ENDBRANCH   1   3
BRANCH   1  14
ATOM     13  C   UNL     1       6.286   5.409  16.161  0.00  0.00    +0.000 C 
ATOM     14  N   UNL     1       6.291   4.575  17.154  0.00  0.00    +0.000 NA
BRANCH  13  19
ATOM     15  C   UNL     1       5.981   2.741  11.599  0.00  0.00    +0.000 C 
ATOM     16  C   UNL     1       6.375   3.676  12.691  0.00  0.00    +0.000 A 
ATOM     17  C   UNL     1       7.408   4.589  12.695  0.00  0.00    +0.000 A 
ATOM     18  C   UNL     1       7.485   5.306  13.922  0.00  0.00    +0.000 A 
ATOM     19  C   UNL     1       6.514   4.917  14.822  0.00  0.00    +0.000 A 
ATOM     20  S   UNL     1       5.506   3.702  14.168  0.00  0.00    +0.000 S 
ENDBRANCH  13  19
ENDBRANCH   1  14
TORSDOF 5
ENDMDL
