MODEL 1
REMARK VINA RESULT:      -7.8      0.000      0.000
REMARK  Name = 
REMARK  4 active torsions:
REMARK  status: ('A' for Active; 'I' for Inactive)
REMARK    1  A    between atoms: C_1  and  N_2
REMARK    2  A    between atoms: N_2  and  C_3
REMARK    3  A    between atoms: N_2  and  C_11
REMARK    4  A    between atoms: C_3  and  C_4
REMARK                            x       y       z     vdW  Elec       q    Type
REMARK                         _______ _______ _______ _____ _____    ______ ____
ROOT
ATOM      1  C   UNL     1       4.533   5.166  18.280  0.00  0.00    +0.000 A 
ATOM      2  N   UNL     1       4.337   6.406  17.783  0.00  0.00    +0.000 NA
ATOM      3  C   UNL     1       3.263   7.081  18.198  0.00  0.00    +0.000 A 
ATOM      4  N   UNL     1       2.336   6.636  19.045  0.00  0.00    +0.000 NA
ATOM      5  C   UNL     1       2.531   5.418  19.553  0.00  0.00    +0.000 A 
ATOM      6  C   UNL     1       1.580   4.954  20.458  0.00  0.00    +0.000 A 
ATOM      7  C   UNL     1       1.687   3.708  21.073  0.00  0.00    +0.000 A 
ATOM      8  C   UNL     1       2.790   2.917  20.804  0.00  0.00    +0.000 A 
ATOM      9  C   UNL     1       3.756   3.374  19.909  0.00  0.00    +0.000 A 
ATOM     10  F   UNL     1       4.830   2.588  19.748  0.00  0.00    +0.000 F 
ATOM     11  C   UNL     1       3.638   4.613  19.230  0.00  0.00    +0.000 A 
ENDROOT
BRANCH   1  13
ATOM     12  C   UNL     1       6.929   4.953  18.375  0.00  0.00    +0.000 C 
ATOM     13  N   UNL     1       5.667   4.475  17.817  0.00  0.00    +0.000 N 
BRANCH  13  14
ATOM     14  C   UNL     1       5.628   4.081  16.389  0.00  0.00    +0.000 C 
BRANCH  14  15
ATOM     15  C   UNL     1       6.620   4.811  15.468  0.00  0.00    +0.000 C 
ATOM     16  O   UNL     1       7.442   5.606  15.936  0.00  0.00    +0.000 OA
ATOM     17  N   UNL     1       6.588   4.551  14.115  0.00  0.00    +0.000 N 
ATOM     18  C   UNL     1       5.669   3.707  13.378  0.00  0.00    +0.000 C 
ATOM     19  C   UNL     1       6.487   3.289  12.168  0.00  0.00    +0.000 C 
ATOM     20  C   UNL     1       7.328   4.523  11.863  0.00  0.00    +0.000 C 
ATOM     21  C   UNL     1       7.546   5.179  13.222  0.00  0.00    +0.000 C 
ENDBRANCH  14  15
ENDBRANCH  13  14
ENDBRANCH   1  13
TORSDOF 3
ENDMDL
MODEL 2
REMARK VINA RESULT:      -7.5      2.262      5.966
REMARK  Name = 
REMARK  4 active torsions:
REMARK  status: ('A' for Active; 'I' for Inactive)
REMARK    1  A    between atoms: C_1  and  N_2
REMARK    2  A    between atoms: N_2  and  C_3
REMARK    3  A    between atoms: N_2  and  C_11
REMARK    4  A    between atoms: C_3  and  C_4
REMARK                            x       y       z     vdW  Elec       q    Type
REMARK                         _______ _______ _______ _____ _____    ______ ____
ROOT
ATOM      1  C   UNL     1       5.313   6.273  17.547  0.00  0.00    +0.000 A 
ATOM      2  N   UNL     1       6.178   7.215  17.981  0.00  0.00    +0.000 NA
ATOM      3  C   UNL     1       7.348   7.325  17.347  0.00  0.00    +0.000 A 
ATOM      4  N   UNL     1       7.764   6.570  16.331  0.00  0.00    +0.000 NA
ATOM      5  C   UNL     1       6.908   5.649  15.886  0.00  0.00    +0.000 A 
ATOM      6  C   UNL     1       7.324   4.871  14.809  0.00  0.00    +0.000 A 
ATOM      7  C   UNL     1       6.511   3.893  14.241  0.00  0.00    +0.000 A 
ATOM      8  C   UNL     1       5.233   3.709  14.739  0.00  0.00    +0.000 A 
ATOM      9  C   UNL     1       4.798   4.489  15.809  0.00  0.00    +0.000 A 
ATOM     10  F   UNL     1       3.527   4.305  16.196  0.00  0.00    +0.000 F 
ATOM     11  C   UNL     1       5.630   5.450  16.438  0.00  0.00    +0.000 A 
ENDROOT
BRANCH   1  13
ATOM     12  C   UNL     1       3.258   7.370  18.158  0.00  0.00    +0.000 C 
ATOM     13  N   UNL     1       4.093   6.174  18.240  0.00  0.00    +0.000 N 
BRANCH  13  14
ATOM     14  C   UNL     1       4.154   5.439  19.524  0.00  0.00    +0.000 C 
BRANCH  14  15
ATOM     15  C   UNL     1       4.052   3.908  19.422  0.00  0.00    +0.000 C 
ATOM     16  O   UNL     1       5.050   3.199  19.595  0.00  0.00    +0.000 OA
ATOM     17  N   UNL     1       2.827   3.338  19.151  0.00  0.00    +0.000 N 
ATOM     18  C   UNL     1       1.569   3.996  18.861  0.00  0.00    +0.000 C 
ATOM     19  C   UNL     1       0.539   2.975  19.315  0.00  0.00    +0.000 C 
ATOM     20  C   UNL     1       1.184   1.639  18.968  0.00  0.00    +0.000 C 
ATOM     21  C   UNL     1       2.682   1.893  19.103  0.00  0.00    +0.000 C 
ENDBRANCH  14  15
ENDBRANCH  13  14
ENDBRANCH   1  13
TORSDOF 3
ENDMDL
MODEL 3
REMARK VINA RESULT:      -7.5      2.261      6.657
REMARK  Name = 
REMARK  4 active torsions:
REMARK  status: ('A' for Active; 'I' for Inactive)
REMARK    1  A    between atoms: C_1  and  N_2
REMARK    2  A    between atoms: N_2  and  C_3
REMARK    3  A    between atoms: N_2  and  C_11
REMARK    4  A    between atoms: C_3  and  C_4
REMARK                            x       y       z     vdW  Elec       q    Type
REMARK                         _______ _______ _______ _____ _____    ______ ____
ROOT
ATOM      1  C   UNL     1       5.235   5.028  16.616  0.00  0.00    +0.000 A 
ATOM      2  N   UNL     1       5.857   5.842  17.496  0.00  0.00    +0.000 NA
ATOM      3  C   UNL     1       7.023   6.380  17.130  0.00  0.00    +0.000 A 
ATOM      4  N   UNL     1       7.657   6.170  15.977  0.00  0.00    +0.000 NA
ATOM      5  C   UNL     1       7.041   5.381  15.096  0.00  0.00    +0.000 A 
ATOM      6  C   UNL     1       7.683   5.174  13.879  0.00  0.00    +0.000 A 
ATOM      7  C   UNL     1       7.130   4.388  12.870  0.00  0.00    +0.000 A 
ATOM      8  C   UNL     1       5.883   3.821  13.068  0.00  0.00    +0.000 A 
ATOM      9  C   UNL     1       5.222   4.029  14.277  0.00  0.00    +0.000 A 
ATOM     10  F   UNL     1       3.991   3.507  14.375  0.00  0.00    +0.000 F 
ATOM     11  C   UNL     1       5.793   4.777  15.338  0.00  0.00    +0.000 A 
ENDROOT
BRANCH   1  13
ATOM     12  C   UNL     1       3.106   5.417  17.671  0.00  0.00    +0.000 C 
ATOM     13  N   UNL     1       4.015   4.468  17.033  0.00  0.00    +0.000 N 
BRANCH  13  14
ATOM     14  C   UNL     1       4.104   3.094  17.581  0.00  0.00    +0.000 C 
BRANCH  14  15
ATOM     15  C   UNL     1       4.137   2.989  19.115  0.00  0.00    +0.000 C 
ATOM     16  O   UNL     1       5.202   3.104  19.729  0.00  0.00    +0.000 OA
ATOM     17  N   UNL     1       2.956   2.780  19.793  0.00  0.00    +0.000 N 
ATOM     18  C   UNL     1       1.629   2.560  19.253  0.00  0.00    +0.000 C 
ATOM     19  C   UNL     1       0.722   3.063  20.364  0.00  0.00    +0.000 C 
ATOM     20  C   UNL     1       1.467   2.674  21.636  0.00  0.00    +0.000 C 
ATOM     21  C   UNL     1       2.941   2.731  21.246  0.00  0.00    +0.000 C 
ENDBRANCH  14  15
ENDBRANCH  13  14
ENDBRANCH   1  13
TORSDOF 3
ENDMDL
MODEL 4
REMARK VINA RESULT:      -7.4      1.529      1.640
REMARK  Name = 
REMARK  4 active torsions:
REMARK  status: ('A' for Active; 'I' for Inactive)
REMARK    1  A    between atoms: C_1  and  N_2
REMARK    2  A    between atoms: N_2  and  C_3
REMARK    3  A    between atoms: N_2  and  C_11
REMARK    4  A    between atoms: C_3  and  C_4
REMARK                            x       y       z     vdW  Elec       q    Type
REMARK                         _______ _______ _______ _____ _____    ______ ____
ROOT
ATOM      1  C   UNL     1       4.301   5.180  17.257  0.00  0.00    +0.000 A 
ATOM      2  N   UNL     1       4.239   6.503  17.523  0.00  0.00    +0.000 NA
ATOM      3  C   UNL     1       3.231   6.939  18.282  0.00  0.00    +0.000 A 
ATOM      4  N   UNL     1       2.250   6.192  18.789  0.00  0.00    +0.000 NA
ATOM      5  C   UNL     1       2.315   4.883  18.545  0.00  0.00    +0.000 A 
ATOM      6  C   UNL     1       1.308   4.090  19.091  0.00  0.00    +0.000 A 
ATOM      7  C   UNL     1       1.279   2.707  18.925  0.00  0.00    +0.000 A 
ATOM      8  C   UNL     1       2.301   2.093  18.223  0.00  0.00    +0.000 A 
ATOM      9  C   UNL     1       3.322   2.872  17.682  0.00  0.00    +0.000 A 
ATOM     10  F   UNL     1       4.315   2.205  17.074  0.00  0.00    +0.000 F 
ATOM     11  C   UNL     1       3.340   4.285  17.791  0.00  0.00    +0.000 A 
ENDROOT
BRANCH   1  13
ATOM     12  C   UNL     1       6.626   4.561  17.163  0.00  0.00    +0.000 C 
ATOM     13  N   UNL     1       5.367   4.752  16.447  0.00  0.00    +0.000 N 
BRANCH  13  14
ATOM     14  C   UNL     1       5.408   5.345  15.090  0.00  0.00    +0.000 C 
BRANCH  14  15
ATOM     15  C   UNL     1       6.596   4.920  14.211  0.00  0.00    +0.000 C 
ATOM     16  O   UNL     1       7.745   5.278  14.493  0.00  0.00    +0.000 OA
ATOM     17  N   UNL     1       6.361   4.120  13.114  0.00  0.00    +0.000 N 
ATOM     18  C   UNL     1       5.093   3.653  12.591  0.00  0.00    +0.000 C 
ATOM     19  C   UNL     1       5.471   2.363  11.882  0.00  0.00    +0.000 C 
ATOM     20  C   UNL     1       6.851   2.663  11.309  0.00  0.00    +0.000 C 
ATOM     21  C   UNL     1       7.465   3.653  12.294  0.00  0.00    +0.000 C 
ENDBRANCH  14  15
ENDBRANCH  13  14
ENDBRANCH   1  13
TORSDOF 3
ENDMDL
MODEL 5
REMARK VINA RESULT:      -7.4      1.621      1.867
REMARK  Name = 
REMARK  4 active torsions:
REMARK  status: ('A' for Active; 'I' for Inactive)
REMARK    1  A    between atoms: C_1  and  N_2
REMARK    2  A    between atoms: N_2  and  C_3
REMARK    3  A    between atoms: N_2  and  C_11
REMARK    4  A    between atoms: C_3  and  C_4
REMARK                            x       y       z     vdW  Elec       q    Type
REMARK                         _______ _______ _______ _____ _____    ______ ____
ROOT
ATOM      1  C   UNL     1       3.765   5.295  18.929  0.00  0.00    +0.000 A 
ATOM      2  N   UNL     1       3.415   6.389  19.640  0.00  0.00    +0.000 NA
ATOM      3  C   UNL     1       2.220   6.389  20.234  0.00  0.00    +0.000 A 
ATOM      4  N   UNL     1       1.312   5.415  20.173  0.00  0.00    +0.000 NA
ATOM      5  C   UNL     1       1.657   4.325  19.486  0.00  0.00    +0.000 A 
ATOM      6  C   UNL     1       0.726   3.291  19.436  0.00  0.00    +0.000 A 
ATOM      7  C   UNL     1       0.979   2.094  18.769  0.00  0.00    +0.000 A 
ATOM      8  C   UNL     1       2.211   1.909  18.165  0.00  0.00    +0.000 A 
ATOM      9  C   UNL     1       3.158   2.930  18.217  0.00  0.00    +0.000 A 
ATOM     10  F   UNL     1       4.351   2.657  17.671  0.00  0.00    +0.000 F 
ATOM     11  C   UNL     1       2.899   4.177  18.841  0.00  0.00    +0.000 A 
ENDROOT
BRANCH   1  13
ATOM     12  C   UNL     1       6.144   5.047  19.203  0.00  0.00    +0.000 C 
ATOM     13  N   UNL     1       5.025   5.328  18.307  0.00  0.00    +0.000 N 
BRANCH  13  14
ATOM     14  C   UNL     1       5.192   6.374  17.272  0.00  0.00    +0.000 C 
BRANCH  14  15
ATOM     15  C   UNL     1       6.376   6.179  16.310  0.00  0.00    +0.000 C 
ATOM     16  O   UNL     1       7.469   6.705  16.545  0.00  0.00    +0.000 OA
ATOM     17  N   UNL     1       6.203   5.393  15.191  0.00  0.00    +0.000 N 
ATOM     18  C   UNL     1       4.994   4.749  14.717  0.00  0.00    +0.000 C 
ATOM     19  C   UNL     1       5.527   3.564  13.929  0.00  0.00    +0.000 C 
ATOM     20  C   UNL     1       6.804   4.104  13.295  0.00  0.00    +0.000 C 
ATOM     21  C   UNL     1       7.314   5.140  14.290  0.00  0.00    +0.000 C 
ENDBRANCH  14  15
ENDBRANCH  13  14
ENDBRANCH   1  13
TORSDOF 3
ENDMDL
MODEL 6
REMARK VINA RESULT:      -7.4      1.014      1.014
REMARK  Name = 
REMARK  4 active torsions:
REMARK  status: ('A' for Active; 'I' for Inactive)
REMARK    1  A    between atoms: C_1  and  N_2
REMARK    2  A    between atoms: N_2  and  C_3
REMARK    3  A    between atoms: N_2  and  C_11
REMARK    4  A    between atoms: C_3  and  C_4
REMARK                            x       y       z     vdW  Elec       q    Type
REMARK                         _______ _______ _______ _____ _____    ______ ____
ROOT
ATOM      1  C   UNL     1       4.243   4.801  18.274  0.00  0.00    +0.000 A 
ATOM      2  N   UNL     1       4.312   6.127  18.524  0.00  0.00    +0.000 NA
ATOM      3  C   UNL     1       3.320   6.682  19.223  0.00  0.00    +0.000 A 
ATOM      4  N   UNL     1       2.238   6.055  19.683  0.00  0.00    +0.000 NA
ATOM      5  C   UNL     1       2.171   4.743  19.456  0.00  0.00    +0.000 A 
ATOM      6  C   UNL     1       1.056   4.074  19.954  0.00  0.00    +0.000 A 
ATOM      7  C   UNL     1       0.883   2.700  19.800  0.00  0.00    +0.000 A 
ATOM      8  C   UNL     1       1.868   1.966  19.161  0.00  0.00    +0.000 A 
ATOM      9  C   UNL     1       2.995   2.620  18.668  0.00  0.00    +0.000 A 
ATOM     10  F   UNL     1       3.939   1.840  18.121  0.00  0.00    +0.000 F 
ATOM     11  C   UNL     1       3.163   4.025  18.764  0.00  0.00    +0.000 A 
ENDROOT
BRANCH   1  13
ATOM     12  C   UNL     1       6.625   4.522  18.069  0.00  0.00    +0.000 C 
ATOM     13  N   UNL     1       5.297   4.247  17.527  0.00  0.00    +0.000 N 
BRANCH  13  14
ATOM     14  C   UNL     1       5.112   4.272  16.057  0.00  0.00    +0.000 C 
BRANCH  14  15
ATOM     15  C   UNL     1       6.271   4.878  15.249  0.00  0.00    +0.000 C 
ATOM     16  O   UNL     1       7.074   5.648  15.785  0.00  0.00    +0.000 OA
ATOM     17  N   UNL     1       6.408   4.534  13.922  0.00  0.00    +0.000 N 
ATOM     18  C   UNL     1       5.543   3.704  13.108  0.00  0.00    +0.000 C 
ATOM     19  C   UNL     1       6.489   3.159  12.051  0.00  0.00    +0.000 C 
ATOM     20  C   UNL     1       7.450   4.316  11.803  0.00  0.00    +0.000 C 
ATOM     21  C   UNL     1       7.524   5.043  13.142  0.00  0.00    +0.000 C 
ENDBRANCH  14  15
ENDBRANCH  13  14
ENDBRANCH   1  13
TORSDOF 3
ENDMDL
MODEL 7
REMARK VINA RESULT:      -7.4      2.543      6.136
REMARK  Name = 
REMARK  4 active torsions:
REMARK  status: ('A' for Active; 'I' for Inactive)
REMARK    1  A    between atoms: C_1  and  N_2
REMARK    2  A    between atoms: N_2  and  C_3
REMARK    3  A    between atoms: N_2  and  C_11
REMARK    4  A    between atoms: C_3  and  C_4
REMARK                            x       y       z     vdW  Elec       q    Type
REMARK                         _______ _______ _______ _____ _____    ______ ____
ROOT
ATOM      1  C   UNL     1       5.490   4.576  18.804  0.00  0.00    +0.000 A 
ATOM      2  N   UNL     1       6.338   5.192  19.655  0.00  0.00    +0.000 NA
ATOM      3  C   UNL     1       7.449   5.730  19.147  0.00  0.00    +0.000 A 
ATOM      4  N   UNL     1       7.822   5.698  17.868  0.00  0.00    +0.000 NA
ATOM      5  C   UNL     1       6.981   5.107  17.019  0.00  0.00    +0.000 A 
ATOM      6  C   UNL     1       7.350   5.089  15.676  0.00  0.00    +0.000 A 
ATOM      7  C   UNL     1       6.545   4.522  14.691  0.00  0.00    +0.000 A 
ATOM      8  C   UNL     1       5.320   3.988  15.050  0.00  0.00    +0.000 A 
ATOM      9  C   UNL     1       4.931   4.009  16.388  0.00  0.00    +0.000 A 
ATOM     10  F   UNL     1       3.704   3.537  16.655  0.00  0.00    +0.000 F 
ATOM     11  C   UNL     1       5.760   4.530  17.414  0.00  0.00    +0.000 A 
ENDROOT
BRANCH   1  13
ATOM     12  C   UNL     1       4.402   2.563  19.552  0.00  0.00    +0.000 C 
ATOM     13  N   UNL     1       4.333   4.010  19.370  0.00  0.00    +0.000 N 
BRANCH  13  14
ATOM     14  C   UNL     1       3.053   4.608  18.924  0.00  0.00    +0.000 C 
BRANCH  14  15
ATOM     15  C   UNL     1       2.456   5.677  19.854  0.00  0.00    +0.000 C 
ATOM     16  O   UNL     1       2.293   5.442  21.056  0.00  0.00    +0.000 OA
ATOM     17  N   UNL     1       2.121   6.906  19.329  0.00  0.00    +0.000 N 
ATOM     18  C   UNL     1       2.180   7.346  17.949  0.00  0.00    +0.000 C 
ATOM     19  C   UNL     1       2.359   8.849  18.079  0.00  0.00    +0.000 C 
ATOM     20  C   UNL     1       1.530   9.202  19.309  0.00  0.00    +0.000 C 
ATOM     21  C   UNL     1       1.607   7.958  20.189  0.00  0.00    +0.000 C 
ENDBRANCH  14  15
ENDBRANCH  13  14
ENDBRANCH   1  13
TORSDOF 3
ENDMDL
MODEL 8
REMARK VINA RESULT:      -7.2      1.796      2.375
REMARK  Name = 
REMARK  4 active torsions:
REMARK  status: ('A' for Active; 'I' for Inactive)
REMARK    1  A    between atoms: C_1  and  N_2
REMARK    2  A    between atoms: N_2  and  C_3
REMARK    3  A    between atoms: N_2  and  C_11
REMARK    4  A    between atoms: C_3  and  C_4
REMARK                            x       y       z     vdW  Elec       q    Type
REMARK                         _______ _______ _______ _____ _____    ______ ____
ROOT
ATOM      1  C   UNL     1       3.964   4.143  17.792  0.00  0.00    +0.000 A 
ATOM      2  N   UNL     1       3.974   2.982  17.102  0.00  0.00    +0.000 NA
ATOM      3  C   UNL     1       3.057   2.064  17.415  0.00  0.00    +0.000 A 
ATOM      4  N   UNL     1       2.136   2.169  18.373  0.00  0.00    +0.000 NA
ATOM      5  C   UNL     1       2.109   3.319  19.047  0.00  0.00    +0.000 A 
ATOM      6  C   UNL     1       1.135   3.448  20.034  0.00  0.00    +0.000 A 
ATOM      7  C   UNL     1       0.992   4.610  20.789  0.00  0.00    +0.000 A 
ATOM      8  C   UNL     1       1.822   5.686  20.530  0.00  0.00    +0.000 A 
ATOM      9  C   UNL     1       2.794   5.576  19.537  0.00  0.00    +0.000 A 
ATOM     10  F   UNL     1       3.517   6.679  19.293  0.00  0.00    +0.000 F 
ATOM     11  C   UNL     1       2.993   4.384  18.796  0.00  0.00    +0.000 A 
ENDROOT
BRANCH   1  13
ATOM     12  C   UNL     1       4.440   6.235  16.699  0.00  0.00    +0.000 C 
ATOM     13  N   UNL     1       4.947   5.087  17.447  0.00  0.00    +0.000 N 
BRANCH  13  14
ATOM     14  C   UNL     1       6.263   4.520  17.069  0.00  0.00    +0.000 C 
BRANCH  14  15
ATOM     15  C   UNL     1       6.982   5.221  15.904  0.00  0.00    +0.000 C 
ATOM     16  O   UNL     1       7.778   6.141  16.121  0.00  0.00    +0.000 OA
ATOM     17  N   UNL     1       6.737   4.796  14.617  0.00  0.00    +0.000 N 
ATOM     18  C   UNL     1       5.803   3.786  14.160  0.00  0.00    +0.000 C 
ATOM     19  C   UNL     1       6.432   3.301  12.865  0.00  0.00    +0.000 C 
ATOM     20  C   UNL     1       7.057   4.562  12.279  0.00  0.00    +0.000 C 
ATOM     21  C   UNL     1       7.440   5.398  13.497  0.00  0.00    +0.000 C 
ENDBRANCH  14  15
ENDBRANCH  13  14
ENDBRANCH   1  13
TORSDOF 3
ENDMDL
MODEL 9
REMARK VINA RESULT:      -7.2      2.523      6.125
REMARK  Name = 
REMARK  4 active torsions:
REMARK  status: ('A' for Active; 'I' for Inactive)
REMARK    1  A    between atoms: C_1  and  N_2
REMARK    2  A    between atoms: N_2  and  C_3
REMARK    3  A    between atoms: N_2  and  C_11
REMARK    4  A    between atoms: C_3  and  C_4
REMARK                            x       y       z     vdW  Elec       q    Type
REMARK                         _______ _______ _______ _____ _____    ______ ____
ROOT
ATOM      1  C   UNL     1       5.190   6.349  17.556  0.00  0.00    +0.000 A 
ATOM      2  N   UNL     1       6.044   7.301  17.988  0.00  0.00    +0.000 NA
ATOM      3  C   UNL     1       7.233   7.389  17.389  0.00  0.00    +0.000 A 
ATOM      4  N   UNL     1       7.680   6.602  16.411  0.00  0.00    +0.000 NA
ATOM      5  C   UNL     1       6.835   5.670  15.967  0.00  0.00    +0.000 A 
ATOM      6  C   UNL     1       7.283   4.858  14.929  0.00  0.00    +0.000 A 
ATOM      7  C   UNL     1       6.485   3.864  14.365  0.00  0.00    +0.000 A 
ATOM      8  C   UNL     1       5.192   3.699  14.828  0.00  0.00    +0.000 A 
ATOM      9  C   UNL     1       4.725   4.512  15.859  0.00  0.00    +0.000 A 
ATOM     10  F   UNL     1       3.442   4.343  16.210  0.00  0.00    +0.000 F 
ATOM     11  C   UNL     1       5.540   5.490  16.484  0.00  0.00    +0.000 A 
ENDROOT
BRANCH   1  13
ATOM     12  C   UNL     1       3.078   7.424  17.983  0.00  0.00    +0.000 C 
ATOM     13  N   UNL     1       3.948   6.274  18.212  0.00  0.00    +0.000 N 
BRANCH  13  14
ATOM     14  C   UNL     1       3.984   5.671  19.565  0.00  0.00    +0.000 C 
BRANCH  14  15
ATOM     15  C   UNL     1       2.654   5.087  20.071  0.00  0.00    +0.000 C 
ATOM     16  O   UNL     1       1.927   5.744  20.824  0.00  0.00    +0.000 OA
ATOM     17  N   UNL     1       2.280   3.827  19.658  0.00  0.00    +0.000 N 
ATOM     18  C   UNL     1       3.017   2.889  18.836  0.00  0.00    +0.000 C 
ATOM     19  C   UNL     1       1.916   2.062  18.192  0.00  0.00    +0.000 C 
ATOM     20  C   UNL     1       0.857   1.968  19.284  0.00  0.00    +0.000 C 
ATOM     21  C   UNL     1       1.004   3.267  20.070  0.00  0.00    +0.000 C 
ENDBRANCH  14  15
ENDBRANCH  13  14
ENDBRANCH   1  13
TORSDOF 3
ENDMDL
