MODEL 1
REMARK VINA RESULT:      -7.6      0.000      0.000
REMARK  Name = 
REMARK  11 active torsions:
REMARK  status: ('A' for Active; 'I' for Inactive)
REMARK    1  A    between atoms: C_1  and  C_2
REMARK    2  A    between atoms: C_2  and  O_3
REMARK    3  A    between atoms: O_3  and  C_4
REMARK    4  A    between atoms: C_4  and  C_5
REMARK    5  A    between atoms: C_4  and  O_27
REMARK    6  A    between atoms: C_5  and  N_6
REMARK    7  A    between atoms: C_7  and  C_9
REMARK    8  A    between atoms: C_12  and  N_13
REMARK    9  A    between atoms: C_22  and  N_23
REMARK   10  A    between atoms: O_27  and  C_28
REMARK   11  A    between atoms: C_28  and  C_29
REMARK                            x       y       z     vdW  Elec       q    Type
REMARK                         _______ _______ _______ _____ _____    ______ ____
ROOT
ATOM      1  C   UNL     1       2.411   7.159  18.821  0.00  0.00    +0.000 A 
ATOM      2  C   UNL     1       2.418   8.168  17.860  0.00  0.00    +0.000 A 
ATOM      3  C   UNL     1       1.860   9.432  18.130  0.00  0.00    +0.000 A 
ATOM      4  C   UNL     1       1.261   9.779  19.370  0.00  0.00    +0.000 A 
ATOM      5  C   UNL     1       1.331   8.759  20.337  0.00  0.00    +0.000 A 
ATOM      6  C   UNL     1       1.877   7.469  20.079  0.00  0.00    +0.000 A 
ENDROOT
BRANCH   4   7
ATOM      7  N   UNL     1       0.473  10.964  19.465  0.00  0.00    +0.000 N 
ATOM      8  C   UNL     1      -0.642  11.019  18.465  0.00  0.00    +0.000 C 
ATOM      9  C   UNL     1      -1.480  12.236  18.803  0.00  0.00    +0.000 C 
ATOM     10  C   UNL     1      -0.325  13.142  19.036  0.00  0.00    +0.000 A 
ATOM     11  C   UNL     1      -0.262  14.488  18.715  0.00  0.00    +0.000 A 
ATOM     12  C   UNL     1       0.949  15.129  18.917  0.00  0.00    +0.000 A 
ATOM     13  C   UNL     1       2.023  14.433  19.503  0.00  0.00    +0.000 A 
ATOM     14  C   UNL     1       1.945  13.052  19.813  0.00  0.00    +0.000 A 
ATOM     15  C   UNL     1       0.781  12.380  19.500  0.00  0.00    +0.000 A 
ENDBRANCH   4   7
BRANCH   1  17
ATOM     16  N   UNL     1       4.323   5.629  18.963  0.00  0.00    +0.000 N 
ATOM     17  C   UNL     1       3.036   5.846  18.488  0.00  0.00    +0.000 C 
ATOM     18  O   UNL     1       2.428   5.007  17.845  0.00  0.00    +0.000 OA
ATOM     19  H   UNL     1       4.760   6.300  19.568  0.00  0.00    +0.000 HD
BRANCH  16  20
ATOM     20  C   UNL     1       5.134   4.472  18.593  0.00  0.00    +0.000 C 
BRANCH  20  21
ATOM     21  C   UNL     1       6.355   4.847  17.706  0.00  0.00    +0.000 C 
BRANCH  21  22
ATOM     22  O   UNL     1       6.504   3.965  16.590  0.00  0.00    +0.000 OA
BRANCH  22  24
ATOM     23  C   UNL     1       5.633   4.364  14.404  0.00  0.00    +0.000 C 
ATOM     24  C   UNL     1       6.775   4.635  15.364  0.00  0.00    +0.000 C 
ENDBRANCH  22  24
ENDBRANCH  21  22
BRANCH  21  25
ATOM     25  O   UNL     1       7.535   4.785  18.529  0.00  0.00    +0.000 OA
BRANCH  25  26
ATOM     26  C   UNL     1       7.926   6.079  18.997  0.00  0.00    +0.000 C 
ATOM     27  C   UNL     1       7.649   7.109  17.916  0.00  0.00    +0.000 C 
ENDBRANCH  25  26
ENDBRANCH  21  25
ENDBRANCH  20  21
ENDBRANCH  16  20
ENDBRANCH   1  17
BRANCH   5  28
ATOM     28  N   UNL     1       0.837   8.952  21.685  0.00  0.00    +0.000 N 
ATOM     29  O   UNL     1      -0.332   8.619  21.925  0.00  0.00    +0.000 OA
ATOM     30  O   UNL     1       1.667   9.322  22.525  0.00  0.00    +0.000 OA
ENDBRANCH   5  28
TORSDOF 9
ENDMDL
MODEL 2
REMARK VINA RESULT:      -7.4      0.946      2.037
REMARK  Name = 
REMARK  11 active torsions:
REMARK  status: ('A' for Active; 'I' for Inactive)
REMARK    1  A    between atoms: C_1  and  C_2
REMARK    2  A    between atoms: C_2  and  O_3
REMARK    3  A    between atoms: O_3  and  C_4
REMARK    4  A    between atoms: C_4  and  C_5
REMARK    5  A    between atoms: C_4  and  O_27
REMARK    6  A    between atoms: C_5  and  N_6
REMARK    7  A    between atoms: C_7  and  C_9
REMARK    8  A    between atoms: C_12  and  N_13
REMARK    9  A    between atoms: C_22  and  N_23
REMARK   10  A    between atoms: O_27  and  C_28
REMARK   11  A    between atoms: C_28  and  C_29
REMARK                            x       y       z     vdW  Elec       q    Type
REMARK                         _______ _______ _______ _____ _____    ______ ____
ROOT
ATOM      1  C   UNL     1       2.371   7.068  19.287  0.00  0.00    +0.000 A 
ATOM      2  C   UNL     1       2.340   7.984  18.237  0.00  0.00    +0.000 A 
ATOM      3  C   UNL     1       1.707   9.234  18.381  0.00  0.00    +0.000 A 
ATOM      4  C   UNL     1       1.066   9.658  19.575  0.00  0.00    +0.000 A 
ATOM      5  C   UNL     1       1.175   8.736  20.633  0.00  0.00    +0.000 A 
ATOM      6  C   UNL     1       1.797   7.461  20.503  0.00  0.00    +0.000 A 
ENDROOT
BRANCH   4   7
ATOM      7  N   UNL     1       0.211  10.799  19.549  0.00  0.00    +0.000 N 
ATOM      8  C   UNL     1      -0.632  10.883  18.314  0.00  0.00    +0.000 C 
ATOM      9  C   UNL     1      -1.595  12.037  18.513  0.00  0.00    +0.000 C 
ATOM     10  C   UNL     1      -0.584  12.969  19.076  0.00  0.00    +0.000 A 
ATOM     11  C   UNL     1      -0.524  14.336  18.864  0.00  0.00    +0.000 A 
ATOM     12  C   UNL     1       0.565  15.009  19.394  0.00  0.00    +0.000 A 
ATOM     13  C   UNL     1       1.505  14.316  20.179  0.00  0.00    +0.000 A 
ATOM     14  C   UNL     1       1.435  12.913  20.374  0.00  0.00    +0.000 A 
ATOM     15  C   UNL     1       0.420  12.220  19.746  0.00  0.00    +0.000 A 
ENDBRANCH   4   7
BRANCH   1  17
ATOM     16  N   UNL     1       3.446   5.457  17.783  0.00  0.00    +0.000 N 
ATOM     17  C   UNL     1       3.074   5.768  19.085  0.00  0.00    +0.000 C 
ATOM     18  O   UNL     1       3.320   5.034  20.027  0.00  0.00    +0.000 OA
ATOM     19  H   UNL     1       3.314   6.124  17.044  0.00  0.00    +0.000 HD
BRANCH  16  20
ATOM     20  C   UNL     1       3.995   4.162  17.390  0.00  0.00    +0.000 C 
BRANCH  20  21
ATOM     21  C   UNL     1       5.505   4.229  17.026  0.00  0.00    +0.000 C 
BRANCH  21  22
ATOM     22  O   UNL     1       6.343   4.205  18.186  0.00  0.00    +0.000 OA
BRANCH  22  24
ATOM     23  C   UNL     1       7.822   5.835  19.108  0.00  0.00    +0.000 C 
ATOM     24  C   UNL     1       7.606   4.832  17.992  0.00  0.00    +0.000 C 
ENDBRANCH  22  24
ENDBRANCH  21  22
BRANCH  21  25
ATOM     25  O   UNL     1       5.730   5.451  16.297  0.00  0.00    +0.000 OA
BRANCH  25  26
ATOM     26  C   UNL     1       5.669   5.246  14.883  0.00  0.00    +0.000 C 
ATOM     27  C   UNL     1       6.273   3.893  14.545  0.00  0.00    +0.000 C 
ENDBRANCH  25  26
ENDBRANCH  21  25
ENDBRANCH  20  21
ENDBRANCH  16  20
ENDBRANCH   1  17
BRANCH   5  28
ATOM     28  N   UNL     1       0.645   9.023  21.951  0.00  0.00    +0.000 N 
ATOM     29  O   UNL     1       1.357   9.671  22.731  0.00  0.00    +0.000 OA
ATOM     30  O   UNL     1      -0.533   8.700  22.150  0.00  0.00    +0.000 OA
ENDBRANCH   5  28
TORSDOF 9
ENDMDL
MODEL 3
REMARK VINA RESULT:      -7.4      0.744      1.921
REMARK  Name = 
REMARK  11 active torsions:
REMARK  status: ('A' for Active; 'I' for Inactive)
REMARK    1  A    between atoms: C_1  and  C_2
REMARK    2  A    between atoms: C_2  and  O_3
REMARK    3  A    between atoms: O_3  and  C_4
REMARK    4  A    between atoms: C_4  and  C_5
REMARK    5  A    between atoms: C_4  and  O_27
REMARK    6  A    between atoms: C_5  and  N_6
REMARK    7  A    between atoms: C_7  and  C_9
REMARK    8  A    between atoms: C_12  and  N_13
REMARK    9  A    between atoms: C_22  and  N_23
REMARK   10  A    between atoms: O_27  and  C_28
REMARK   11  A    between atoms: C_28  and  C_29
REMARK                            x       y       z     vdW  Elec       q    Type
REMARK                         _______ _______ _______ _____ _____    ______ ____
ROOT
ATOM      1  C   UNL     1       2.489   6.849  19.239  0.00  0.00    +0.000 A 
ATOM      2  C   UNL     1       2.470   7.745  18.172  0.00  0.00    +0.000 A 
ATOM      3  C   UNL     1       1.836   8.997  18.286  0.00  0.00    +0.000 A 
ATOM      4  C   UNL     1       1.182   9.444  19.464  0.00  0.00    +0.000 A 
ATOM      5  C   UNL     1       1.279   8.542  20.540  0.00  0.00    +0.000 A 
ATOM      6  C   UNL     1       1.901   7.265  20.441  0.00  0.00    +0.000 A 
ENDROOT
BRANCH   4   7
ATOM      7  N   UNL     1       0.329  10.585  19.408  0.00  0.00    +0.000 N 
ATOM      8  C   UNL     1      -0.570  10.596  18.209  0.00  0.00    +0.000 C 
ATOM      9  C   UNL     1      -1.522  11.764  18.381  0.00  0.00    +0.000 C 
ATOM     10  C   UNL     1      -0.484  12.725  18.839  0.00  0.00    +0.000 A 
ATOM     11  C   UNL     1      -0.432  14.077  18.541  0.00  0.00    +0.000 A 
ATOM     12  C   UNL     1       0.681  14.776  18.978  0.00  0.00    +0.000 A 
ATOM     13  C   UNL     1       1.655  14.129  19.761  0.00  0.00    +0.000 A 
ATOM     14  C   UNL     1       1.592  12.741  20.045  0.00  0.00    +0.000 A 
ATOM     15  C   UNL     1       0.548  12.014  19.507  0.00  0.00    +0.000 A 
ENDBRANCH   4   7
BRANCH   1  17
ATOM     16  N   UNL     1       4.568   5.549  19.269  0.00  0.00    +0.000 N 
ATOM     17  C   UNL     1       3.193   5.545  19.069  0.00  0.00    +0.000 C 
ATOM     18  O   UNL     1       2.578   4.531  18.787  0.00  0.00    +0.000 OA
ATOM     19  H   UNL     1       5.031   6.378  19.592  0.00  0.00    +0.000 HD
BRANCH  16  20
ATOM     20  C   UNL     1       5.426   4.401  18.987  0.00  0.00    +0.000 C 
BRANCH  20  21
ATOM     21  C   UNL     1       6.415   4.658  17.815  0.00  0.00    +0.000 C 
BRANCH  21  22
ATOM     22  O   UNL     1       7.263   5.783  18.060  0.00  0.00    +0.000 OA
BRANCH  22  24
ATOM     23  C   UNL     1       7.878   8.054  17.653  0.00  0.00    +0.000 C 
ATOM     24  C   UNL     1       6.932   6.929  17.282  0.00  0.00    +0.000 C 
ENDBRANCH  22  24
ENDBRANCH  21  22
BRANCH  21  25
ATOM     25  O   UNL     1       5.638   4.891  16.625  0.00  0.00    +0.000 OA
BRANCH  25  26
ATOM     26  C   UNL     1       5.832   3.860  15.652  0.00  0.00    +0.000 C 
ATOM     27  C   UNL     1       6.707   4.389  14.528  0.00  0.00    +0.000 C 
ENDBRANCH  25  26
ENDBRANCH  21  25
ENDBRANCH  20  21
ENDBRANCH  16  20
ENDBRANCH   1  17
BRANCH   5  28
ATOM     28  N   UNL     1       0.735   8.854  21.847  0.00  0.00    +0.000 N 
ATOM     29  O   UNL     1       1.463   9.459  22.646  0.00  0.00    +0.000 OA
ATOM     30  O   UNL     1      -0.463   8.597  22.016  0.00  0.00    +0.000 OA
ENDBRANCH   5  28
TORSDOF 9
ENDMDL
MODEL 4
REMARK VINA RESULT:      -7.4      1.515      2.445
REMARK  Name = 
REMARK  11 active torsions:
REMARK  status: ('A' for Active; 'I' for Inactive)
REMARK    1  A    between atoms: C_1  and  C_2
REMARK    2  A    between atoms: C_2  and  O_3
REMARK    3  A    between atoms: O_3  and  C_4
REMARK    4  A    between atoms: C_4  and  C_5
REMARK    5  A    between atoms: C_4  and  O_27
REMARK    6  A    between atoms: C_5  and  N_6
REMARK    7  A    between atoms: C_7  and  C_9
REMARK    8  A    between atoms: C_12  and  N_13
REMARK    9  A    between atoms: C_22  and  N_23
REMARK   10  A    between atoms: O_27  and  C_28
REMARK   11  A    between atoms: C_28  and  C_29
REMARK                            x       y       z     vdW  Elec       q    Type
REMARK                         _______ _______ _______ _____ _____    ______ ____
ROOT
ATOM      1  C   UNL     1       2.350   6.808  19.817  0.00  0.00    +0.000 A 
ATOM      2  C   UNL     1       2.373   7.585  18.659  0.00  0.00    +0.000 A 
ATOM      3  C   UNL     1       1.751   8.848  18.620  0.00  0.00    +0.000 A 
ATOM      4  C   UNL     1       1.067   9.424  19.723  0.00  0.00    +0.000 A 
ATOM      5  C   UNL     1       1.121   8.641  20.892  0.00  0.00    +0.000 A 
ATOM      6  C   UNL     1       1.732   7.355  20.949  0.00  0.00    +0.000 A 
ENDROOT
BRANCH   4   7
ATOM      7  N   UNL     1       0.230  10.559  19.519  0.00  0.00    +0.000 N 
ATOM      8  C   UNL     1      -0.510  10.525  18.217  0.00  0.00    +0.000 C 
ATOM      9  C   UNL     1      -1.475  11.696  18.225  0.00  0.00    +0.000 C 
ATOM     10  C   UNL     1      -0.503  12.675  18.777  0.00  0.00    +0.000 A 
ATOM     11  C   UNL     1      -0.412  14.016  18.441  0.00  0.00    +0.000 A 
ATOM     12  C   UNL     1       0.637  14.734  18.991  0.00  0.00    +0.000 A 
ATOM     13  C   UNL     1       1.504  14.117  19.913  0.00  0.00    +0.000 A 
ATOM     14  C   UNL     1       1.404  12.740  20.235  0.00  0.00    +0.000 A 
ATOM     15  C   UNL     1       0.436  11.992  19.596  0.00  0.00    +0.000 A 
ENDBRANCH   4   7
BRANCH   1  17
ATOM     16  N   UNL     1       4.037   5.312  18.854  0.00  0.00    +0.000 N 
ATOM     17  C   UNL     1       3.043   5.488  19.809  0.00  0.00    +0.000 C 
ATOM     18  O   UNL     1       2.756   4.622  20.618  0.00  0.00    +0.000 OA
ATOM     19  H   UNL     1       4.316   6.076  18.265  0.00  0.00    +0.000 HD
BRANCH  16  20
ATOM     20  C   UNL     1       4.699   4.034  18.606  0.00  0.00    +0.000 C 
BRANCH  20  21
ATOM     21  C   UNL     1       4.216   3.346  17.297  0.00  0.00    +0.000 C 
BRANCH  21  22
ATOM     22  O   UNL     1       4.664   4.035  16.127  0.00  0.00    +0.000 OA
BRANCH  22  24
ATOM     23  C   UNL     1       6.425   4.433  14.565  0.00  0.00    +0.000 C 
ATOM     24  C   UNL     1       6.081   4.084  16.000  0.00  0.00    +0.000 C 
ENDBRANCH  22  24
ENDBRANCH  21  22
BRANCH  21  25
ATOM     25  O   UNL     1       2.776   3.321  17.317  0.00  0.00    +0.000 OA
BRANCH  25  26
ATOM     26  C   UNL     1       2.273   2.128  17.926  0.00  0.00    +0.000 C 
ATOM     27  C   UNL     1       0.967   2.439  18.637  0.00  0.00    +0.000 C 
ENDBRANCH  25  26
ENDBRANCH  21  25
ENDBRANCH  20  21
ENDBRANCH  16  20
ENDBRANCH   1  17
BRANCH   5  28
ATOM     28  N   UNL     1       0.543   9.095  22.140  0.00  0.00    +0.000 N 
ATOM     29  O   UNL     1      -0.654   8.848  22.346  0.00  0.00    +0.000 OA
ATOM     30  O   UNL     1       1.327   9.589  22.960  0.00  0.00    +0.000 OA
ENDBRANCH   5  28
TORSDOF 9
ENDMDL
MODEL 5
REMARK VINA RESULT:      -7.3      1.006      2.164
REMARK  Name = 
REMARK  11 active torsions:
REMARK  status: ('A' for Active; 'I' for Inactive)
REMARK    1  A    between atoms: C_1  and  C_2
REMARK    2  A    between atoms: C_2  and  O_3
REMARK    3  A    between atoms: O_3  and  C_4
REMARK    4  A    between atoms: C_4  and  C_5
REMARK    5  A    between atoms: C_4  and  O_27
REMARK    6  A    between atoms: C_5  and  N_6
REMARK    7  A    between atoms: C_7  and  C_9
REMARK    8  A    between atoms: C_12  and  N_13
REMARK    9  A    between atoms: C_22  and  N_23
REMARK   10  A    between atoms: O_27  and  C_28
REMARK   11  A    between atoms: C_28  and  C_29
REMARK                            x       y       z     vdW  Elec       q    Type
REMARK                         _______ _______ _______ _____ _____    ______ ____
ROOT
ATOM      1  C   UNL     1       2.597   7.001  19.026  0.00  0.00    +0.000 A 
ATOM      2  C   UNL     1       2.559   7.946  18.002  0.00  0.00    +0.000 A 
ATOM      3  C   UNL     1       1.900   9.179  18.175  0.00  0.00    +0.000 A 
ATOM      4  C   UNL     1       1.239   9.557  19.373  0.00  0.00    +0.000 A 
ATOM      5  C   UNL     1       1.355   8.607  20.406  0.00  0.00    +0.000 A 
ATOM      6  C   UNL     1       2.003   7.348  20.247  0.00  0.00    +0.000 A 
ENDROOT
BRANCH   4   7
ATOM      7  N   UNL     1       0.364  10.681  19.371  0.00  0.00    +0.000 N 
ATOM      8  C   UNL     1      -0.585  10.694  18.211  0.00  0.00    +0.000 C 
ATOM      9  C   UNL     1      -1.550  11.841  18.441  0.00  0.00    +0.000 C 
ATOM     10  C   UNL     1      -0.512  12.814  18.871  0.00  0.00    +0.000 A 
ATOM     11  C   UNL     1      -0.498  14.171  18.593  0.00  0.00    +0.000 A 
ATOM     12  C   UNL     1       0.619  14.885  18.994  0.00  0.00    +0.000 A 
ATOM     13  C   UNL     1       1.638  14.244  19.725  0.00  0.00    +0.000 A 
ATOM     14  C   UNL     1       1.612  12.852  19.989  0.00  0.00    +0.000 A 
ATOM     15  C   UNL     1       0.560  12.113  19.484  0.00  0.00    +0.000 A 
ENDBRANCH   4   7
BRANCH   1  17
ATOM     16  N   UNL     1       3.602   5.391  17.474  0.00  0.00    +0.000 N 
ATOM     17  C   UNL     1       3.326   5.721  18.795  0.00  0.00    +0.000 C 
ATOM     18  O   UNL     1       3.675   5.019  19.729  0.00  0.00    +0.000 OA
ATOM     19  H   UNL     1       3.385   6.034  16.734  0.00  0.00    +0.000 HD
BRANCH  16  20
ATOM     20  C   UNL     1       4.161   4.105  17.065  0.00  0.00    +0.000 C 
BRANCH  20  21
ATOM     21  C   UNL     1       5.512   4.247  16.307  0.00  0.00    +0.000 C 
BRANCH  21  22
ATOM     22  O   UNL     1       6.106   5.534  16.495  0.00  0.00    +0.000 OA
BRANCH  22  24
ATOM     23  C   UNL     1       7.523   6.989  17.750  0.00  0.00    +0.000 C 
ATOM     24  C   UNL     1       7.148   5.548  17.465  0.00  0.00    +0.000 C 
ENDBRANCH  22  24
ENDBRANCH  21  22
BRANCH  21  25
ATOM     25  O   UNL     1       5.257   4.035  14.906  0.00  0.00    +0.000 OA
BRANCH  25  26
ATOM     26  C   UNL     1       6.440   4.198  14.118  0.00  0.00    +0.000 C 
ATOM     27  C   UNL     1       6.211   3.602  12.740  0.00  0.00    +0.000 C 
ENDBRANCH  25  26
ENDBRANCH  21  25
ENDBRANCH  20  21
ENDBRANCH  16  20
ENDBRANCH   1  17
BRANCH   5  28
ATOM     28  N   UNL     1       0.806   8.846  21.725  0.00  0.00    +0.000 N 
ATOM     29  O   UNL     1      -0.354   8.469  21.946  0.00  0.00    +0.000 OA
ATOM     30  O   UNL     1       1.588   9.300  22.570  0.00  0.00    +0.000 OA
ENDBRANCH   5  28
TORSDOF 9
ENDMDL
MODEL 6
REMARK VINA RESULT:      -7.3      2.004      2.610
REMARK  Name = 
REMARK  11 active torsions:
REMARK  status: ('A' for Active; 'I' for Inactive)
REMARK    1  A    between atoms: C_1  and  C_2
REMARK    2  A    between atoms: C_2  and  O_3
REMARK    3  A    between atoms: O_3  and  C_4
REMARK    4  A    between atoms: C_4  and  C_5
REMARK    5  A    between atoms: C_4  and  O_27
REMARK    6  A    between atoms: C_5  and  N_6
REMARK    7  A    between atoms: C_7  and  C_9
REMARK    8  A    between atoms: C_12  and  N_13
REMARK    9  A    between atoms: C_22  and  N_23
REMARK   10  A    between atoms: O_27  and  C_28
REMARK   11  A    between atoms: C_28  and  C_29
REMARK                            x       y       z     vdW  Elec       q    Type
REMARK                         _______ _______ _______ _____ _____    ______ ____
ROOT
ATOM      1  C   UNL     1       2.528   7.811  18.612  0.00  0.00    +0.000 A 
ATOM      2  C   UNL     1       2.108   8.829  17.757  0.00  0.00    +0.000 A 
ATOM      3  C   UNL     1       1.124   9.754  18.157  0.00  0.00    +0.000 A 
ATOM      4  C   UNL     1       0.494   9.732  19.429  0.00  0.00    +0.000 A 
ATOM      5  C   UNL     1       0.989   8.733  20.288  0.00  0.00    +0.000 A 
ATOM      6  C   UNL     1       1.973   7.778  19.898  0.00  0.00    +0.000 A 
ENDROOT
BRANCH   4   7
ATOM      7  N   UNL     1      -0.679  10.511  19.648  0.00  0.00    +0.000 N 
ATOM      8  C   UNL     1      -1.205  11.158  18.402  0.00  0.00    +0.000 C 
ATOM      9  C   UNL     1      -2.531  11.799  18.762  0.00  0.00    +0.000 C 
ATOM     10  C   UNL     1      -2.063  12.379  20.047  0.00  0.00    +0.000 A 
ATOM     11  C   UNL     1      -2.443  13.600  20.580  0.00  0.00    +0.000 A 
ATOM     12  C   UNL     1      -1.806  14.007  21.741  0.00  0.00    +0.000 A 
ATOM     13  C   UNL     1      -0.880  13.155  22.370  0.00  0.00    +0.000 A 
ATOM     14  C   UNL     1      -0.492  11.915  21.803  0.00  0.00    +0.000 A 
ATOM     15  C   UNL     1      -1.034  11.560  20.583  0.00  0.00    +0.000 A 
ENDBRANCH   4   7
BRANCH   1  17
ATOM     16  N   UNL     1       4.032   5.927  19.060  0.00  0.00    +0.000 N 
ATOM     17  C   UNL     1       3.589   6.873  18.144  0.00  0.00    +0.000 C 
ATOM     18  O   UNL     1       4.023   6.933  17.006  0.00  0.00    +0.000 OA
ATOM     19  H   UNL     1       3.590   5.842  19.957  0.00  0.00    +0.000 HD
BRANCH  16  20
ATOM     20  C   UNL     1       5.170   5.044  18.818  0.00  0.00    +0.000 C 
BRANCH  20  21
ATOM     21  C   UNL     1       4.754   3.669  18.222  0.00  0.00    +0.000 C 
BRANCH  21  22
ATOM     22  O   UNL     1       4.796   3.665  16.792  0.00  0.00    +0.000 OA
BRANCH  22  24
ATOM     23  C   UNL     1       5.921   4.142  14.741  0.00  0.00    +0.000 C 
ATOM     24  C   UNL     1       6.017   4.161  16.254  0.00  0.00    +0.000 C 
ENDBRANCH  22  24
ENDBRANCH  21  22
BRANCH  21  25
ATOM     25  O   UNL     1       3.414   3.383  18.664  0.00  0.00    +0.000 OA
BRANCH  25  26
ATOM     26  C   UNL     1       2.530   3.143  17.565  0.00  0.00    +0.000 C 
ATOM     27  C   UNL     1       1.339   4.079  17.665  0.00  0.00    +0.000 C 
ENDBRANCH  25  26
ENDBRANCH  21  25
ENDBRANCH  20  21
ENDBRANCH  16  20
ENDBRANCH   1  17
BRANCH   5  28
ATOM     28  N   UNL     1       0.519   8.599  21.652  0.00  0.00    +0.000 N 
ATOM     29  O   UNL     1      -0.569   8.036  21.835  0.00  0.00    +0.000 OA
ATOM     30  O   UNL     1       1.306   8.951  22.539  0.00  0.00    +0.000 OA
ENDBRANCH   5  28
TORSDOF 9
ENDMDL
MODEL 7
REMARK VINA RESULT:      -7.3      2.019      2.891
REMARK  Name = 
REMARK  11 active torsions:
REMARK  status: ('A' for Active; 'I' for Inactive)
REMARK    1  A    between atoms: C_1  and  C_2
REMARK    2  A    between atoms: C_2  and  O_3
REMARK    3  A    between atoms: O_3  and  C_4
REMARK    4  A    between atoms: C_4  and  C_5
REMARK    5  A    between atoms: C_4  and  O_27
REMARK    6  A    between atoms: C_5  and  N_6
REMARK    7  A    between atoms: C_7  and  C_9
REMARK    8  A    between atoms: C_12  and  N_13
REMARK    9  A    between atoms: C_22  and  N_23
REMARK   10  A    between atoms: O_27  and  C_28
REMARK   11  A    between atoms: C_28  and  C_29
REMARK                            x       y       z     vdW  Elec       q    Type
REMARK                         _______ _______ _______ _____ _____    ______ ____
ROOT
ATOM      1  C   UNL     1       2.198   8.004  18.593  0.00  0.00    +0.000 A 
ATOM      2  C   UNL     1       1.678   8.978  17.742  0.00  0.00    +0.000 A 
ATOM      3  C   UNL     1       0.762   9.939  18.213  0.00  0.00    +0.000 A 
ATOM      4  C   UNL     1       0.303   9.998  19.555  0.00  0.00    +0.000 A 
ATOM      5  C   UNL     1       0.900   9.042  20.399  0.00  0.00    +0.000 A 
ATOM      6  C   UNL     1       1.817   8.052  19.940  0.00  0.00    +0.000 A 
ENDROOT
BRANCH   4   7
ATOM      7  N   UNL     1      -0.825  10.806  19.880  0.00  0.00    +0.000 N 
ATOM      8  C   UNL     1      -1.522  11.365  18.677  0.00  0.00    +0.000 C 
ATOM      9  C   UNL     1      -2.782  12.047  19.173  0.00  0.00    +0.000 C 
ATOM     10  C   UNL     1      -2.134  12.717  20.330  0.00  0.00    +0.000 A 
ATOM     11  C   UNL     1      -2.432  13.978  20.819  0.00  0.00    +0.000 A 
ATOM     12  C   UNL     1      -1.634  14.463  21.842  0.00  0.00    +0.000 A 
ATOM     13  C   UNL     1      -0.628  13.649  22.395  0.00  0.00    +0.000 A 
ATOM     14  C   UNL     1      -0.328  12.364  21.874  0.00  0.00    +0.000 A 
ATOM     15  C   UNL     1      -1.039  11.927  20.774  0.00  0.00    +0.000 A 
ENDBRANCH   4   7
BRANCH   1  17
ATOM     16  N   UNL     1       2.880   5.679  18.213  0.00  0.00    +0.000 N 
ATOM     17  C   UNL     1       3.181   7.025  18.046  0.00  0.00    +0.000 C 
ATOM     18  O   UNL     1       4.186   7.401  17.466  0.00  0.00    +0.000 OA
ATOM     19  H   UNL     1       2.000   5.402  18.610  0.00  0.00    +0.000 HD
BRANCH  16  20
ATOM     20  C   UNL     1       3.805   4.599  17.882  0.00  0.00    +0.000 C 
BRANCH  20  21
ATOM     21  C   UNL     1       4.394   3.900  19.140  0.00  0.00    +0.000 C 
BRANCH  21  22
ATOM     22  O   UNL     1       5.817   4.028  19.215  0.00  0.00    +0.000 OA
BRANCH  22  24
ATOM     23  C   UNL     1       7.527   5.533  18.501  0.00  0.00    +0.000 C 
ATOM     24  C   UNL     1       6.399   4.622  18.059  0.00  0.00    +0.000 C 
ENDBRANCH  22  24
ENDBRANCH  21  22
BRANCH  21  25
ATOM     25  O   UNL     1       4.041   2.505  19.076  0.00  0.00    +0.000 OA
BRANCH  25  26
ATOM     26  C   UNL     1       2.722   2.266  19.576  0.00  0.00    +0.000 C 
ATOM     27  C   UNL     1       2.589   2.884  20.957  0.00  0.00    +0.000 C 
ENDBRANCH  25  26
ENDBRANCH  21  25
ENDBRANCH  20  21
ENDBRANCH  16  20
ENDBRANCH   1  17
BRANCH   5  28
ATOM     28  N   UNL     1       0.612   8.993  21.818  0.00  0.00    +0.000 N 
ATOM     29  O   UNL     1      -0.466   8.495  22.172  0.00  0.00    +0.000 OA
ATOM     30  O   UNL     1       1.526   9.344  22.575  0.00  0.00    +0.000 OA
ENDBRANCH   5  28
TORSDOF 9
ENDMDL
MODEL 8
REMARK VINA RESULT:      -7.3      2.089      3.036
REMARK  Name = 
REMARK  11 active torsions:
REMARK  status: ('A' for Active; 'I' for Inactive)
REMARK    1  A    between atoms: C_1  and  C_2
REMARK    2  A    between atoms: C_2  and  O_3
REMARK    3  A    between atoms: O_3  and  C_4
REMARK    4  A    between atoms: C_4  and  C_5
REMARK    5  A    between atoms: C_4  and  O_27
REMARK    6  A    between atoms: C_5  and  N_6
REMARK    7  A    between atoms: C_7  and  C_9
REMARK    8  A    between atoms: C_12  and  N_13
REMARK    9  A    between atoms: C_22  and  N_23
REMARK   10  A    between atoms: O_27  and  C_28
REMARK   11  A    between atoms: C_28  and  C_29
REMARK                            x       y       z     vdW  Elec       q    Type
REMARK                         _______ _______ _______ _____ _____    ______ ____
ROOT
ATOM      1  C   UNL     1       2.162   7.981  18.636  0.00  0.00    +0.000 A 
ATOM      2  C   UNL     1       1.665   8.984  17.805  0.00  0.00    +0.000 A 
ATOM      3  C   UNL     1       0.771   9.956  18.294  0.00  0.00    +0.000 A 
ATOM      4  C   UNL     1       0.312   9.998  19.637  0.00  0.00    +0.000 A 
ATOM      5  C   UNL     1       0.885   9.011  20.461  0.00  0.00    +0.000 A 
ATOM      6  C   UNL     1       1.780   8.010  19.983  0.00  0.00    +0.000 A 
ENDROOT
BRANCH   4   7
ATOM      7  N   UNL     1      -0.798  10.824  19.977  0.00  0.00    +0.000 N 
ATOM      8  C   UNL     1      -1.550  11.331  18.784  0.00  0.00    +0.000 C 
ATOM      9  C   UNL     1      -2.784  12.041  19.307  0.00  0.00    +0.000 C 
ATOM     10  C   UNL     1      -2.080  12.759  20.402  0.00  0.00    +0.000 A 
ATOM     11  C   UNL     1      -2.352  14.043  20.846  0.00  0.00    +0.000 A 
ATOM     12  C   UNL     1      -1.507  14.570  21.808  0.00  0.00    +0.000 A 
ATOM     13  C   UNL     1      -0.478  13.776  22.349  0.00  0.00    +0.000 A 
ATOM     14  C   UNL     1      -0.205  12.469  21.873  0.00  0.00    +0.000 A 
ATOM     15  C   UNL     1      -0.968  11.985  20.829  0.00  0.00    +0.000 A 
ENDBRANCH   4   7
BRANCH   1  17
ATOM     16  N   UNL     1       2.750   5.655  18.129  0.00  0.00    +0.000 N 
ATOM     17  C   UNL     1       3.124   6.991  18.070  0.00  0.00    +0.000 C 
ATOM     18  O   UNL     1       4.173   7.353  17.565  0.00  0.00    +0.000 OA
ATOM     19  H   UNL     1       1.840   5.397  18.465  0.00  0.00    +0.000 HD
BRANCH  16  20
ATOM     20  C   UNL     1       3.638   4.553  17.769  0.00  0.00    +0.000 C 
BRANCH  20  21
ATOM     21  C   UNL     1       3.860   3.548  18.935  0.00  0.00    +0.000 C 
BRANCH  21  22
ATOM     22  O   UNL     1       3.034   3.840  20.066  0.00  0.00    +0.000 OA
BRANCH  22  24
ATOM     23  C   UNL     1       1.565   2.731  21.586  0.00  0.00    +0.000 C 
ATOM     24  C   UNL     1       2.969   2.780  21.014  0.00  0.00    +0.000 C 
ENDBRANCH  22  24
ENDBRANCH  21  22
BRANCH  21  25
ATOM     25  O   UNL     1       5.246   3.619  19.322  0.00  0.00    +0.000 OA
BRANCH  25  26
ATOM     26  C   UNL     1       6.001   4.459  18.443  0.00  0.00    +0.000 C 
ATOM     27  C   UNL     1       6.762   5.487  19.263  0.00  0.00    +0.000 C 
ENDBRANCH  25  26
ENDBRANCH  21  25
ENDBRANCH  20  21
ENDBRANCH  16  20
ENDBRANCH   1  17
BRANCH   5  28
ATOM     28  N   UNL     1       0.594   8.939  21.879  0.00  0.00    +0.000 N 
ATOM     29  O   UNL     1       1.440   9.390  22.666  0.00  0.00    +0.000 OA
ATOM     30  O   UNL     1      -0.536   8.543  22.187  0.00  0.00    +0.000 OA
ENDBRANCH   5  28
TORSDOF 9
ENDMDL
MODEL 9
REMARK VINA RESULT:      -7.2      1.125      1.802
REMARK  Name = 
REMARK  11 active torsions:
REMARK  status: ('A' for Active; 'I' for Inactive)
REMARK    1  A    between atoms: C_1  and  C_2
REMARK    2  A    between atoms: C_2  and  O_3
REMARK    3  A    between atoms: O_3  and  C_4
REMARK    4  A    between atoms: C_4  and  C_5
REMARK    5  A    between atoms: C_4  and  O_27
REMARK    6  A    between atoms: C_5  and  N_6
REMARK    7  A    between atoms: C_7  and  C_9
REMARK    8  A    between atoms: C_12  and  N_13
REMARK    9  A    between atoms: C_22  and  N_23
REMARK   10  A    between atoms: O_27  and  C_28
REMARK   11  A    between atoms: C_28  and  C_29
REMARK                            x       y       z     vdW  Elec       q    Type
REMARK                         _______ _______ _______ _____ _____    ______ ____
ROOT
ATOM      1  C   UNL     1       2.185   7.511  18.652  0.00  0.00    +0.000 A 
ATOM      2  C   UNL     1       2.202   8.589  17.768  0.00  0.00    +0.000 A 
ATOM      3  C   UNL     1       1.708   9.850  18.151  0.00  0.00    +0.000 A 
ATOM      4  C   UNL     1       1.169  10.128  19.434  0.00  0.00    +0.000 A 
ATOM      5  C   UNL     1       1.230   9.036  20.321  0.00  0.00    +0.000 A 
ATOM      6  C   UNL     1       1.710   7.748  19.949  0.00  0.00    +0.000 A 
ENDROOT
BRANCH   4   7
ATOM      7  N   UNL     1       0.437  11.332  19.646  0.00  0.00    +0.000 N 
ATOM      8  C   UNL     1      -0.840  11.398  18.864  0.00  0.00    +0.000 C 
ATOM      9  C   UNL     1      -1.577  12.641  19.322  0.00  0.00    +0.000 C 
ATOM     10  C   UNL     1      -0.380  13.522  19.323  0.00  0.00    +0.000 A 
ATOM     11  C   UNL     1      -0.349  14.861  18.968  0.00  0.00    +0.000 A 
ATOM     12  C   UNL     1       0.892  15.475  18.934  0.00  0.00    +0.000 A 
ATOM     13  C   UNL     1       2.040  14.763  19.330  0.00  0.00    +0.000 A 
ATOM     14  C   UNL     1       1.991  13.390  19.678  0.00  0.00    +0.000 A 
ATOM     15  C   UNL     1       0.775  12.741  19.595  0.00  0.00    +0.000 A 
ENDBRANCH   4   7
BRANCH   1  17
ATOM     16  N   UNL     1       4.122   6.122  18.074  0.00  0.00    +0.000 N 
ATOM     17  C   UNL     1       2.741   6.203  18.200  0.00  0.00    +0.000 C 
ATOM     18  O   UNL     1       2.009   5.254  17.974  0.00  0.00    +0.000 OA
ATOM     19  H   UNL     1       4.703   6.890  18.357  0.00  0.00    +0.000 HD
BRANCH  16  20
ATOM     20  C   UNL     1       4.811   4.974  17.492  0.00  0.00    +0.000 C 
BRANCH  20  21
ATOM     21  C   UNL     1       5.443   4.040  18.564  0.00  0.00    +0.000 C 
BRANCH  21  22
ATOM     22  O   UNL     1       4.486   3.607  19.535  0.00  0.00    +0.000 OA
BRANCH  22  24
ATOM     23  C   UNL     1       3.181   1.858  18.566  0.00  0.00    +0.000 C 
ATOM     24  C   UNL     1       4.284   2.198  19.549  0.00  0.00    +0.000 C 
ENDBRANCH  22  24
ENDBRANCH  21  22
BRANCH  21  25
ATOM     25  O   UNL     1       6.497   4.770  19.220  0.00  0.00    +0.000 OA
BRANCH  25  26
ATOM     26  C   UNL     1       7.539   5.134  18.310  0.00  0.00    +0.000 C 
ATOM     27  C   UNL     1       7.902   6.594  18.522  0.00  0.00    +0.000 C 
ENDBRANCH  25  26
ENDBRANCH  21  25
ENDBRANCH  20  21
ENDBRANCH  16  20
ENDBRANCH   1  17
BRANCH   5  28
ATOM     28  N   UNL     1       0.792   9.148  21.698  0.00  0.00    +0.000 N 
ATOM     29  O   UNL     1       1.572   9.663  22.512  0.00  0.00    +0.000 OA
ATOM     30  O   UNL     1      -0.381   8.828  21.927  0.00  0.00    +0.000 OA
ENDBRANCH   5  28
TORSDOF 9
ENDMDL
