MODEL 1
REMARK VINA RESULT:      -7.9      0.000      0.000
REMARK  Name = 
REMARK  7 active torsions:
REMARK  status: ('A' for Active; 'I' for Inactive)
REMARK    1  A    between atoms: C_1  and  O_2
REMARK    2  A    between atoms: O_2  and  C_3
REMARK    3  A    between atoms: C_6  and  C_7
REMARK    4  A    between atoms: C_7  and  C_9
REMARK    5  A    between atoms: C_10  and  C_11
REMARK    6  A    between atoms: C_21  and  O_22
REMARK    7  A    between atoms: O_22  and  C_23
REMARK                            x       y       z     vdW  Elec       q    Type
REMARK                         _______ _______ _______ _____ _____    ______ ____
ROOT
ATOM      1  C   UNL     1       1.254   9.969  18.304  0.00  0.00    +0.000 C 
ATOM      2  O   UNL     1       2.173  10.687  17.939  0.00  0.00    +0.000 OA
ENDROOT
BRANCH   1   6
ATOM      3  C   UNL     1      -3.011  11.306  18.446  0.00  0.00    +0.000 A 
ATOM      4  C   UNL     1      -2.556  10.360  17.520  0.00  0.00    +0.000 A 
ATOM      5  C   UNL     1      -1.181   9.977  17.434  0.00  0.00    +0.000 A 
ATOM      6  C   UNL     1      -0.204  10.512  18.287  0.00  0.00    +0.000 A 
ATOM      7  C   UNL     1      -0.701  11.431  19.276  0.00  0.00    +0.000 A 
ATOM      8  C   UNL     1      -2.072  11.851  19.300  0.00  0.00    +0.000 A 
BRANCH   3  10
ATOM      9  C   UNL     1      -5.073  11.529  17.194  0.00  0.00    +0.000 C 
ATOM     10  O   UNL     1      -4.356  11.577  18.433  0.00  0.00    +0.000 OA
ENDBRANCH   3  10
BRANCH   7  11
ATOM     11  O   UNL     1       0.175  11.952  20.204  0.00  0.00    +0.000 OA
ATOM     12  C   UNL     1      -0.034  11.530  21.557  0.00  0.00    +0.000 C 
ENDBRANCH   7  11
ENDBRANCH   1   6
BRANCH   1  13
ATOM     13  C   UNL     1       1.631   8.536  18.798  0.00  0.00    +0.000 C 
ATOM     14  C   UNL     1       2.555   7.678  18.230  0.00  0.00    +0.000 C 
BRANCH  14  15
ATOM     15  C   UNL     1       3.043   6.282  18.766  0.00  0.00    +0.000 A 
ATOM     16  C   UNL     1       4.189   5.904  18.111  0.00  0.00    +0.000 A 
ATOM     17  C   UNL     1       4.085   4.815  17.276  0.00  0.00    +0.000 A 
ATOM     18  N   UNL     1       3.018   3.984  17.252  0.00  0.00    +0.000 NA
ATOM     19  C   UNL     1       2.178   4.066  18.272  0.00  0.00    +0.000 A 
ATOM     20  C   UNL     1       1.459   2.900  18.544  0.00  0.00    +0.000 A 
ATOM     21  C   UNL     1       0.975   2.625  19.818  0.00  0.00    +0.000 A 
ATOM     22  C   UNL     1       1.170   3.572  20.811  0.00  0.00    +0.000 A 
ATOM     23  C   UNL     1       1.720   4.835  20.492  0.00  0.00    +0.000 A 
ATOM     24  C   UNL     1       2.203   5.163  19.167  0.00  0.00    +0.000 A 
ENDBRANCH  14  15
ENDBRANCH   1  13
TORSDOF 5
ENDMDL
MODEL 2
REMARK VINA RESULT:      -7.7      2.078      4.276
REMARK  Name = 
REMARK  7 active torsions:
REMARK  status: ('A' for Active; 'I' for Inactive)
REMARK    1  A    between atoms: C_1  and  O_2
REMARK    2  A    between atoms: O_2  and  C_3
REMARK    3  A    between atoms: C_6  and  C_7
REMARK    4  A    between atoms: C_7  and  C_9
REMARK    5  A    between atoms: C_10  and  C_11
REMARK    6  A    between atoms: C_21  and  O_22
REMARK    7  A    between atoms: O_22  and  C_23
REMARK                            x       y       z     vdW  Elec       q    Type
REMARK                         _______ _______ _______ _____ _____    ______ ____
ROOT
ATOM      1  C   UNL     1       2.057   8.944  18.176  0.00  0.00    +0.000 C 
ATOM      2  O   UNL     1       2.078   9.792  17.296  0.00  0.00    +0.000 OA
ENDROOT
BRANCH   1   6
ATOM      3  C   UNL     1      -0.266   9.831  21.893  0.00  0.00    +0.000 A 
ATOM      4  C   UNL     1       0.849   8.985  21.894  0.00  0.00    +0.000 A 
ATOM      5  C   UNL     1       1.555   8.653  20.696  0.00  0.00    +0.000 A 
ATOM      6  C   UNL     1       1.186   9.171  19.446  0.00  0.00    +0.000 A 
ATOM      7  C   UNL     1       0.081  10.091  19.474  0.00  0.00    +0.000 A 
ATOM      8  C   UNL     1      -0.655  10.357  20.676  0.00  0.00    +0.000 A 
BRANCH   3  10
ATOM      9  C   UNL     1      -1.617  11.272  23.296  0.00  0.00    +0.000 C 
ATOM     10  O   UNL     1      -0.848  10.078  23.111  0.00  0.00    +0.000 OA
ENDBRANCH   3  10
BRANCH   7  11
ATOM     11  O   UNL     1      -0.307  10.706  18.302  0.00  0.00    +0.000 OA
ATOM     12  C   UNL     1      -1.486  10.175  17.686  0.00  0.00    +0.000 C 
ENDBRANCH   7  11
ENDBRANCH   1   6
BRANCH   1  13
ATOM     13  C   UNL     1       2.951   7.682  17.963  0.00  0.00    +0.000 C 
ATOM     14  C   UNL     1       2.550   6.360  18.019  0.00  0.00    +0.000 C 
BRANCH  14  15
ATOM     15  C   UNL     1       3.393   5.073  17.695  0.00  0.00    +0.000 A 
ATOM     16  C   UNL     1       3.171   4.113  18.652  0.00  0.00    +0.000 A 
ATOM     17  C   UNL     1       4.234   3.810  19.472  0.00  0.00    +0.000 A 
ATOM     18  N   UNL     1       5.504   4.214  19.240  0.00  0.00    +0.000 NA
ATOM     19  C   UNL     1       5.768   4.676  18.027  0.00  0.00    +0.000 A 
ATOM     20  C   UNL     1       7.097   4.545  17.619  0.00  0.00    +0.000 A 
ATOM     21  C   UNL     1       7.439   4.463  16.273  0.00  0.00    +0.000 A 
ATOM     22  C   UNL     1       6.427   4.576  15.332  0.00  0.00    +0.000 A 
ATOM     23  C   UNL     1       5.113   4.907  15.736  0.00  0.00    +0.000 A 
ATOM     24  C   UNL     1       4.733   5.032  17.128  0.00  0.00    +0.000 A 
ENDBRANCH  14  15
ENDBRANCH   1  13
TORSDOF 5
ENDMDL
MODEL 3
REMARK VINA RESULT:      -7.6      1.412      2.439
REMARK  Name = 
REMARK  7 active torsions:
REMARK  status: ('A' for Active; 'I' for Inactive)
REMARK    1  A    between atoms: C_1  and  O_2
REMARK    2  A    between atoms: O_2  and  C_3
REMARK    3  A    between atoms: C_6  and  C_7
REMARK    4  A    between atoms: C_7  and  C_9
REMARK    5  A    between atoms: C_10  and  C_11
REMARK    6  A    between atoms: C_21  and  O_22
REMARK    7  A    between atoms: O_22  and  C_23
REMARK                            x       y       z     vdW  Elec       q    Type
REMARK                         _______ _______ _______ _____ _____    ______ ____
ROOT
ATOM      1  C   UNL     1       1.529   9.434  18.304  0.00  0.00    +0.000 C 
ATOM      2  O   UNL     1       2.256   9.936  17.459  0.00  0.00    +0.000 OA
ENDROOT
BRANCH   1   6
ATOM      3  C   UNL     1      -1.614  12.114  20.018  0.00  0.00    +0.000 A 
ATOM      4  C   UNL     1      -0.336  12.007  20.580  0.00  0.00    +0.000 A 
ATOM      5  C   UNL     1       0.649  11.106  20.069  0.00  0.00    +0.000 A 
ATOM      6  C   UNL     1       0.403  10.285  18.959  0.00  0.00    +0.000 A 
ATOM      7  C   UNL     1      -0.891  10.457  18.353  0.00  0.00    +0.000 A 
ATOM      8  C   UNL     1      -1.887  11.317  18.923  0.00  0.00    +0.000 A 
BRANCH   3  10
ATOM      9  C   UNL     1      -2.359  13.294  21.998  0.00  0.00    +0.000 C 
ATOM     10  O   UNL     1      -2.463  13.024  20.596  0.00  0.00    +0.000 OA
ENDBRANCH   3  10
BRANCH   7  11
ATOM     11  O   UNL     1      -1.195   9.743  17.213  0.00  0.00    +0.000 OA
ATOM     12  C   UNL     1      -2.521   9.929  16.703  0.00  0.00    +0.000 C 
ENDBRANCH   7  11
ENDBRANCH   1   6
BRANCH   1  13
ATOM     13  C   UNL     1       1.816   7.948  18.689  0.00  0.00    +0.000 C 
ATOM     14  C   UNL     1       2.746   7.104  18.108  0.00  0.00    +0.000 C 
BRANCH  14  15
ATOM     15  C   UNL     1       3.143   5.647  18.544  0.00  0.00    +0.000 A 
ATOM     16  C   UNL     1       3.697   4.974  17.483  0.00  0.00    +0.000 A 
ATOM     17  C   UNL     1       2.967   3.923  16.977  0.00  0.00    +0.000 A 
ATOM     18  N   UNL     1       1.891   3.386  17.596  0.00  0.00    +0.000 NA
ATOM     19  C   UNL     1       1.718   3.705  18.870  0.00  0.00    +0.000 A 
ATOM     20  C   UNL     1       1.015   2.765  19.627  0.00  0.00    +0.000 A 
ATOM     21  C   UNL     1       1.197   2.658  21.001  0.00  0.00    +0.000 A 
ATOM     22  C   UNL     1       2.054   3.553  21.621  0.00  0.00    +0.000 A 
ATOM     23  C   UNL     1       2.610   4.628  20.890  0.00  0.00    +0.000 A 
ATOM     24  C   UNL     1       2.413   4.786  19.464  0.00  0.00    +0.000 A 
ENDBRANCH  14  15
ENDBRANCH   1  13
TORSDOF 5
ENDMDL
MODEL 4
REMARK VINA RESULT:      -7.3      1.121      1.344
REMARK  Name = 
REMARK  7 active torsions:
REMARK  status: ('A' for Active; 'I' for Inactive)
REMARK    1  A    between atoms: C_1  and  O_2
REMARK    2  A    between atoms: O_2  and  C_3
REMARK    3  A    between atoms: C_6  and  C_7
REMARK    4  A    between atoms: C_7  and  C_9
REMARK    5  A    between atoms: C_10  and  C_11
REMARK    6  A    between atoms: C_21  and  O_22
REMARK    7  A    between atoms: O_22  and  C_23
REMARK                            x       y       z     vdW  Elec       q    Type
REMARK                         _______ _______ _______ _____ _____    ______ ____
ROOT
ATOM      1  C   UNL     1       1.591   9.968  18.120  0.00  0.00    +0.000 C 
ATOM      2  O   UNL     1       2.448  10.477  17.413  0.00  0.00    +0.000 OA
ENDROOT
BRANCH   1   6
ATOM      3  C   UNL     1      -2.118  12.120  19.391  0.00  0.00    +0.000 A 
ATOM      4  C   UNL     1      -2.160  10.898  18.708  0.00  0.00    +0.000 A 
ATOM      5  C   UNL     1      -0.977  10.241  18.248  0.00  0.00    +0.000 A 
ATOM      6  C   UNL     1       0.303  10.768  18.470  0.00  0.00    +0.000 A 
ATOM      7  C   UNL     1       0.331  11.988  19.232  0.00  0.00    +0.000 A 
ATOM      8  C   UNL     1      -0.871  12.666  19.624  0.00  0.00    +0.000 A 
BRANCH   3  10
ATOM      9  C   UNL     1      -3.595  12.806  21.183  0.00  0.00    +0.000 C 
ATOM     10  O   UNL     1      -3.323  12.642  19.787  0.00  0.00    +0.000 OA
ENDBRANCH   3  10
BRANCH   7  11
ATOM     11  O   UNL     1       1.550  12.543  19.561  0.00  0.00    +0.000 OA
ATOM     12  C   UNL     1       1.541  13.434  20.682  0.00  0.00    +0.000 C 
ENDBRANCH   7  11
ENDBRANCH   1   6
BRANCH   1  13
ATOM     13  C   UNL     1       1.878   8.529  18.652  0.00  0.00    +0.000 C 
ATOM     14  C   UNL     1       2.675   7.567  18.058  0.00  0.00    +0.000 C 
BRANCH  14  15
ATOM     15  C   UNL     1       3.080   6.155  18.621  0.00  0.00    +0.000 A 
ATOM     16  C   UNL     1       4.234   5.722  18.017  0.00  0.00    +0.000 A 
ATOM     17  C   UNL     1       4.116   4.633  17.185  0.00  0.00    +0.000 A 
ATOM     18  N   UNL     1       3.016   3.849  17.122  0.00  0.00    +0.000 NA
ATOM     19  C   UNL     1       2.139   3.975  18.106  0.00  0.00    +0.000 A 
ATOM     20  C   UNL     1       1.360   2.843  18.355  0.00  0.00    +0.000 A 
ATOM     21  C   UNL     1       0.813   2.600  19.610  0.00  0.00    +0.000 A 
ATOM     22  C   UNL     1       1.009   3.545  20.605  0.00  0.00    +0.000 A 
ATOM     23  C   UNL     1       1.625   4.781  20.301  0.00  0.00    +0.000 A 
ATOM     24  C   UNL     1       2.176   5.077  18.994  0.00  0.00    +0.000 A 
ENDBRANCH  14  15
ENDBRANCH   1  13
TORSDOF 5
ENDMDL
MODEL 5
REMARK VINA RESULT:      -7.3      3.195      8.441
REMARK  Name = 
REMARK  7 active torsions:
REMARK  status: ('A' for Active; 'I' for Inactive)
REMARK    1  A    between atoms: C_1  and  O_2
REMARK    2  A    between atoms: O_2  and  C_3
REMARK    3  A    between atoms: C_6  and  C_7
REMARK    4  A    between atoms: C_7  and  C_9
REMARK    5  A    between atoms: C_10  and  C_11
REMARK    6  A    between atoms: C_21  and  O_22
REMARK    7  A    between atoms: O_22  and  C_23
REMARK                            x       y       z     vdW  Elec       q    Type
REMARK                         _______ _______ _______ _____ _____    ______ ____
ROOT
ATOM      1  C   UNL     1       2.304   7.721  18.740  0.00  0.00    +0.000 C 
ATOM      2  O   UNL     1       2.286   7.649  19.960  0.00  0.00    +0.000 OA
ENDROOT
BRANCH   1   6
ATOM      3  C   UNL     1       4.928   4.786  16.619  0.00  0.00    +0.000 A 
ATOM      4  C   UNL     1       5.169   6.165  16.584  0.00  0.00    +0.000 A 
ATOM      5  C   UNL     1       4.297   7.108  17.211  0.00  0.00    +0.000 A 
ATOM      6  C   UNL     1       3.153   6.709  17.918  0.00  0.00    +0.000 A 
ATOM      7  C   UNL     1       2.958   5.286  18.001  0.00  0.00    +0.000 A 
ATOM      8  C   UNL     1       3.808   4.362  17.308  0.00  0.00    +0.000 A 
BRANCH   3  10
ATOM      9  C   UNL     1       6.739   4.563  15.025  0.00  0.00    +0.000 C 
ATOM     10  O   UNL     1       5.847   3.988  15.987  0.00  0.00    +0.000 OA
ENDBRANCH   3  10
BRANCH   7  11
ATOM     11  O   UNL     1       1.899   4.798  18.737  0.00  0.00    +0.000 OA
ATOM     12  C   UNL     1       1.367   3.542  18.298  0.00  0.00    +0.000 C 
ENDBRANCH   7  11
ENDBRANCH   1   6
BRANCH   1  13
ATOM     13  C   UNL     1       1.472   8.871  18.089  0.00  0.00    +0.000 C 
ATOM     14  C   UNL     1       0.329   9.462  18.598  0.00  0.00    +0.000 C 
BRANCH  14  15
ATOM     15  C   UNL     1      -0.463  10.696  18.030  0.00  0.00    +0.000 A 
ATOM     16  C   UNL     1      -0.074  11.841  18.679  0.00  0.00    +0.000 A 
ATOM     17  C   UNL     1      -1.016  12.436  19.488  0.00  0.00    +0.000 A 
ATOM     18  N   UNL     1      -2.327  12.102  19.489  0.00  0.00    +0.000 NA
ATOM     19  C   UNL     1      -2.755  11.375  18.468  0.00  0.00    +0.000 A 
ATOM     20  C   UNL     1      -4.111  11.518  18.166  0.00  0.00    +0.000 A 
ATOM     21  C   UNL     1      -4.598  11.287  16.884  0.00  0.00    +0.000 A 
ATOM     22  C   UNL     1      -3.709  10.850  15.914  0.00  0.00    +0.000 A 
ATOM     23  C   UNL     1      -2.381  10.514  16.266  0.00  0.00    +0.000 A 
ATOM     24  C   UNL     1      -1.853  10.712  17.600  0.00  0.00    +0.000 A 
ENDBRANCH  14  15
ENDBRANCH   1  13
TORSDOF 5
ENDMDL
MODEL 6
REMARK VINA RESULT:      -7.3      2.414      4.145
REMARK  Name = 
REMARK  7 active torsions:
REMARK  status: ('A' for Active; 'I' for Inactive)
REMARK    1  A    between atoms: C_1  and  O_2
REMARK    2  A    between atoms: O_2  and  C_3
REMARK    3  A    between atoms: C_6  and  C_7
REMARK    4  A    between atoms: C_7  and  C_9
REMARK    5  A    between atoms: C_10  and  C_11
REMARK    6  A    between atoms: C_21  and  O_22
REMARK    7  A    between atoms: O_22  and  C_23
REMARK                            x       y       z     vdW  Elec       q    Type
REMARK                         _______ _______ _______ _____ _____    ______ ____
ROOT
ATOM      1  C   UNL     1       1.687   9.674  18.291  0.00  0.00    +0.000 C 
ATOM      2  O   UNL     1       2.087  10.575  17.568  0.00  0.00    +0.000 OA
ENDROOT
BRANCH   1   6
ATOM      3  C   UNL     1      -0.458  10.776  22.058  0.00  0.00    +0.000 A 
ATOM      4  C   UNL     1       0.209   9.554  21.908  0.00  0.00    +0.000 A 
ATOM      5  C   UNL     1       0.843   9.176  20.684  0.00  0.00    +0.000 A 
ATOM      6  C   UNL     1       0.853  10.015  19.560  0.00  0.00    +0.000 A 
ATOM      7  C   UNL     1       0.222  11.294  19.753  0.00  0.00    +0.000 A 
ATOM      8  C   UNL     1      -0.466  11.625  20.968  0.00  0.00    +0.000 A 
BRANCH   3  10
ATOM      9  C   UNL     1      -2.243  11.757  23.369  0.00  0.00    +0.000 C 
ATOM     10  O   UNL     1      -1.016  11.023  23.287  0.00  0.00    +0.000 OA
ENDBRANCH   3  10
BRANCH   7  11
ATOM     11  O   UNL     1       0.246  12.213  18.726  0.00  0.00    +0.000 OA
ATOM     12  C   UNL     1      -1.021  12.782  18.376  0.00  0.00    +0.000 C 
ENDBRANCH   7  11
ENDBRANCH   1   6
BRANCH   1  13
ATOM     13  C   UNL     1       2.079   8.218  17.888  0.00  0.00    +0.000 C 
ATOM     14  C   UNL     1       3.353   7.678  17.859  0.00  0.00    +0.000 C 
BRANCH  14  15
ATOM     15  C   UNL     1       3.772   6.190  17.572  0.00  0.00    +0.000 A 
ATOM     16  C   UNL     1       3.360   5.380  18.602  0.00  0.00    +0.000 A 
ATOM     17  C   UNL     1       4.352   4.824  19.376  0.00  0.00    +0.000 A 
ATOM     18  N   UNL     1       5.664   4.837  19.044  0.00  0.00    +0.000 NA
ATOM     19  C   UNL     1       5.955   5.146  17.790  0.00  0.00    +0.000 A 
ATOM     20  C   UNL     1       7.159   4.621  17.315  0.00  0.00    +0.000 A 
ATOM     21  C   UNL     1       7.362   4.382  15.960  0.00  0.00    +0.000 A 
ATOM     22  C   UNL     1       6.357   4.736  15.074  0.00  0.00    +0.000 A 
ATOM     23  C   UNL     1       5.224   5.448  15.531  0.00  0.00    +0.000 A 
ATOM     24  C   UNL     1       4.999   5.741  16.931  0.00  0.00    +0.000 A 
ENDBRANCH  14  15
ENDBRANCH   1  13
TORSDOF 5
ENDMDL
MODEL 7
REMARK VINA RESULT:      -7.3      1.197      1.292
REMARK  Name = 
REMARK  7 active torsions:
REMARK  status: ('A' for Active; 'I' for Inactive)
REMARK    1  A    between atoms: C_1  and  O_2
REMARK    2  A    between atoms: O_2  and  C_3
REMARK    3  A    between atoms: C_6  and  C_7
REMARK    4  A    between atoms: C_7  and  C_9
REMARK    5  A    between atoms: C_10  and  C_11
REMARK    6  A    between atoms: C_21  and  O_22
REMARK    7  A    between atoms: O_22  and  C_23
REMARK                            x       y       z     vdW  Elec       q    Type
REMARK                         _______ _______ _______ _____ _____    ______ ____
ROOT
ATOM      1  C   UNL     1       0.680  10.044  20.128  0.00  0.00    +0.000 C 
ATOM      2  O   UNL     1       1.188  10.876  20.866  0.00  0.00    +0.000 OA
ENDROOT
BRANCH   1   6
ATOM      3  C   UNL     1      -2.784  11.023  17.474  0.00  0.00    +0.000 A 
ATOM      4  C   UNL     1      -1.787  10.115  17.096  0.00  0.00    +0.000 A 
ATOM      5  C   UNL     1      -0.649   9.847  17.918  0.00  0.00    +0.000 A 
ATOM      6  C   UNL     1      -0.468  10.464  19.165  0.00  0.00    +0.000 A 
ATOM      7  C   UNL     1      -1.535  11.342  19.566  0.00  0.00    +0.000 A 
ATOM      8  C   UNL     1      -2.634  11.647  18.697  0.00  0.00    +0.000 A 
BRANCH   3  10
ATOM      9  C   UNL     1      -5.043  11.790  17.057  0.00  0.00    +0.000 C 
ATOM     10  O   UNL     1      -3.830  11.182  16.600  0.00  0.00    +0.000 OA
ENDBRANCH   3  10
BRANCH   7  11
ATOM     11  O   UNL     1      -1.479  11.938  20.809  0.00  0.00    +0.000 OA
ATOM     12  C   UNL     1      -1.906  13.304  20.859  0.00  0.00    +0.000 C 
ENDBRANCH   7  11
ENDBRANCH   1   6
BRANCH   1  13
ATOM     13  C   UNL     1       1.219   8.583  20.234  0.00  0.00    +0.000 C 
ATOM     14  C   UNL     1       2.048   7.936  19.336  0.00  0.00    +0.000 C 
BRANCH  14  15
ATOM     15  C   UNL     1       2.703   6.512  19.469  0.00  0.00    +0.000 A 
ATOM     16  C   UNL     1       3.743   6.390  18.580  0.00  0.00    +0.000 A 
ATOM     17  C   UNL     1       3.566   5.494  17.551  0.00  0.00    +0.000 A 
ATOM     18  N   UNL     1       2.562   4.589  17.505  0.00  0.00    +0.000 NA
ATOM     19  C   UNL     1       1.903   4.375  18.633  0.00  0.00    +0.000 A 
ATOM     20  C   UNL     1       1.312   3.115  18.746  0.00  0.00    +0.000 A 
ATOM     21  C   UNL     1       1.067   2.535  19.986  0.00  0.00    +0.000 A 
ATOM     22  C   UNL     1       1.370   3.268  21.123  0.00  0.00    +0.000 A 
ATOM     23  C   UNL     1       1.780   4.617  21.012  0.00  0.00    +0.000 A 
ATOM     24  C   UNL     1       2.013   5.259  19.734  0.00  0.00    +0.000 A 
ENDBRANCH  14  15
ENDBRANCH   1  13
TORSDOF 5
ENDMDL
MODEL 8
REMARK VINA RESULT:      -7.3      1.242      1.634
REMARK  Name = 
REMARK  7 active torsions:
REMARK  status: ('A' for Active; 'I' for Inactive)
REMARK    1  A    between atoms: C_1  and  O_2
REMARK    2  A    between atoms: O_2  and  C_3
REMARK    3  A    between atoms: C_6  and  C_7
REMARK    4  A    between atoms: C_7  and  C_9
REMARK    5  A    between atoms: C_10  and  C_11
REMARK    6  A    between atoms: C_21  and  O_22
REMARK    7  A    between atoms: O_22  and  C_23
REMARK                            x       y       z     vdW  Elec       q    Type
REMARK                         _______ _______ _______ _____ _____    ______ ____
ROOT
ATOM      1  C   UNL     1       1.399   9.828  18.307  0.00  0.00    +0.000 C 
ATOM      2  O   UNL     1       2.138  10.354  17.487  0.00  0.00    +0.000 OA
ENDROOT
BRANCH   1   6
ATOM      3  C   UNL     1      -2.032  11.959  20.225  0.00  0.00    +0.000 A 
ATOM      4  C   UNL     1      -1.936  11.797  18.838  0.00  0.00    +0.000 A 
ATOM      5  C   UNL     1      -0.809  11.169  18.220  0.00  0.00    +0.000 A 
ATOM      6  C   UNL     1       0.262  10.658  18.968  0.00  0.00    +0.000 A 
ATOM      7  C   UNL     1       0.114  10.773  20.394  0.00  0.00    +0.000 A 
ATOM      8  C   UNL     1      -0.992  11.467  20.989  0.00  0.00    +0.000 A 
BRANCH   3  10
ATOM      9  C   UNL     1      -3.409  12.626  22.102  0.00  0.00    +0.000 C 
ATOM     10  O   UNL     1      -3.169  12.569  20.692  0.00  0.00    +0.000 OA
ENDBRANCH   3  10
BRANCH   7  11
ATOM     11  O   UNL     1       1.084  10.234  21.212  0.00  0.00    +0.000 OA
ATOM     12  C   UNL     1       0.605   9.605  22.406  0.00  0.00    +0.000 C 
ENDBRANCH   7  11
ENDBRANCH   1   6
BRANCH   1  13
ATOM     13  C   UNL     1       1.683   8.332  18.654  0.00  0.00    +0.000 C 
ATOM     14  C   UNL     1       2.829   7.614  18.363  0.00  0.00    +0.000 C 
BRANCH  14  15
ATOM     15  C   UNL     1       3.196   6.148  18.798  0.00  0.00    +0.000 A 
ATOM     16  C   UNL     1       4.264   5.695  18.064  0.00  0.00    +0.000 A 
ATOM     17  C   UNL     1       4.008   4.671  17.180  0.00  0.00    +0.000 A 
ATOM     18  N   UNL     1       2.861   3.954  17.170  0.00  0.00    +0.000 NA
ATOM     19  C   UNL     1       2.084   4.062  18.236  0.00  0.00    +0.000 A 
ATOM     20  C   UNL     1       1.262   2.960  18.485  0.00  0.00    +0.000 A 
ATOM     21  C   UNL     1       0.814   2.664  19.768  0.00  0.00    +0.000 A 
ATOM     22  C   UNL     1       1.153   3.528  20.797  0.00  0.00    +0.000 A 
ATOM     23  C   UNL     1       1.814   4.746  20.515  0.00  0.00    +0.000 A 
ATOM     24  C   UNL     1       2.265   5.098  19.185  0.00  0.00    +0.000 A 
ENDBRANCH  14  15
ENDBRANCH   1  13
TORSDOF 5
ENDMDL
MODEL 9
REMARK VINA RESULT:      -7.2      3.292      8.214
REMARK  Name = 
REMARK  7 active torsions:
REMARK  status: ('A' for Active; 'I' for Inactive)
REMARK    1  A    between atoms: C_1  and  O_2
REMARK    2  A    between atoms: O_2  and  C_3
REMARK    3  A    between atoms: C_6  and  C_7
REMARK    4  A    between atoms: C_7  and  C_9
REMARK    5  A    between atoms: C_10  and  C_11
REMARK    6  A    between atoms: C_21  and  O_22
REMARK    7  A    between atoms: O_22  and  C_23
REMARK                            x       y       z     vdW  Elec       q    Type
REMARK                         _______ _______ _______ _____ _____    ______ ____
ROOT
ATOM      1  C   UNL     1       2.507   6.379  19.525  0.00  0.00    +0.000 C 
ATOM      2  O   UNL     1       2.317   5.841  20.606  0.00  0.00    +0.000 OA
ENDROOT
BRANCH   1   6
ATOM      3  C   UNL     1       5.018   4.099  16.611  0.00  0.00    +0.000 A 
ATOM      4  C   UNL     1       5.509   5.204  17.315  0.00  0.00    +0.000 A 
ATOM      5  C   UNL     1       4.689   5.970  18.201  0.00  0.00    +0.000 A 
ATOM      6  C   UNL     1       3.344   5.650  18.436  0.00  0.00    +0.000 A 
ATOM      7  C   UNL     1       2.875   4.472  17.756  0.00  0.00    +0.000 A 
ATOM      8  C   UNL     1       3.695   3.758  16.820  0.00  0.00    +0.000 A 
BRANCH   3  10
ATOM      9  C   UNL     1       6.383   4.083  14.611  0.00  0.00    +0.000 C 
ATOM     10  O   UNL     1       5.909   3.443  15.800  0.00  0.00    +0.000 OA
ENDBRANCH   3  10
BRANCH   7  11
ATOM     11  O   UNL     1       1.586   4.038  17.983  0.00  0.00    +0.000 OA
ATOM     12  C   UNL     1       1.465   2.727  18.546  0.00  0.00    +0.000 C 
ENDBRANCH   7  11
ENDBRANCH   1   6
BRANCH   1  13
ATOM     13  C   UNL     1       1.902   7.806  19.332  0.00  0.00    +0.000 C 
ATOM     14  C   UNL     1       1.830   8.524  18.152  0.00  0.00    +0.000 C 
BRANCH  14  15
ATOM     15  C   UNL     1       1.125   9.907  17.897  0.00  0.00    +0.000 A 
ATOM     16  C   UNL     1       2.033  10.928  18.037  0.00  0.00    +0.000 A 
ATOM     17  C   UNL     1       1.845  11.769  19.110  0.00  0.00    +0.000 A 
ATOM     18  N   UNL     1       0.723  11.789  19.864  0.00  0.00    +0.000 NA
ATOM     19  C   UNL     1      -0.338  11.173  19.367  0.00  0.00    +0.000 A 
ATOM     20  C   UNL     1      -1.570  11.657  19.815  0.00  0.00    +0.000 A 
ATOM     21  C   UNL     1      -2.723  11.527  19.048  0.00  0.00    +0.000 A 
ATOM     22  C   UNL     1      -2.636  10.847  17.843  0.00  0.00    +0.000 A 
ATOM     23  C   UNL     1      -1.439  10.186  17.484  0.00  0.00    +0.000 A 
ATOM     24  C   UNL     1      -0.231  10.275  18.277  0.00  0.00    +0.000 A 
ENDBRANCH  14  15
ENDBRANCH   1  13
TORSDOF 5
ENDMDL
