MODEL 1
REMARK VINA RESULT:      -7.8      0.000      0.000
REMARK  Name = 
REMARK  8 active torsions:
REMARK  status: ('A' for Active; 'I' for Inactive)
REMARK    1  A    between atoms: C_1  and  C_2
REMARK    2  A    between atoms: C_2  and  N_3
REMARK    3  A    between atoms: N_3  and  C_4
REMARK    4  A    between atoms: C_4  and  C_5
REMARK    5  A    between atoms: C_6  and  C_8
REMARK    6  A    between atoms: C_12  and  C_13
REMARK    7  A    between atoms: C_20  and  C_21
REMARK    8  A    between atoms: C_26  and  N_27
REMARK                            x       y       z     vdW  Elec       q    Type
REMARK                         _______ _______ _______ _____ _____    ______ ____
ROOT
ATOM      1  C   UNL     1       2.572   6.750  18.966  0.00  0.00    +0.000 A 
ATOM      2  S   UNL     1       3.812   7.356  17.957  0.00  0.00    +0.000 S 
ATOM      3  C   UNL     1       4.063   5.852  17.224  0.00  0.00    +0.000 A 
ATOM      4  N   UNL     1       4.885   5.753  16.161  0.00  0.00    +0.000 NA
ATOM      5  C   UNL     1       5.115   4.501  15.724  0.00  0.00    +0.000 A 
ATOM      6  C   UNL     1       4.606   3.379  16.374  0.00  0.00    +0.000 A 
ATOM      7  C   UNL     1       3.748   3.508  17.482  0.00  0.00    +0.000 A 
ATOM      8  C   UNL     1       3.403   4.823  17.880  0.00  0.00    +0.000 A 
ATOM      9  C   UNL     1       2.477   5.370  18.837  0.00  0.00    +0.000 A 
ENDROOT
BRANCH   5  10
ATOM     10  C   UNL     1       5.919   4.380  14.488  0.00  0.00    +0.000 A 
ATOM     11  C   UNL     1       5.520   3.552  13.421  0.00  0.00    +0.000 A 
ATOM     12  C   UNL     1       6.239   3.510  12.223  0.00  0.00    +0.000 A 
ATOM     13  C   UNL     1       7.383   4.286  12.069  0.00  0.00    +0.000 A 
ATOM     14  C   UNL     1       7.816   5.092  13.116  0.00  0.00    +0.000 A 
ATOM     15  C   UNL     1       7.093   5.135  14.313  0.00  0.00    +0.000 A 
ENDBRANCH   5  10
BRANCH   7  16
ATOM     16  C   UNL     1       3.287   2.275  18.203  0.00  0.00    +0.000 C 
ATOM     17  F   UNL     1       3.517   2.316  19.546  0.00  0.00    +0.000 F 
ATOM     18  F   UNL     1       1.949   2.062  18.072  0.00  0.00    +0.000 F 
ATOM     19  F   UNL     1       3.890   1.135  17.763  0.00  0.00    +0.000 F 
ENDBRANCH   7  16
BRANCH   1  21
ATOM     20  N   UNL     1       1.394   8.880  19.561  0.00  0.00    +0.000 N 
ATOM     21  C   UNL     1       1.881   7.597  19.934  0.00  0.00    +0.000 C 
ATOM     22  O   UNL     1       1.672   7.188  21.081  0.00  0.00    +0.000 OA
BRANCH  20  24
ATOM     23  C   UNL     1      -0.526  10.170  20.477  0.00  0.00    +0.000 C 
ATOM     24  C   UNL     1       0.923   9.740  20.645  0.00  0.00    +0.000 C 
ENDBRANCH  20  24
BRANCH  20  25
ATOM     25  C   UNL     1       1.436   9.375  18.180  0.00  0.00    +0.000 C 
ATOM     26  C   UNL     1       2.040  10.744  17.904  0.00  0.00    +0.000 C 
ENDBRANCH  20  25
ENDBRANCH   1  21
BRANCH   9  27
ATOM     27  N   UNL     1       1.579   4.631  19.531  0.00  0.00    +0.000 N 
ATOM     28  H   UNL     1       1.537   3.617  19.542  0.00  0.00    +0.000 HD
ATOM     29  H   UNL     1       1.004   5.056  20.261  0.00  0.00    +0.000 HD
ENDBRANCH   9  27
TORSDOF 6
ENDMDL
MODEL 2
REMARK VINA RESULT:      -7.7      0.105      1.172
REMARK  Name = 
REMARK  8 active torsions:
REMARK  status: ('A' for Active; 'I' for Inactive)
REMARK    1  A    between atoms: C_1  and  C_2
REMARK    2  A    between atoms: C_2  and  N_3
REMARK    3  A    between atoms: N_3  and  C_4
REMARK    4  A    between atoms: C_4  and  C_5
REMARK    5  A    between atoms: C_6  and  C_8
REMARK    6  A    between atoms: C_12  and  C_13
REMARK    7  A    between atoms: C_20  and  C_21
REMARK    8  A    between atoms: C_26  and  N_27
REMARK                            x       y       z     vdW  Elec       q    Type
REMARK                         _______ _______ _______ _____ _____    ______ ____
ROOT
ATOM      1  C   UNL     1       2.556   6.740  19.034  0.00  0.00    +0.000 A 
ATOM      2  S   UNL     1       3.756   7.371  17.992  0.00  0.00    +0.000 S 
ATOM      3  C   UNL     1       4.013   5.873  17.248  0.00  0.00    +0.000 A 
ATOM      4  N   UNL     1       4.806   5.790  16.162  0.00  0.00    +0.000 NA
ATOM      5  C   UNL     1       5.046   4.543  15.716  0.00  0.00    +0.000 A 
ATOM      6  C   UNL     1       4.576   3.412  16.377  0.00  0.00    +0.000 A 
ATOM      7  C   UNL     1       3.747   3.523  17.509  0.00  0.00    +0.000 A 
ATOM      8  C   UNL     1       3.390   4.830  17.920  0.00  0.00    +0.000 A 
ATOM      9  C   UNL     1       2.482   5.359  18.904  0.00  0.00    +0.000 A 
ENDROOT
BRANCH   5  10
ATOM     10  C   UNL     1       5.817   4.440  14.457  0.00  0.00    +0.000 A 
ATOM     11  C   UNL     1       7.040   5.114  14.278  0.00  0.00    +0.000 A 
ATOM     12  C   UNL     1       7.805   4.943  13.121  0.00  0.00    +0.000 A 
ATOM     13  C   UNL     1       7.355   4.104  12.107  0.00  0.00    +0.000 A 
ATOM     14  C   UNL     1       6.136   3.447  12.243  0.00  0.00    +0.000 A 
ATOM     15  C   UNL     1       5.375   3.617  13.404  0.00  0.00    +0.000 A 
ENDBRANCH   5  10
BRANCH   7  16
ATOM     16  C   UNL     1       3.330   2.280  18.239  0.00  0.00    +0.000 C 
ATOM     17  F   UNL     1       1.987   2.047  18.186  0.00  0.00    +0.000 F 
ATOM     18  F   UNL     1       3.911   1.157  17.736  0.00  0.00    +0.000 F 
ATOM     19  F   UNL     1       3.645   2.300  19.564  0.00  0.00    +0.000 F 
ENDBRANCH   7  16
BRANCH   1  21
ATOM     20  N   UNL     1       1.349   8.844  19.665  0.00  0.00    +0.000 N 
ATOM     21  C   UNL     1       1.877   7.573  20.023  0.00  0.00    +0.000 C 
ATOM     22  O   UNL     1       1.716   7.161  21.176  0.00  0.00    +0.000 OA
BRANCH  20  24
ATOM     23  C   UNL     1      -0.502  10.256  20.541  0.00  0.00    +0.000 C 
ATOM     24  C   UNL     1       0.894   9.694  20.763  0.00  0.00    +0.000 C 
ENDBRANCH  20  24
BRANCH  20  25
ATOM     25  C   UNL     1       1.334   9.337  18.282  0.00  0.00    +0.000 C 
ATOM     26  C   UNL     1       1.993  10.672  17.968  0.00  0.00    +0.000 C 
ENDBRANCH  20  25
ENDBRANCH   1  21
BRANCH   9  27
ATOM     27  N   UNL     1       1.618   4.603  19.622  0.00  0.00    +0.000 N 
ATOM     28  H   UNL     1       0.763   4.188  19.263  0.00  0.00    +0.000 HD
ATOM     29  H   UNL     1       1.883   4.230  20.536  0.00  0.00    +0.000 HD
ENDBRANCH   9  27
TORSDOF 6
ENDMDL
MODEL 3
REMARK VINA RESULT:      -7.7      2.422      7.454
REMARK  Name = 
REMARK  8 active torsions:
REMARK  status: ('A' for Active; 'I' for Inactive)
REMARK    1  A    between atoms: C_1  and  C_2
REMARK    2  A    between atoms: C_2  and  N_3
REMARK    3  A    between atoms: N_3  and  C_4
REMARK    4  A    between atoms: C_4  and  C_5
REMARK    5  A    between atoms: C_6  and  C_8
REMARK    6  A    between atoms: C_12  and  C_13
REMARK    7  A    between atoms: C_20  and  C_21
REMARK    8  A    between atoms: C_26  and  N_27
REMARK                            x       y       z     vdW  Elec       q    Type
REMARK                         _______ _______ _______ _____ _____    ______ ____
ROOT
ATOM      1  C   UNL     1       4.690   5.070  17.629  0.00  0.00    +0.000 A 
ATOM      2  S   UNL     1       3.956   6.603  17.444  0.00  0.00    +0.000 S 
ATOM      3  C   UNL     1       3.049   6.431  18.862  0.00  0.00    +0.000 A 
ATOM      4  N   UNL     1       2.342   7.474  19.337  0.00  0.00    +0.000 NA
ATOM      5  C   UNL     1       1.559   7.206  20.399  0.00  0.00    +0.000 A 
ATOM      6  C   UNL     1       1.424   5.922  20.920  0.00  0.00    +0.000 A 
ATOM      7  C   UNL     1       2.176   4.847  20.408  0.00  0.00    +0.000 A 
ATOM      8  C   UNL     1       3.091   5.139  19.368  0.00  0.00    +0.000 A 
ATOM      9  C   UNL     1       4.113   4.384  18.690  0.00  0.00    +0.000 A 
ENDROOT
BRANCH   5  10
ATOM     10  C   UNL     1       0.866   8.364  21.006  0.00  0.00    +0.000 A 
ATOM     11  C   UNL     1       0.451   8.359  22.351  0.00  0.00    +0.000 A 
ATOM     12  C   UNL     1      -0.124   9.487  22.941  0.00  0.00    +0.000 A 
ATOM     13  C   UNL     1      -0.311  10.646  22.194  0.00  0.00    +0.000 A 
ATOM     14  C   UNL     1       0.064  10.671  20.854  0.00  0.00    +0.000 A 
ATOM     15  C   UNL     1       0.643   9.541  20.267  0.00  0.00    +0.000 A 
ENDBRANCH   5  10
BRANCH   7  16
ATOM     16  C   UNL     1       1.941   3.465  20.944  0.00  0.00    +0.000 C 
ATOM     17  F   UNL     1       2.970   3.000  21.709  0.00  0.00    +0.000 F 
ATOM     18  F   UNL     1       0.839   3.393  21.740  0.00  0.00    +0.000 F 
ATOM     19  F   UNL     1       1.758   2.531  19.970  0.00  0.00    +0.000 F 
ENDBRANCH   7  16
BRANCH   1  21
ATOM     20  N   UNL     1       6.845   5.266  16.364  0.00  0.00    +0.000 N 
ATOM     21  C   UNL     1       5.651   4.552  16.659  0.00  0.00    +0.000 C 
ATOM     22  O   UNL     1       5.456   3.460  16.115  0.00  0.00    +0.000 OA
BRANCH  20  24
ATOM     23  C   UNL     1       6.947   5.046  13.888  0.00  0.00    +0.000 C 
ATOM     24  C   UNL     1       7.626   4.789  15.225  0.00  0.00    +0.000 C 
ENDBRANCH  20  24
BRANCH  20  25
ATOM     25  C   UNL     1       7.246   6.477  17.091  0.00  0.00    +0.000 C 
ATOM     26  C   UNL     1       7.770   6.343  18.514  0.00  0.00    +0.000 C 
ENDBRANCH  20  25
ENDBRANCH   1  21
BRANCH   9  27
ATOM     27  N   UNL     1       4.501   3.138  19.053  0.00  0.00    +0.000 N 
ATOM     28  H   UNL     1       4.920   2.451  18.434  0.00  0.00    +0.000 HD
ATOM     29  H   UNL     1       4.580   2.881  20.038  0.00  0.00    +0.000 HD
ENDBRANCH   9  27
TORSDOF 6
ENDMDL
MODEL 4
REMARK VINA RESULT:      -7.7      2.402      7.501
REMARK  Name = 
REMARK  8 active torsions:
REMARK  status: ('A' for Active; 'I' for Inactive)
REMARK    1  A    between atoms: C_1  and  C_2
REMARK    2  A    between atoms: C_2  and  N_3
REMARK    3  A    between atoms: N_3  and  C_4
REMARK    4  A    between atoms: C_4  and  C_5
REMARK    5  A    between atoms: C_6  and  C_8
REMARK    6  A    between atoms: C_12  and  C_13
REMARK    7  A    between atoms: C_20  and  C_21
REMARK    8  A    between atoms: C_26  and  N_27
REMARK                            x       y       z     vdW  Elec       q    Type
REMARK                         _______ _______ _______ _____ _____    ______ ____
ROOT
ATOM      1  C   UNL     1       4.685   5.091  17.598  0.00  0.00    +0.000 A 
ATOM      2  S   UNL     1       3.971   6.635  17.423  0.00  0.00    +0.000 S 
ATOM      3  C   UNL     1       3.070   6.469  18.846  0.00  0.00    +0.000 A 
ATOM      4  N   UNL     1       2.380   7.520  19.329  0.00  0.00    +0.000 NA
ATOM      5  C   UNL     1       1.599   7.259  20.393  0.00  0.00    +0.000 A 
ATOM      6  C   UNL     1       1.450   5.974  20.910  0.00  0.00    +0.000 A 
ATOM      7  C   UNL     1       2.184   4.892  20.391  0.00  0.00    +0.000 A 
ATOM      8  C   UNL     1       3.097   5.175  19.347  0.00  0.00    +0.000 A 
ATOM      9  C   UNL     1       4.104   4.409  18.660  0.00  0.00    +0.000 A 
ENDROOT
BRANCH   5  10
ATOM     10  C   UNL     1       0.926   8.424  21.009  0.00  0.00    +0.000 A 
ATOM     11  C   UNL     1       0.390   9.468  20.230  0.00  0.00    +0.000 A 
ATOM     12  C   UNL     1      -0.320  10.522  20.813  0.00  0.00    +0.000 A 
ATOM     13  C   UNL     1      -0.498  10.563  22.192  0.00  0.00    +0.000 A 
ATOM     14  C   UNL     1       0.044   9.560  22.989  0.00  0.00    +0.000 A 
ATOM     15  C   UNL     1       0.751   8.505  22.403  0.00  0.00    +0.000 A 
ENDBRANCH   5  10
BRANCH   7  16
ATOM     16  C   UNL     1       1.933   3.511  20.923  0.00  0.00    +0.000 C 
ATOM     17  F   UNL     1       1.741   2.581  19.944  0.00  0.00    +0.000 F 
ATOM     18  F   UNL     1       2.971   3.042  21.668  0.00  0.00    +0.000 F 
ATOM     19  F   UNL     1       0.835   3.432  21.724  0.00  0.00    +0.000 F 
ENDBRANCH   7  16
BRANCH   1  21
ATOM     20  N   UNL     1       6.837   5.260  16.325  0.00  0.00    +0.000 N 
ATOM     21  C   UNL     1       5.633   4.563  16.621  0.00  0.00    +0.000 C 
ATOM     22  O   UNL     1       5.418   3.479  16.071  0.00  0.00    +0.000 OA
BRANCH  20  24
ATOM     23  C   UNL     1       6.921   5.046  13.848  0.00  0.00    +0.000 C 
ATOM     24  C   UNL     1       7.606   4.777  15.180  0.00  0.00    +0.000 C 
ENDBRANCH  20  24
BRANCH  20  25
ATOM     25  C   UNL     1       7.261   6.459  17.059  0.00  0.00    +0.000 C 
ATOM     26  C   UNL     1       7.762   6.311  18.488  0.00  0.00    +0.000 C 
ENDBRANCH  20  25
ENDBRANCH   1  21
BRANCH   9  27
ATOM     27  N   UNL     1       4.477   3.156  19.015  0.00  0.00    +0.000 N 
ATOM     28  H   UNL     1       4.268   2.712  19.904  0.00  0.00    +0.000 HD
ATOM     29  H   UNL     1       4.827   2.496  18.318  0.00  0.00    +0.000 HD
ENDBRANCH   9  27
TORSDOF 6
ENDMDL
MODEL 5
REMARK VINA RESULT:      -7.4      2.366      7.425
REMARK  Name = 
REMARK  8 active torsions:
REMARK  status: ('A' for Active; 'I' for Inactive)
REMARK    1  A    between atoms: C_1  and  C_2
REMARK    2  A    between atoms: C_2  and  N_3
REMARK    3  A    between atoms: N_3  and  C_4
REMARK    4  A    between atoms: C_4  and  C_5
REMARK    5  A    between atoms: C_6  and  C_8
REMARK    6  A    between atoms: C_12  and  C_13
REMARK    7  A    between atoms: C_20  and  C_21
REMARK    8  A    between atoms: C_26  and  N_27
REMARK                            x       y       z     vdW  Elec       q    Type
REMARK                         _______ _______ _______ _____ _____    ______ ____
ROOT
ATOM      1  C   UNL     1       5.765   5.154  15.287  0.00  0.00    +0.000 A 
ATOM      2  S   UNL     1       5.054   6.703  15.426  0.00  0.00    +0.000 S 
ATOM      3  C   UNL     1       4.177   6.267  16.805  0.00  0.00    +0.000 A 
ATOM      4  N   UNL     1       3.499   7.206  17.494  0.00  0.00    +0.000 NA
ATOM      5  C   UNL     1       2.736   6.744  18.502  0.00  0.00    +0.000 A 
ATOM      6  C   UNL     1       2.590   5.384  18.763  0.00  0.00    +0.000 A 
ATOM      7  C   UNL     1       3.310   4.422  18.032  0.00  0.00    +0.000 A 
ATOM      8  C   UNL     1       4.207   4.901  17.047  0.00  0.00    +0.000 A 
ATOM      9  C   UNL     1       5.199   4.280  16.207  0.00  0.00    +0.000 A 
ENDROOT
BRANCH   5  10
ATOM     10  C   UNL     1       2.078   7.769  19.342  0.00  0.00    +0.000 A 
ATOM     11  C   UNL     1       1.656   9.004  18.813  0.00  0.00    +0.000 A 
ATOM     12  C   UNL     1       0.959   9.931  19.591  0.00  0.00    +0.000 A 
ATOM     13  C   UNL     1       0.679   9.651  20.925  0.00  0.00    +0.000 A 
ATOM     14  C   UNL     1       1.108   8.450  21.483  0.00  0.00    +0.000 A 
ATOM     15  C   UNL     1       1.803   7.522  20.700  0.00  0.00    +0.000 A 
ENDBRANCH   5  10
BRANCH   7  16
ATOM     16  C   UNL     1       3.063   2.964  18.292  0.00  0.00    +0.000 C 
ATOM     17  F   UNL     1       4.154   2.311  18.786  0.00  0.00    +0.000 F 
ATOM     18  F   UNL     1       2.074   2.756  19.204  0.00  0.00    +0.000 F 
ATOM     19  F   UNL     1       2.695   2.271  17.179  0.00  0.00    +0.000 F 
ENDBRANCH   7  16
BRANCH   1  21
ATOM     20  N   UNL     1       6.275   4.029  13.107  0.00  0.00    +0.000 N 
ATOM     21  C   UNL     1       6.694   4.824  14.209  0.00  0.00    +0.000 C 
ATOM     22  O   UNL     1       7.844   5.272  14.222  0.00  0.00    +0.000 OA
BRANCH  20  24
ATOM     23  C   UNL     1       7.027   2.203  11.593  0.00  0.00    +0.000 C 
ATOM     24  C   UNL     1       7.325   3.566  12.202  0.00  0.00    +0.000 C 
ENDBRANCH  20  24
BRANCH  20  25
ATOM     25  C   UNL     1       4.883   3.605  12.916  0.00  0.00    +0.000 C 
ATOM     26  C   UNL     1       4.316   3.547  11.505  0.00  0.00    +0.000 C 
ENDBRANCH  20  25
ENDBRANCH   1  21
BRANCH   9  27
ATOM     27  N   UNL     1       5.573   2.982  16.308  0.00  0.00    +0.000 N 
ATOM     28  H   UNL     1       5.279   2.342  17.039  0.00  0.00    +0.000 HD
ATOM     29  H   UNL     1       6.024   2.505  15.524  0.00  0.00    +0.000 HD
ENDBRANCH   9  27
TORSDOF 6
ENDMDL
MODEL 6
REMARK VINA RESULT:      -7.4      0.804      1.148
REMARK  Name = 
REMARK  8 active torsions:
REMARK  status: ('A' for Active; 'I' for Inactive)
REMARK    1  A    between atoms: C_1  and  C_2
REMARK    2  A    between atoms: C_2  and  N_3
REMARK    3  A    between atoms: N_3  and  C_4
REMARK    4  A    between atoms: C_4  and  C_5
REMARK    5  A    between atoms: C_6  and  C_8
REMARK    6  A    between atoms: C_12  and  C_13
REMARK    7  A    between atoms: C_20  and  C_21
REMARK    8  A    between atoms: C_26  and  N_27
REMARK                            x       y       z     vdW  Elec       q    Type
REMARK                         _______ _______ _______ _____ _____    ______ ____
ROOT
ATOM      1  C   UNL     1       2.459   7.217  19.113  0.00  0.00    +0.000 A 
ATOM      2  S   UNL     1       3.610   7.755  17.969  0.00  0.00    +0.000 S 
ATOM      3  C   UNL     1       3.911   6.185  17.412  0.00  0.00    +0.000 A 
ATOM      4  N   UNL     1       4.683   5.996  16.325  0.00  0.00    +0.000 NA
ATOM      5  C   UNL     1       4.963   4.712  16.033  0.00  0.00    +0.000 A 
ATOM      6  C   UNL     1       4.554   3.657  16.844  0.00  0.00    +0.000 A 
ATOM      7  C   UNL     1       3.745   3.880  17.974  0.00  0.00    +0.000 A 
ATOM      8  C   UNL     1       3.345   5.214  18.226  0.00  0.00    +0.000 A 
ATOM      9  C   UNL     1       2.438   5.829  19.160  0.00  0.00    +0.000 A 
ENDROOT
BRANCH   5  10
ATOM     10  C   UNL     1       5.710   4.479  14.777  0.00  0.00    +0.000 A 
ATOM     11  C   UNL     1       5.160   3.739  13.713  0.00  0.00    +0.000 A 
ATOM     12  C   UNL     1       5.836   3.596  12.498  0.00  0.00    +0.000 A 
ATOM     13  C   UNL     1       7.087   4.179  12.324  0.00  0.00    +0.000 A 
ATOM     14  C   UNL     1       7.668   4.892  13.368  0.00  0.00    +0.000 A 
ATOM     15  C   UNL     1       6.987   5.036  14.582  0.00  0.00    +0.000 A 
ENDBRANCH   5  10
BRANCH   7  16
ATOM     16  C   UNL     1       3.394   2.725  18.865  0.00  0.00    +0.000 C 
ATOM     17  F   UNL     1       2.053   2.481  18.931  0.00  0.00    +0.000 F 
ATOM     18  F   UNL     1       3.954   1.555  18.451  0.00  0.00    +0.000 F 
ATOM     19  F   UNL     1       3.798   2.894  20.154  0.00  0.00    +0.000 F 
ENDBRANCH   7  16
BRANCH   1  21
ATOM     20  N   UNL     1       0.961   9.191  19.487  0.00  0.00    +0.000 N 
ATOM     21  C   UNL     1       1.769   8.143  20.008  0.00  0.00    +0.000 C 
ATOM     22  O   UNL     1       1.844   7.996  21.231  0.00  0.00    +0.000 OA
BRANCH  20  24
ATOM     23  C   UNL     1       1.227  11.525  20.308  0.00  0.00    +0.000 C 
ATOM     24  C   UNL     1       0.499  10.195  20.443  0.00  0.00    +0.000 C 
ENDBRANCH  20  24
BRANCH  20  25
ATOM     25  C   UNL     1       0.668   9.332  18.056  0.00  0.00    +0.000 C 
ATOM     26  C   UNL     1      -0.679   9.901  17.631  0.00  0.00    +0.000 C 
ENDBRANCH  20  25
ENDBRANCH   1  21
BRANCH   9  27
ATOM     27  N   UNL     1       1.620   5.138  19.989  0.00  0.00    +0.000 N 
ATOM     28  H   UNL     1       0.764   4.667  19.712  0.00  0.00    +0.000 HD
ATOM     29  H   UNL     1       1.928   4.874  20.927  0.00  0.00    +0.000 HD
ENDBRANCH   9  27
TORSDOF 6
ENDMDL
MODEL 7
REMARK VINA RESULT:      -7.3      2.287      7.369
REMARK  Name = 
REMARK  8 active torsions:
REMARK  status: ('A' for Active; 'I' for Inactive)
REMARK    1  A    between atoms: C_1  and  C_2
REMARK    2  A    between atoms: C_2  and  N_3
REMARK    3  A    between atoms: N_3  and  C_4
REMARK    4  A    between atoms: C_4  and  C_5
REMARK    5  A    between atoms: C_6  and  C_8
REMARK    6  A    between atoms: C_12  and  C_13
REMARK    7  A    between atoms: C_20  and  C_21
REMARK    8  A    between atoms: C_26  and  N_27
REMARK                            x       y       z     vdW  Elec       q    Type
REMARK                         _______ _______ _______ _____ _____    ______ ____
ROOT
ATOM      1  C   UNL     1       5.639   5.273  15.689  0.00  0.00    +0.000 A 
ATOM      2  S   UNL     1       4.971   6.841  15.833  0.00  0.00    +0.000 S 
ATOM      3  C   UNL     1       4.002   6.396  17.146  0.00  0.00    +0.000 A 
ATOM      4  N   UNL     1       3.316   7.338  17.823  0.00  0.00    +0.000 NA
ATOM      5  C   UNL     1       2.481   6.875  18.771  0.00  0.00    +0.000 A 
ATOM      6  C   UNL     1       2.277   5.514  18.984  0.00  0.00    +0.000 A 
ATOM      7  C   UNL     1       3.007   4.548  18.267  0.00  0.00    +0.000 A 
ATOM      8  C   UNL     1       3.974   5.024  17.349  0.00  0.00    +0.000 A 
ATOM      9  C   UNL     1       4.993   4.394  16.549  0.00  0.00    +0.000 A 
ENDROOT
BRANCH   5  10
ATOM     10  C   UNL     1       1.809   7.898  19.603  0.00  0.00    +0.000 A 
ATOM     11  C   UNL     1       1.559   7.693  20.973  0.00  0.00    +0.000 A 
ATOM     12  C   UNL     1       1.003   8.697  21.771  0.00  0.00    +0.000 A 
ATOM     13  C   UNL     1       0.669   9.926  21.212  0.00  0.00    +0.000 A 
ATOM     14  C   UNL     1       0.879  10.147  19.854  0.00  0.00    +0.000 A 
ATOM     15  C   UNL     1       1.439   9.142  19.059  0.00  0.00    +0.000 A 
ENDBRANCH   5  10
BRANCH   7  16
ATOM     16  C   UNL     1       2.699   3.094  18.469  0.00  0.00    +0.000 C 
ATOM     17  F   UNL     1       3.723   2.399  19.043  0.00  0.00    +0.000 F 
ATOM     18  F   UNL     1       1.627   2.895  19.284  0.00  0.00    +0.000 F 
ATOM     19  F   UNL     1       2.414   2.435  17.312  0.00  0.00    +0.000 F 
ENDBRANCH   7  16
BRANCH   1  21
ATOM     20  N   UNL     1       6.226   4.243  13.481  0.00  0.00    +0.000 N 
ATOM     21  C   UNL     1       6.617   4.942  14.657  0.00  0.00    +0.000 C 
ATOM     22  O   UNL     1       7.791   5.307  14.774  0.00  0.00    +0.000 OA
BRANCH  20  24
ATOM     23  C   UNL     1       7.651   4.732  11.501  0.00  0.00    +0.000 C 
ATOM     24  C   UNL     1       7.304   3.761  12.620  0.00  0.00    +0.000 C 
ENDBRANCH  20  24
BRANCH  20  25
ATOM     25  C   UNL     1       4.825   3.929  13.173  0.00  0.00    +0.000 C 
ATOM     26  C   UNL     1       4.489   3.302  11.827  0.00  0.00    +0.000 C 
ENDBRANCH  20  25
ENDBRANCH   1  21
BRANCH   9  27
ATOM     27  N   UNL     1       5.319   3.082  16.632  0.00  0.00    +0.000 N 
ATOM     28  H   UNL     1       6.258   2.717  16.758  0.00  0.00    +0.000 HD
ATOM     29  H   UNL     1       4.598   2.372  16.779  0.00  0.00    +0.000 HD
ENDBRANCH   9  27
TORSDOF 6
ENDMDL
MODEL 8
REMARK VINA RESULT:      -7.1      3.620      8.244
REMARK  Name = 
REMARK  8 active torsions:
REMARK  status: ('A' for Active; 'I' for Inactive)
REMARK    1  A    between atoms: C_1  and  C_2
REMARK    2  A    between atoms: C_2  and  N_3
REMARK    3  A    between atoms: N_3  and  C_4
REMARK    4  A    between atoms: C_4  and  C_5
REMARK    5  A    between atoms: C_6  and  C_8
REMARK    6  A    between atoms: C_12  and  C_13
REMARK    7  A    between atoms: C_20  and  C_21
REMARK    8  A    between atoms: C_26  and  N_27
REMARK                            x       y       z     vdW  Elec       q    Type
REMARK                         _______ _______ _______ _____ _____    ______ ____
ROOT
ATOM      1  C   UNL     1       2.434   6.934  18.657  0.00  0.00    +0.000 A 
ATOM      2  S   UNL     1       2.471   8.196  17.503  0.00  0.00    +0.000 S 
ATOM      3  C   UNL     1       1.930   9.345  18.621  0.00  0.00    +0.000 A 
ATOM      4  N   UNL     1       1.912  10.650  18.286  0.00  0.00    +0.000 NA
ATOM      5  C   UNL     1       1.354  11.471  19.194  0.00  0.00    +0.000 A 
ATOM      6  C   UNL     1       0.761  10.997  20.362  0.00  0.00    +0.000 A 
ATOM      7  C   UNL     1       0.795   9.630  20.692  0.00  0.00    +0.000 A 
ATOM      8  C   UNL     1       1.483   8.770  19.802  0.00  0.00    +0.000 A 
ATOM      9  C   UNL     1       1.859   7.380  19.839  0.00  0.00    +0.000 A 
ENDROOT
BRANCH   5  10
ATOM     10  C   UNL     1       1.430  12.919  18.897  0.00  0.00    +0.000 A 
ATOM     11  C   UNL     1       0.332  13.777  19.098  0.00  0.00    +0.000 A 
ATOM     12  C   UNL     1       0.438  15.155  18.898  0.00  0.00    +0.000 A 
ATOM     13  C   UNL     1       1.643  15.708  18.476  0.00  0.00    +0.000 A 
ATOM     14  C   UNL     1       2.737  14.881  18.242  0.00  0.00    +0.000 A 
ATOM     15  C   UNL     1       2.629  13.501  18.447  0.00  0.00    +0.000 A 
ENDBRANCH   5  10
BRANCH   7  16
ATOM     16  C   UNL     1       0.075   9.151  21.919  0.00  0.00    +0.000 C 
ATOM     17  F   UNL     1      -0.749  10.092  22.463  0.00  0.00    +0.000 F 
ATOM     18  F   UNL     1      -0.721   8.075  21.672  0.00  0.00    +0.000 F 
ATOM     19  F   UNL     1       0.912   8.772  22.924  0.00  0.00    +0.000 F 
ENDBRANCH   7  16
BRANCH   1  21
ATOM     20  N   UNL     1       4.168   5.181  18.209  0.00  0.00    +0.000 N 
ATOM     21  C   UNL     1       2.802   5.563  18.314  0.00  0.00    +0.000 C 
ATOM     22  O   UNL     1       1.926   4.707  18.155  0.00  0.00    +0.000 OA
BRANCH  20  24
ATOM     23  C   UNL     1       4.975   3.918  16.223  0.00  0.00    +0.000 C 
ATOM     24  C   UNL     1       4.433   3.860  17.644  0.00  0.00    +0.000 C 
ENDBRANCH  20  24
BRANCH  20  25
ATOM     25  C   UNL     1       5.274   6.082  18.556  0.00  0.00    +0.000 C 
ATOM     26  C   UNL     1       6.520   5.502  19.209  0.00  0.00    +0.000 C 
ENDBRANCH  20  25
ENDBRANCH   1  21
BRANCH   9  27
ATOM     27  N   UNL     1       1.697   6.581  20.920  0.00  0.00    +0.000 N 
ATOM     28  H   UNL     1       2.059   5.636  21.011  0.00  0.00    +0.000 HD
ATOM     29  H   UNL     1       1.366   6.962  21.809  0.00  0.00    +0.000 HD
ENDBRANCH   9  27
TORSDOF 6
ENDMDL
MODEL 9
REMARK VINA RESULT:      -7.0      4.095      8.220
REMARK  Name = 
REMARK  8 active torsions:
REMARK  status: ('A' for Active; 'I' for Inactive)
REMARK    1  A    between atoms: C_1  and  C_2
REMARK    2  A    between atoms: C_2  and  N_3
REMARK    3  A    between atoms: N_3  and  C_4
REMARK    4  A    between atoms: C_4  and  C_5
REMARK    5  A    between atoms: C_6  and  C_8
REMARK    6  A    between atoms: C_12  and  C_13
REMARK    7  A    between atoms: C_20  and  C_21
REMARK    8  A    between atoms: C_26  and  N_27
REMARK                            x       y       z     vdW  Elec       q    Type
REMARK                         _______ _______ _______ _____ _____    ______ ____
ROOT
ATOM      1  C   UNL     1       2.318   6.889  18.740  0.00  0.00    +0.000 A 
ATOM      2  S   UNL     1       2.370   8.126  17.560  0.00  0.00    +0.000 S 
ATOM      3  C   UNL     1       1.900   9.316  18.667  0.00  0.00    +0.000 A 
ATOM      4  N   UNL     1       1.920  10.613  18.307  0.00  0.00    +0.000 NA
ATOM      5  C   UNL     1       1.415  11.472  19.212  0.00  0.00    +0.000 A 
ATOM      6  C   UNL     1       0.837  11.043  20.404  0.00  0.00    +0.000 A 
ATOM      7  C   UNL     1       0.831   9.682  20.761  0.00  0.00    +0.000 A 
ATOM      8  C   UNL     1       1.464   8.780  19.871  0.00  0.00    +0.000 A 
ATOM      9  C   UNL     1       1.790   7.379  19.927  0.00  0.00    +0.000 A 
ENDROOT
BRANCH   5  10
ATOM     10  C   UNL     1       1.536  12.910  18.883  0.00  0.00    +0.000 A 
ATOM     11  C   UNL     1       0.501  13.823  19.160  0.00  0.00    +0.000 A 
ATOM     12  C   UNL     1       0.656  15.192  18.926  0.00  0.00    +0.000 A 
ATOM     13  C   UNL     1       1.846  15.679  18.396  0.00  0.00    +0.000 A 
ATOM     14  C   UNL     1       2.876  14.796  18.087  0.00  0.00    +0.000 A 
ATOM     15  C   UNL     1       2.719  13.426  18.325  0.00  0.00    +0.000 A 
ENDBRANCH   5  10
BRANCH   7  16
ATOM     16  C   UNL     1       0.127   9.254  22.015  0.00  0.00    +0.000 C 
ATOM     17  F   UNL     1       0.978   8.861  23.006  0.00  0.00    +0.000 F 
ATOM     18  F   UNL     1      -0.624  10.250  22.559  0.00  0.00    +0.000 F 
ATOM     19  F   UNL     1      -0.724   8.207  21.827  0.00  0.00    +0.000 F 
ENDBRANCH   7  16
BRANCH   1  21
ATOM     20  N   UNL     1       3.921   4.964  18.668  0.00  0.00    +0.000 N 
ATOM     21  C   UNL     1       2.627   5.499  18.416  0.00  0.00    +0.000 C 
ATOM     22  O   UNL     1       1.751   4.759  17.959  0.00  0.00    +0.000 OA
BRANCH  20  24
ATOM     23  C   UNL     1       4.052   2.522  19.123  0.00  0.00    +0.000 C 
ATOM     24  C   UNL     1       4.201   3.644  18.106  0.00  0.00    +0.000 C 
ENDBRANCH  20  24
BRANCH  20  25
ATOM     25  C   UNL     1       4.967   5.714  19.372  0.00  0.00    +0.000 C 
ATOM     26  C   UNL     1       6.426   5.373  19.105  0.00  0.00    +0.000 C 
ENDBRANCH  20  25
ENDBRANCH   1  21
BRANCH   9  27
ATOM     27  N   UNL     1       1.629   6.607  21.028  0.00  0.00    +0.000 N 
ATOM     28  H   UNL     1       0.898   5.913  21.157  0.00  0.00    +0.000 HD
ATOM     29  H   UNL     1       2.369   6.533  21.729  0.00  0.00    +0.000 HD
ENDBRANCH   9  27
TORSDOF 6
ENDMDL
