MODEL 1
REMARK VINA RESULT:      -7.3      0.000      0.000
REMARK  Name = 
REMARK  5 active torsions:
REMARK  status: ('A' for Active; 'I' for Inactive)
REMARK    1  A    between atoms: C_1  and  C_2
REMARK    2  A    between atoms: N_4  and  C_5
REMARK    3  A    between atoms: C_8  and  C_9
REMARK    4  A    between atoms: C_8  and  C_10
REMARK    5  A    between atoms: C_10  and  O_11
REMARK                            x       y       z     vdW  Elec       q    Type
REMARK                         _______ _______ _______ _____ _____    ______ ____
ROOT
ATOM      1  C   UNL     1       5.925   4.128  14.453  0.00  0.00    +0.000 C 
ATOM      2  C   UNL     1       5.622   4.194  15.912  0.00  0.00    +0.000 A 
ATOM      3  C   UNL     1       4.392   4.201  16.445  0.00  0.00    +0.000 A 
ATOM      4  N   UNL     1       4.173   4.289  17.805  0.00  0.00    +0.000 N 
ATOM      5  C   UNL     1       5.230   4.367  18.708  0.00  0.00    +0.000 A 
ATOM      6  O   UNL     1       5.098   4.537  19.920  0.00  0.00    +0.000 OA
ATOM      7  N   UNL     1       6.483   4.281  18.166  0.00  0.00    +0.000 N 
ATOM      8  C   UNL     1       6.780   4.327  16.834  0.00  0.00    +0.000 A 
ATOM      9  O   UNL     1       7.923   4.484  16.422  0.00  0.00    +0.000 OA
ATOM     10  H   UNL     1       7.253   4.424  18.802  0.00  0.00    +0.000 HD
ENDROOT
BRANCH   4  11
ATOM     11  C   UNL     1       2.862   4.650  18.281  0.00  0.00    +0.000 C 
ATOM     12  F   UNL     1       2.830   5.954  18.781  0.00  0.00    +0.000 F 
ATOM     13  C   UNL     1       1.560   4.277  17.625  0.00  0.00    +0.000 C 
ATOM     14  C   UNL     1       1.920   3.655  18.956  0.00  0.00    +0.000 C 
ATOM     15  C   UNL     1       2.157   2.165  18.916  0.00  0.00    +0.000 C 
BRANCH  14  16
ATOM     16  C   UNL     1       1.288   4.129  20.240  0.00  0.00    +0.000 C 
BRANCH  16  17
ATOM     17  O   UNL     1       0.711   3.022  20.922  0.00  0.00    +0.000 OA
ATOM     18  H   UNL     1      -0.248   3.172  20.930  0.00  0.00    +0.000 HD
ENDBRANCH  16  17
ENDBRANCH  14  16
ENDBRANCH   4  11
TORSDOF 3
ENDMDL
MODEL 2
REMARK VINA RESULT:      -6.9      1.460      1.500
REMARK  Name = 
REMARK  5 active torsions:
REMARK  status: ('A' for Active; 'I' for Inactive)
REMARK    1  A    between atoms: C_1  and  C_2
REMARK    2  A    between atoms: N_4  and  C_5
REMARK    3  A    between atoms: C_8  and  C_9
REMARK    4  A    between atoms: C_8  and  C_10
REMARK    5  A    between atoms: C_10  and  O_11
REMARK                            x       y       z     vdW  Elec       q    Type
REMARK                         _______ _______ _______ _____ _____    ______ ____
ROOT
ATOM      1  C   UNL     1       5.171   6.353  15.718  0.00  0.00    +0.000 C 
ATOM      2  C   UNL     1       5.054   5.422  16.878  0.00  0.00    +0.000 A 
ATOM      3  C   UNL     1       3.935   5.209  17.586  0.00  0.00    +0.000 A 
ATOM      4  N   UNL     1       3.893   4.353  18.667  0.00  0.00    +0.000 N 
ATOM      5  C   UNL     1       5.020   3.649  19.082  0.00  0.00    +0.000 A 
ATOM      6  O   UNL     1       5.068   2.943  20.088  0.00  0.00    +0.000 OA
ATOM      7  N   UNL     1       6.139   3.809  18.309  0.00  0.00    +0.000 N 
ATOM      8  C   UNL     1       6.294   4.731  17.314  0.00  0.00    +0.000 A 
ATOM      9  O   UNL     1       7.387   4.987  16.823  0.00  0.00    +0.000 OA
ATOM     10  H   UNL     1       6.981   3.372  18.652  0.00  0.00    +0.000 HD
ENDROOT
BRANCH   4  11
ATOM     11  C   UNL     1       2.787   4.440  19.586  0.00  0.00    +0.000 C 
ATOM     12  F   UNL     1       3.060   5.305  20.649  0.00  0.00    +0.000 F 
ATOM     13  C   UNL     1       1.332   4.477  19.204  0.00  0.00    +0.000 C 
ATOM     14  C   UNL     1       1.879   3.255  19.908  0.00  0.00    +0.000 C 
ATOM     15  C   UNL     1       1.876   1.992  19.082  0.00  0.00    +0.000 C 
BRANCH  14  16
ATOM     16  C   UNL     1       1.622   3.015  21.375  0.00  0.00    +0.000 C 
BRANCH  16  17
ATOM     17  O   UNL     1       2.755   2.384  21.958  0.00  0.00    +0.000 OA
ATOM     18  H   UNL     1       2.902   1.564  21.459  0.00  0.00    +0.000 HD
ENDBRANCH  16  17
ENDBRANCH  14  16
ENDBRANCH   4  11
TORSDOF 3
ENDMDL
MODEL 3
REMARK VINA RESULT:      -6.8      1.852      2.059
REMARK  Name = 
REMARK  5 active torsions:
REMARK  status: ('A' for Active; 'I' for Inactive)
REMARK    1  A    between atoms: C_1  and  C_2
REMARK    2  A    between atoms: N_4  and  C_5
REMARK    3  A    between atoms: C_8  and  C_9
REMARK    4  A    between atoms: C_8  and  C_10
REMARK    5  A    between atoms: C_10  and  O_11
REMARK                            x       y       z     vdW  Elec       q    Type
REMARK                         _______ _______ _______ _____ _____    ______ ____
ROOT
ATOM      1  C   UNL     1       5.794   4.155  14.866  0.00  0.00    +0.000 C 
ATOM      2  C   UNL     1       4.992   4.631  16.030  0.00  0.00    +0.000 A 
ATOM      3  C   UNL     1       4.199   3.860  16.787  0.00  0.00    +0.000 A 
ATOM      4  N   UNL     1       3.460   4.362  17.839  0.00  0.00    +0.000 N 
ATOM      5  C   UNL     1       3.505   5.711  18.180  0.00  0.00    +0.000 A 
ATOM      6  O   UNL     1       2.804   6.232  19.047  0.00  0.00    +0.000 OA
ATOM      7  N   UNL     1       4.374   6.480  17.455  0.00  0.00    +0.000 N 
ATOM      8  C   UNL     1       5.032   6.087  16.325  0.00  0.00    +0.000 A 
ATOM      9  O   UNL     1       5.605   6.882  15.590  0.00  0.00    +0.000 OA
ATOM     10  H   UNL     1       4.348   7.471  17.637  0.00  0.00    +0.000 HD
ENDROOT
BRANCH   4  11
ATOM     11  C   UNL     1       2.377   3.576  18.372  0.00  0.00    +0.000 C 
ATOM     12  F   UNL     1       1.133   4.152  18.103  0.00  0.00    +0.000 F 
ATOM     13  C   UNL     1       2.302   2.072  18.368  0.00  0.00    +0.000 C 
ATOM     14  C   UNL     1       2.481   2.799  19.683  0.00  0.00    +0.000 C 
ATOM     15  C   UNL     1       3.801   2.549  20.371  0.00  0.00    +0.000 C 
BRANCH  14  16
ATOM     16  C   UNL     1       1.330   2.983  20.639  0.00  0.00    +0.000 C 
BRANCH  16  17
ATOM     17  O   UNL     1       1.797   2.844  21.976  0.00  0.00    +0.000 OA
ATOM     18  H   UNL     1       1.517   3.644  22.450  0.00  0.00    +0.000 HD
ENDBRANCH  16  17
ENDBRANCH  14  16
ENDBRANCH   4  11
TORSDOF 3
ENDMDL
MODEL 4
REMARK VINA RESULT:      -6.7      1.058      1.083
REMARK  Name = 
REMARK  5 active torsions:
REMARK  status: ('A' for Active; 'I' for Inactive)
REMARK    1  A    between atoms: C_1  and  C_2
REMARK    2  A    between atoms: N_4  and  C_5
REMARK    3  A    between atoms: C_8  and  C_9
REMARK    4  A    between atoms: C_8  and  C_10
REMARK    5  A    between atoms: C_10  and  O_11
REMARK                            x       y       z     vdW  Elec       q    Type
REMARK                         _______ _______ _______ _____ _____    ______ ____
ROOT
ATOM      1  C   UNL     1       6.216   4.057  14.456  0.00  0.00    +0.000 C 
ATOM      2  C   UNL     1       5.740   4.441  15.817  0.00  0.00    +0.000 A 
ATOM      3  C   UNL     1       4.620   3.987  16.398  0.00  0.00    +0.000 A 
ATOM      4  N   UNL     1       4.217   4.398  17.653  0.00  0.00    +0.000 N 
ATOM      5  C   UNL     1       4.962   5.310  18.394  0.00  0.00    +0.000 A 
ATOM      6  O   UNL     1       4.610   5.781  19.474  0.00  0.00    +0.000 OA
ATOM      7  N   UNL     1       6.143   5.711  17.829  0.00  0.00    +0.000 N 
ATOM      8  C   UNL     1       6.542   5.454  16.549  0.00  0.00    +0.000 A 
ATOM      9  O   UNL     1       7.488   6.033  16.029  0.00  0.00    +0.000 OA
ATOM     10  H   UNL     1       6.646   6.436  18.319  0.00  0.00    +0.000 HD
ENDROOT
BRANCH   4  11
ATOM     11  C   UNL     1       2.856   4.162  18.062  0.00  0.00    +0.000 C 
ATOM     12  F   UNL     1       2.036   5.264  17.808  0.00  0.00    +0.000 F 
ATOM     13  C   UNL     1       2.106   2.866  17.902  0.00  0.00    +0.000 C 
ATOM     14  C   UNL     1       2.491   3.329  19.290  0.00  0.00    +0.000 C 
ATOM     15  C   UNL     1       3.493   2.450  19.996  0.00  0.00    +0.000 C 
BRANCH  14  16
ATOM     16  C   UNL     1       1.477   3.951  20.217  0.00  0.00    +0.000 C 
BRANCH  16  17
ATOM     17  O   UNL     1       0.304   3.148  20.244  0.00  0.00    +0.000 OA
ATOM     18  H   UNL     1      -0.104   3.225  19.366  0.00  0.00    +0.000 HD
ENDBRANCH  16  17
ENDBRANCH  14  16
ENDBRANCH   4  11
TORSDOF 3
ENDMDL
MODEL 5
REMARK VINA RESULT:      -6.7      1.940      2.610
REMARK  Name = 
REMARK  5 active torsions:
REMARK  status: ('A' for Active; 'I' for Inactive)
REMARK    1  A    between atoms: C_1  and  C_2
REMARK    2  A    between atoms: N_4  and  C_5
REMARK    3  A    between atoms: C_8  and  C_9
REMARK    4  A    between atoms: C_8  and  C_10
REMARK    5  A    between atoms: C_10  and  O_11
REMARK                            x       y       z     vdW  Elec       q    Type
REMARK                         _______ _______ _______ _____ _____    ______ ____
ROOT
ATOM      1  C   UNL     1       7.778   6.226  18.924  0.00  0.00    +0.000 C 
ATOM      2  C   UNL     1       6.681   5.303  18.511  0.00  0.00    +0.000 A 
ATOM      3  C   UNL     1       5.523   5.141  19.165  0.00  0.00    +0.000 A 
ATOM      4  N   UNL     1       4.553   4.252  18.747  0.00  0.00    +0.000 N 
ATOM      5  C   UNL     1       4.724   3.472  17.607  0.00  0.00    +0.000 A 
ATOM      6  O   UNL     1       3.938   2.602  17.236  0.00  0.00    +0.000 OA
ATOM      7  N   UNL     1       5.874   3.697  16.899  0.00  0.00    +0.000 N 
ATOM      8  C   UNL     1       6.930   4.456  17.316  0.00  0.00    +0.000 A 
ATOM      9  O   UNL     1       8.018   4.428  16.754  0.00  0.00    +0.000 OA
ATOM     10  H   UNL     1       6.045   3.077  16.123  0.00  0.00    +0.000 HD
ENDROOT
BRANCH   4  11
ATOM     11  C   UNL     1       3.513   3.867  19.668  0.00  0.00    +0.000 C 
ATOM     12  F   UNL     1       3.873   2.746  20.420  0.00  0.00    +0.000 F 
ATOM     13  C   UNL     1       2.653   4.813  20.461  0.00  0.00    +0.000 C 
ATOM     14  C   UNL     1       2.027   4.005  19.346  0.00  0.00    +0.000 C 
ATOM     15  C   UNL     1       1.525   4.818  18.179  0.00  0.00    +0.000 C 
BRANCH  14  16
ATOM     16  C   UNL     1       1.185   2.788  19.638  0.00  0.00    +0.000 C 
BRANCH  16  17
ATOM     17  O   UNL     1       1.257   1.887  18.540  0.00  0.00    +0.000 OA
ATOM     18  H   UNL     1       1.441   1.010  18.914  0.00  0.00    +0.000 HD
ENDBRANCH  16  17
ENDBRANCH  14  16
ENDBRANCH   4  11
TORSDOF 3
ENDMDL
MODEL 6
REMARK VINA RESULT:      -6.6      2.471      5.370
REMARK  Name = 
REMARK  5 active torsions:
REMARK  status: ('A' for Active; 'I' for Inactive)
REMARK    1  A    between atoms: C_1  and  C_2
REMARK    2  A    between atoms: N_4  and  C_5
REMARK    3  A    between atoms: C_8  and  C_9
REMARK    4  A    between atoms: C_8  and  C_10
REMARK    5  A    between atoms: C_10  and  O_11
REMARK                            x       y       z     vdW  Elec       q    Type
REMARK                         _______ _______ _______ _____ _____    ______ ____
ROOT
ATOM      1  C   UNL     1       1.506   8.685  18.791  0.00  0.00    +0.000 C 
ATOM      2  C   UNL     1       2.429   7.515  18.860  0.00  0.00    +0.000 A 
ATOM      3  C   UNL     1       3.326   7.185  17.920  0.00  0.00    +0.000 A 
ATOM      4  N   UNL     1       4.139   6.075  18.027  0.00  0.00    +0.000 N 
ATOM      5  C   UNL     1       4.076   5.232  19.133  0.00  0.00    +0.000 A 
ATOM      6  O   UNL     1       4.708   4.182  19.244  0.00  0.00    +0.000 OA
ATOM      7  N   UNL     1       3.215   5.616  20.126  0.00  0.00    +0.000 N 
ATOM      8  C   UNL     1       2.292   6.617  20.035  0.00  0.00    +0.000 A 
ATOM      9  O   UNL     1       1.395   6.758  20.858  0.00  0.00    +0.000 OA
ATOM     10  H   UNL     1       3.100   4.966  20.889  0.00  0.00    +0.000 HD
ENDROOT
BRANCH   4  11
ATOM     11  C   UNL     1       4.808   5.581  16.851  0.00  0.00    +0.000 C 
ATOM     12  F   UNL     1       4.293   4.350  16.436  0.00  0.00    +0.000 F 
ATOM     13  C   UNL     1       5.251   6.416  15.680  0.00  0.00    +0.000 C 
ATOM     14  C   UNL     1       6.296   5.803  16.586  0.00  0.00    +0.000 C 
ATOM     15  C   UNL     1       7.116   6.796  17.372  0.00  0.00    +0.000 C 
BRANCH  14  16
ATOM     16  C   UNL     1       7.070   4.578  16.171  0.00  0.00    +0.000 C 
BRANCH  16  17
ATOM     17  O   UNL     1       7.955   4.198  17.219  0.00  0.00    +0.000 OA
ATOM     18  H   UNL     1       7.430   3.678  17.849  0.00  0.00    +0.000 HD
ENDBRANCH  16  17
ENDBRANCH  14  16
ENDBRANCH   4  11
TORSDOF 3
ENDMDL
MODEL 7
REMARK VINA RESULT:      -6.6      1.894      2.190
REMARK  Name = 
REMARK  5 active torsions:
REMARK  status: ('A' for Active; 'I' for Inactive)
REMARK    1  A    between atoms: C_1  and  C_2
REMARK    2  A    between atoms: N_4  and  C_5
REMARK    3  A    between atoms: C_8  and  C_9
REMARK    4  A    between atoms: C_8  and  C_10
REMARK    5  A    between atoms: C_10  and  O_11
REMARK                            x       y       z     vdW  Elec       q    Type
REMARK                         _______ _______ _______ _____ _____    ______ ____
ROOT
ATOM      1  C   UNL     1       5.992   3.631  13.165  0.00  0.00    +0.000 C 
ATOM      2  C   UNL     1       6.048   4.347  14.473  0.00  0.00    +0.000 A 
ATOM      3  C   UNL     1       5.099   4.300  15.419  0.00  0.00    +0.000 A 
ATOM      4  N   UNL     1       5.195   5.004  16.602  0.00  0.00    +0.000 N 
ATOM      5  C   UNL     1       6.298   5.805  16.884  0.00  0.00    +0.000 A 
ATOM      6  O   UNL     1       6.399   6.524  17.877  0.00  0.00    +0.000 OA
ATOM      7  N   UNL     1       7.299   5.789  15.950  0.00  0.00    +0.000 N 
ATOM      8  C   UNL     1       7.220   5.228  14.708  0.00  0.00    +0.000 A 
ATOM      9  O   UNL     1       8.051   5.449  13.836  0.00  0.00    +0.000 OA
ATOM     10  H   UNL     1       8.060   6.432  16.105  0.00  0.00    +0.000 HD
ENDROOT
BRANCH   4  11
ATOM     11  C   UNL     1       4.011   5.197  17.400  0.00  0.00    +0.000 C 
ATOM     12  F   UNL     1       3.526   6.503  17.306  0.00  0.00    +0.000 F 
ATOM     13  C   UNL     1       2.893   4.203  17.560  0.00  0.00    +0.000 C 
ATOM     14  C   UNL     1       3.791   4.500  18.741  0.00  0.00    +0.000 C 
ATOM     15  C   UNL     1       4.642   3.341  19.198  0.00  0.00    +0.000 C 
BRANCH  14  16
ATOM     16  C   UNL     1       3.334   5.391  19.868  0.00  0.00    +0.000 C 
BRANCH  16  17
ATOM     17  O   UNL     1       2.142   4.863  20.437  0.00  0.00    +0.000 OA
ATOM     18  H   UNL     1       2.109   5.181  21.354  0.00  0.00    +0.000 HD
ENDBRANCH  16  17
ENDBRANCH  14  16
ENDBRANCH   4  11
TORSDOF 3
ENDMDL
MODEL 8
REMARK VINA RESULT:      -6.5      3.060      4.775
REMARK  Name = 
REMARK  5 active torsions:
REMARK  status: ('A' for Active; 'I' for Inactive)
REMARK    1  A    between atoms: C_1  and  C_2
REMARK    2  A    between atoms: N_4  and  C_5
REMARK    3  A    between atoms: C_8  and  C_9
REMARK    4  A    between atoms: C_8  and  C_10
REMARK    5  A    between atoms: C_10  and  O_11
REMARK                            x       y       z     vdW  Elec       q    Type
REMARK                         _______ _______ _______ _____ _____    ______ ____
ROOT
ATOM      1  C   UNL     1       2.038   9.216  17.819  0.00  0.00    +0.000 C 
ATOM      2  C   UNL     1       2.137   7.993  18.667  0.00  0.00    +0.000 A 
ATOM      3  C   UNL     1       2.571   6.797  18.247  0.00  0.00    +0.000 A 
ATOM      4  N   UNL     1       2.617   5.692  19.073  0.00  0.00    +0.000 N 
ATOM      5  C   UNL     1       2.218   5.763  20.405  0.00  0.00    +0.000 A 
ATOM      6  O   UNL     1       2.151   4.796  21.163  0.00  0.00    +0.000 OA
ATOM      7  N   UNL     1       1.849   7.004  20.850  0.00  0.00    +0.000 N 
ATOM      8  C   UNL     1       1.653   8.105  20.067  0.00  0.00    +0.000 A 
ATOM      9  O   UNL     1       1.099   9.114  20.484  0.00  0.00    +0.000 OA
ATOM     10  H   UNL     1       1.477   7.046  21.786  0.00  0.00    +0.000 HD
ENDROOT
BRANCH   4  11
ATOM     11  C   UNL     1       2.744   4.383  18.485  0.00  0.00    +0.000 C 
ATOM     12  F   UNL     1       1.560   3.650  18.583  0.00  0.00    +0.000 F 
ATOM     13  C   UNL     1       3.490   4.062  17.217  0.00  0.00    +0.000 C 
ATOM     14  C   UNL     1       4.037   3.570  18.539  0.00  0.00    +0.000 C 
ATOM     15  C   UNL     1       5.356   4.179  18.944  0.00  0.00    +0.000 C 
BRANCH  14  16
ATOM     16  C   UNL     1       3.881   2.132  18.965  0.00  0.00    +0.000 C 
BRANCH  16  17
ATOM     17  O   UNL     1       4.970   1.766  19.803  0.00  0.00    +0.000 OA
ATOM     18  H   UNL     1       4.906   2.320  20.598  0.00  0.00    +0.000 HD
ENDBRANCH  16  17
ENDBRANCH  14  16
ENDBRANCH   4  11
TORSDOF 3
ENDMDL
MODEL 9
REMARK VINA RESULT:      -6.4      1.262      1.277
REMARK  Name = 
REMARK  5 active torsions:
REMARK  status: ('A' for Active; 'I' for Inactive)
REMARK    1  A    between atoms: C_1  and  C_2
REMARK    2  A    between atoms: N_4  and  C_5
REMARK    3  A    between atoms: C_8  and  C_9
REMARK    4  A    between atoms: C_8  and  C_10
REMARK    5  A    between atoms: C_10  and  O_11
REMARK                            x       y       z     vdW  Elec       q    Type
REMARK                         _______ _______ _______ _____ _____    ______ ____
ROOT
ATOM      1  C   UNL     1       5.837   3.890  13.839  0.00  0.00    +0.000 C 
ATOM      2  C   UNL     1       5.754   4.259  15.282  0.00  0.00    +0.000 A 
ATOM      3  C   UNL     1       4.737   3.949  16.099  0.00  0.00    +0.000 A 
ATOM      4  N   UNL     1       4.704   4.339  17.423  0.00  0.00    +0.000 N 
ATOM      5  C   UNL     1       5.739   5.077  17.990  0.00  0.00    +0.000 A 
ATOM      6  O   UNL     1       5.725   5.528  19.134  0.00  0.00    +0.000 OA
ATOM      7  N   UNL     1       6.810   5.323  17.173  0.00  0.00    +0.000 N 
ATOM      8  C   UNL     1       6.858   5.088  15.829  0.00  0.00    +0.000 A 
ATOM      9  O   UNL     1       7.743   5.544  15.116  0.00  0.00    +0.000 OA
ATOM     10  H   UNL     1       7.523   5.930  17.549  0.00  0.00    +0.000 HD
ENDROOT
BRANCH   4  11
ATOM     11  C   UNL     1       3.452   4.291  18.135  0.00  0.00    +0.000 C 
ATOM     12  F   UNL     1       2.880   5.559  18.268  0.00  0.00    +0.000 F 
ATOM     13  C   UNL     1       2.402   3.223  17.988  0.00  0.00    +0.000 C 
ATOM     14  C   UNL     1       3.185   3.316  19.279  0.00  0.00    +0.000 C 
ATOM     15  C   UNL     1       4.083   2.137  19.562  0.00  0.00    +0.000 C 
BRANCH  14  16
ATOM     16  C   UNL     1       2.580   3.923  20.520  0.00  0.00    +0.000 C 
BRANCH  16  17
ATOM     17  O   UNL     1       2.597   2.966  21.572  0.00  0.00    +0.000 OA
ATOM     18  H   UNL     1       2.852   3.446  22.377  0.00  0.00    +0.000 HD
ENDBRANCH  16  17
ENDBRANCH  14  16
ENDBRANCH   4  11
TORSDOF 3
ENDMDL
