MODEL 1
REMARK VINA RESULT:      -8.1      0.000      0.000
REMARK  Name = 
REMARK  1 active torsions:
REMARK  status: ('A' for Active; 'I' for Inactive)
REMARK    1  A    between atoms: N_1  and  C_2
REMARK                            x       y       z     vdW  Elec       q    Type
REMARK                         _______ _______ _______ _____ _____    ______ ____
ROOT
ATOM      1  C   UNL     1       1.925   3.447  19.182  0.00  0.00    +0.000 A 
ATOM      2  C   UNL     1       2.054   3.024  17.860  0.00  0.00    +0.000 A 
ATOM      3  C   UNL     1       3.193   3.329  17.123  0.00  0.00    +0.000 A 
ATOM      4  C   UNL     1       4.249   4.072  17.688  0.00  0.00    +0.000 A 
ATOM      5  C   UNL     1       4.137   4.455  19.058  0.00  0.00    +0.000 A 
ATOM      6  C   UNL     1       5.182   5.171  19.671  0.00  0.00    +0.000 A 
ATOM      7  C   UNL     1       6.315   5.527  18.940  0.00  0.00    +0.000 A 
ATOM      8  C   UNL     1       6.372   5.173  17.597  0.00  0.00    +0.000 A 
ATOM      9  N   UNL     1       7.388   5.509  16.771  0.00  0.00    +0.000 NA
ATOM     10  C   UNL     1       6.998   5.005  15.589  0.00  0.00    +0.000 A 
ATOM     11  N   UNL     1       7.670   5.125  14.418  0.00  0.00    +0.000 NA
ATOM     12  C   UNL     1       7.132   4.592  13.283  0.00  0.00    +0.000 A 
ATOM     13  C   UNL     1       5.895   3.919  13.329  0.00  0.00    +0.000 A 
ATOM     14 BR   UNL     1       5.139   3.182  11.737  0.00  0.00    +0.000 Br
ATOM     15  C   UNL     1       5.207   3.799  14.546  0.00  0.00    +0.000 A 
ATOM     16  C   UNL     1       5.786   4.369  15.695  0.00  0.00    +0.000 A 
ATOM     17  N   UNL     1       5.371   4.469  16.989  0.00  0.00    +0.000 N 
ATOM     18  C   UNL     1       2.978   4.143  19.789  0.00  0.00    +0.000 A 
ENDROOT
BRANCH   1  19
ATOM     19  N   UNL     1       0.729   3.183  19.889  0.00  0.00    +0.000 N 
ATOM     20  H   UNL     1       0.623   2.312  20.429  0.00  0.00    +0.000 HD
ATOM     21  H   UNL     1      -0.069   3.832  19.836  0.00  0.00    +0.000 HD
ENDBRANCH   1  19
TORSDOF 1
ENDMDL
MODEL 2
REMARK VINA RESULT:      -7.3      5.660      7.039
REMARK  Name = 
REMARK  1 active torsions:
REMARK  status: ('A' for Active; 'I' for Inactive)
REMARK    1  A    between atoms: N_1  and  C_2
REMARK                            x       y       z     vdW  Elec       q    Type
REMARK                         _______ _______ _______ _____ _____    ______ ____
ROOT
ATOM      1  C   UNL     1      -0.489  10.602  22.075  0.00  0.00    +0.000 A 
ATOM      2  C   UNL     1      -0.162   9.324  22.525  0.00  0.00    +0.000 A 
ATOM      3  C   UNL     1       0.598   8.466  21.738  0.00  0.00    +0.000 A 
ATOM      4  C   UNL     1       1.059   8.860  20.465  0.00  0.00    +0.000 A 
ATOM      5  C   UNL     1       0.769  10.189  20.033  0.00  0.00    +0.000 A 
ATOM      6  C   UNL     1       1.237  10.635  18.784  0.00  0.00    +0.000 A 
ATOM      7  C   UNL     1       1.963   9.778  17.957  0.00  0.00    +0.000 A 
ATOM      8  C   UNL     1       2.192   8.478  18.392  0.00  0.00    +0.000 A 
ATOM      9  N   UNL     1       2.832   7.539  17.661  0.00  0.00    +0.000 NA
ATOM     10  C   UNL     1       2.778   6.452  18.447  0.00  0.00    +0.000 A 
ATOM     11  N   UNL     1       3.251   5.222  18.129  0.00  0.00    +0.000 NA
ATOM     12  C   UNL     1       3.092   4.197  19.016  0.00  0.00    +0.000 A 
ATOM     13  C   UNL     1       2.449   4.416  20.250  0.00  0.00    +0.000 A 
ATOM     14 BR   UNL     1       2.219   2.977  21.486  0.00  0.00    +0.000 Br
ATOM     15  C   UNL     1       1.964   5.693  20.571  0.00  0.00    +0.000 A 
ATOM     16  C   UNL     1       2.136   6.725  19.630  0.00  0.00    +0.000 A 
ATOM     17  N   UNL     1       1.754   8.032  19.608  0.00  0.00    +0.000 N 
ATOM     18  C   UNL     1      -0.003  11.044  20.839  0.00  0.00    +0.000 A 
ENDROOT
BRANCH   1  19
ATOM     19  N   UNL     1      -1.320  11.432  22.865  0.00  0.00    +0.000 N 
ATOM     20  H   UNL     1      -0.963  12.322  23.242  0.00  0.00    +0.000 HD
ATOM     21  H   UNL     1      -2.275  11.137  23.114  0.00  0.00    +0.000 HD
ENDBRANCH   1  19
TORSDOF 1
ENDMDL
MODEL 3
REMARK VINA RESULT:      -7.2      0.951      1.048
REMARK  Name = 
REMARK  1 active torsions:
REMARK  status: ('A' for Active; 'I' for Inactive)
REMARK    1  A    between atoms: N_1  and  C_2
REMARK                            x       y       z     vdW  Elec       q    Type
REMARK                         _______ _______ _______ _____ _____    ______ ____
ROOT
ATOM      1  C   UNL     1       2.614   4.434  19.188  0.00  0.00    +0.000 A 
ATOM      2  C   UNL     1       2.418   3.902  17.915  0.00  0.00    +0.000 A 
ATOM      3  C   UNL     1       3.426   3.956  16.959  0.00  0.00    +0.000 A 
ATOM      4  C   UNL     1       4.673   4.548  17.246  0.00  0.00    +0.000 A 
ATOM      5  C   UNL     1       4.889   5.040  18.568  0.00  0.00    +0.000 A 
ATOM      6  C   UNL     1       6.129   5.609  18.908  0.00  0.00    +0.000 A 
ATOM      7  C   UNL     1       7.140   5.715  17.954  0.00  0.00    +0.000 A 
ATOM      8  C   UNL     1       6.882   5.263  16.664  0.00  0.00    +0.000 A 
ATOM      9  N   UNL     1       7.757   5.361  15.640  0.00  0.00    +0.000 NA
ATOM     10  C   UNL     1       7.074   4.849  14.605  0.00  0.00    +0.000 A 
ATOM     11  N   UNL     1       7.517   4.769  13.326  0.00  0.00    +0.000 NA
ATOM     12  C   UNL     1       6.693   4.257  12.366  0.00  0.00    +0.000 A 
ATOM     13  C   UNL     1       5.400   3.809  12.701  0.00  0.00    +0.000 A 
ATOM     14 BR   UNL     1       4.246   3.101  11.354  0.00  0.00    +0.000 Br
ATOM     15  C   UNL     1       4.951   3.894  14.028  0.00  0.00    +0.000 A 
ATOM     16  C   UNL     1       5.822   4.437  14.991  0.00  0.00    +0.000 A 
ATOM     17  N   UNL     1       5.686   4.697  16.320  0.00  0.00    +0.000 N 
ATOM     18  C   UNL     1       3.859   4.981  19.524  0.00  0.00    +0.000 A 
ENDROOT
BRANCH   1  19
ATOM     19  N   UNL     1       1.551   4.427  20.122  0.00  0.00    +0.000 N 
ATOM     20  H   UNL     1       1.308   5.282  20.643  0.00  0.00    +0.000 HD
ATOM     21  H   UNL     1       1.036   3.559  20.327  0.00  0.00    +0.000 HD
ENDBRANCH   1  19
TORSDOF 1
ENDMDL
MODEL 4
REMARK VINA RESULT:      -7.1      4.938      6.554
REMARK  Name = 
REMARK  1 active torsions:
REMARK  status: ('A' for Active; 'I' for Inactive)
REMARK    1  A    between atoms: N_1  and  C_2
REMARK                            x       y       z     vdW  Elec       q    Type
REMARK                         _______ _______ _______ _____ _____    ______ ____
ROOT
ATOM      1  C   UNL     1       4.255   3.162  19.690  0.00  0.00    +0.000 A 
ATOM      2  C   UNL     1       3.317   3.749  20.538  0.00  0.00    +0.000 A 
ATOM      3  C   UNL     1       2.789   5.003  20.255  0.00  0.00    +0.000 A 
ATOM      4  C   UNL     1       3.183   5.718  19.105  0.00  0.00    +0.000 A 
ATOM      5  C   UNL     1       4.101   5.090  18.211  0.00  0.00    +0.000 A 
ATOM      6  C   UNL     1       4.497   5.753  17.036  0.00  0.00    +0.000 A 
ATOM      7  C   UNL     1       4.015   7.031  16.752  0.00  0.00    +0.000 A 
ATOM      8  C   UNL     1       3.154   7.630  17.666  0.00  0.00    +0.000 A 
ATOM      9  N   UNL     1       2.666   8.883  17.532  0.00  0.00    +0.000 NA
ATOM     10  C   UNL     1       1.936   9.045  18.648  0.00  0.00    +0.000 A 
ATOM     11  N   UNL     1       1.274  10.173  19.002  0.00  0.00    +0.000 NA
ATOM     12  C   UNL     1       0.602  10.206  20.190  0.00  0.00    +0.000 A 
ATOM     13  C   UNL     1       0.591   9.079  21.033  0.00  0.00    +0.000 A 
ATOM     14 BR   UNL     1      -0.343   9.130  22.699  0.00  0.00    +0.000 Br
ATOM     15  C   UNL     1       1.278   7.914  20.658  0.00  0.00    +0.000 A 
ATOM     16  C   UNL     1       1.968   7.917  19.431  0.00  0.00    +0.000 A 
ATOM     17  N   UNL     1       2.751   6.995  18.807  0.00  0.00    +0.000 N 
ATOM     18  C   UNL     1       4.629   3.822  18.513  0.00  0.00    +0.000 A 
ENDROOT
BRANCH   1  19
ATOM     19  N   UNL     1       4.828   1.915  20.035  0.00  0.00    +0.000 N 
ATOM     20  H   UNL     1       5.544   1.484  19.431  0.00  0.00    +0.000 HD
ATOM     21  H   UNL     1       4.506   1.400  20.866  0.00  0.00    +0.000 HD
ENDBRANCH   1  19
TORSDOF 1
ENDMDL
MODEL 5
REMARK VINA RESULT:      -7.0      5.467      7.078
REMARK  Name = 
REMARK  1 active torsions:
REMARK  status: ('A' for Active; 'I' for Inactive)
REMARK    1  A    between atoms: N_1  and  C_2
REMARK                            x       y       z     vdW  Elec       q    Type
REMARK                         _______ _______ _______ _____ _____    ______ ____
ROOT
ATOM      1  C   UNL     1       3.061   3.646  20.324  0.00  0.00    +0.000 A 
ATOM      2  C   UNL     1       2.189   4.401  21.107  0.00  0.00    +0.000 A 
ATOM      3  C   UNL     1       1.845   5.697  20.739  0.00  0.00    +0.000 A 
ATOM      4  C   UNL     1       2.364   6.285  19.568  0.00  0.00    +0.000 A 
ATOM      5  C   UNL     1       3.212   5.489  18.741  0.00  0.00    +0.000 A 
ATOM      6  C   UNL     1       3.727   6.024  17.547  0.00  0.00    +0.000 A 
ATOM      7  C   UNL     1       3.432   7.337  17.179  0.00  0.00    +0.000 A 
ATOM      8  C   UNL     1       2.637   8.098  18.029  0.00  0.00    +0.000 A 
ATOM      9  N   UNL     1       2.328   9.395  17.812  0.00  0.00    +0.000 NA
ATOM     10  C   UNL     1       1.596   9.718  18.891  0.00  0.00    +0.000 A 
ATOM     11  N   UNL     1       1.086  10.943  19.162  0.00  0.00    +0.000 NA
ATOM     12  C   UNL     1       0.392  11.135  20.322  0.00  0.00    +0.000 A 
ATOM     13  C   UNL     1       0.203  10.069  21.223  0.00  0.00    +0.000 A 
ATOM     14 BR   UNL     1      -0.761  10.342  22.850  0.00  0.00    +0.000 Br
ATOM     15  C   UNL     1       0.735   8.803  20.934  0.00  0.00    +0.000 A 
ATOM     16  C   UNL     1       1.453   8.643  19.734  0.00  0.00    +0.000 A 
ATOM     17  N   UNL     1       2.120   7.589  19.187  0.00  0.00    +0.000 N 
ATOM     18  C   UNL     1       3.554   4.181  19.128  0.00  0.00    +0.000 A 
ENDROOT
BRANCH   1  19
ATOM     19  N   UNL     1       3.449   2.355  20.755  0.00  0.00    +0.000 N 
ATOM     20  H   UNL     1       3.993   2.235  21.621  0.00  0.00    +0.000 HD
ATOM     21  H   UNL     1       3.234   1.524  20.186  0.00  0.00    +0.000 HD
ENDBRANCH   1  19
TORSDOF 1
ENDMDL
MODEL 6
REMARK VINA RESULT:      -6.9      3.758      6.405
REMARK  Name = 
REMARK  1 active torsions:
REMARK  status: ('A' for Active; 'I' for Inactive)
REMARK    1  A    between atoms: N_1  and  C_2
REMARK                            x       y       z     vdW  Elec       q    Type
REMARK                         _______ _______ _______ _____ _____    ______ ____
ROOT
ATOM      1  C   UNL     1       5.643   4.961  15.492  0.00  0.00    +0.000 A 
ATOM      2  C   UNL     1       5.180   6.265  15.659  0.00  0.00    +0.000 A 
ATOM      3  C   UNL     1       4.412   6.610  16.765  0.00  0.00    +0.000 A 
ATOM      4  C   UNL     1       4.079   5.656  17.749  0.00  0.00    +0.000 A 
ATOM      5  C   UNL     1       4.602   4.336  17.601  0.00  0.00    +0.000 A 
ATOM      6  C   UNL     1       4.322   3.361  18.575  0.00  0.00    +0.000 A 
ATOM      7  C   UNL     1       3.517   3.671  19.671  0.00  0.00    +0.000 A 
ATOM      8  C   UNL     1       2.990   4.954  19.761  0.00  0.00    +0.000 A 
ATOM      9  N   UNL     1       2.153   5.359  20.742  0.00  0.00    +0.000 NA
ATOM     10  C   UNL     1       1.876   6.628  20.401  0.00  0.00    +0.000 A 
ATOM     11  N   UNL     1       1.030   7.456  21.059  0.00  0.00    +0.000 NA
ATOM     12  C   UNL     1       0.814   8.713  20.572  0.00  0.00    +0.000 A 
ATOM     13  C   UNL     1       1.469   9.146  19.403  0.00  0.00    +0.000 A 
ATOM     14 BR   UNL     1       1.159  10.903  18.718  0.00  0.00    +0.000 Br
ATOM     15  C   UNL     1       2.344   8.281  18.728  0.00  0.00    +0.000 A 
ATOM     16  C   UNL     1       2.536   6.989  19.252  0.00  0.00    +0.000 A 
ATOM     17  N   UNL     1       3.261   5.917  18.829  0.00  0.00    +0.000 N 
ATOM     18  C   UNL     1       5.375   4.001  16.475  0.00  0.00    +0.000 A 
ENDROOT
BRANCH   1  19
ATOM     19  N   UNL     1       6.366   4.619  14.324  0.00  0.00    +0.000 N 
ATOM     20  H   UNL     1       7.247   5.102  14.095  0.00  0.00    +0.000 HD
ATOM     21  H   UNL     1       6.000   3.918  13.665  0.00  0.00    +0.000 HD
ENDBRANCH   1  19
TORSDOF 1
ENDMDL
MODEL 7
REMARK VINA RESULT:      -6.6      4.096      5.215
REMARK  Name = 
REMARK  1 active torsions:
REMARK  status: ('A' for Active; 'I' for Inactive)
REMARK    1  A    between atoms: N_1  and  C_2
REMARK                            x       y       z     vdW  Elec       q    Type
REMARK                         _______ _______ _______ _____ _____    ______ ____
ROOT
ATOM      1  C   UNL     1       1.281  10.427  18.888  0.00  0.00    +0.000 A 
ATOM      2  C   UNL     1       2.005   9.928  17.807  0.00  0.00    +0.000 A 
ATOM      3  C   UNL     1       2.463   8.615  17.802  0.00  0.00    +0.000 A 
ATOM      4  C   UNL     1       2.210   7.751  18.887  0.00  0.00    +0.000 A 
ATOM      5  C   UNL     1       1.421   8.249  19.967  0.00  0.00    +0.000 A 
ATOM      6  C   UNL     1       1.117   7.411  21.055  0.00  0.00    +0.000 A 
ATOM      7  C   UNL     1       1.602   6.104  21.094  0.00  0.00    +0.000 A 
ATOM      8  C   UNL     1       2.402   5.665  20.045  0.00  0.00    +0.000 A 
ATOM      9  N   UNL     1       2.977   4.443  19.995  0.00  0.00    +0.000 NA
ATOM     10  C   UNL     1       3.677   4.483  18.850  0.00  0.00    +0.000 A 
ATOM     11  N   UNL     1       4.472   3.494  18.375  0.00  0.00    +0.000 NA
ATOM     12  C   UNL     1       5.157   3.690  17.210  0.00  0.00    +0.000 A 
ATOM     13  C   UNL     1       5.032   4.904  16.507  0.00  0.00    +0.000 A 
ATOM     14 BR   UNL     1       5.997   5.181  14.881  0.00  0.00    +0.000 Br
ATOM     15  C   UNL     1       4.204   5.922  17.005  0.00  0.00    +0.000 A 
ATOM     16  C   UNL     1       3.521   5.690  18.214  0.00  0.00    +0.000 A 
ATOM     17  N   UNL     1       2.698   6.463  18.975  0.00  0.00    +0.000 N 
ATOM     18  C   UNL     1       0.967   9.580  19.958  0.00  0.00    +0.000 A 
ENDROOT
BRANCH   1  19
ATOM     19  N   UNL     1       0.884  11.785  18.899  0.00  0.00    +0.000 N 
ATOM     20  H   UNL     1       0.681  12.277  18.017  0.00  0.00    +0.000 HD
ATOM     21  H   UNL     1       0.838  12.313  19.782  0.00  0.00    +0.000 HD
ENDBRANCH   1  19
TORSDOF 1
ENDMDL
MODEL 8
REMARK VINA RESULT:      -6.4      4.755      6.085
REMARK  Name = 
REMARK  1 active torsions:
REMARK  status: ('A' for Active; 'I' for Inactive)
REMARK    1  A    between atoms: N_1  and  C_2
REMARK                            x       y       z     vdW  Elec       q    Type
REMARK                         _______ _______ _______ _____ _____    ______ ____
ROOT
ATOM      1  C   UNL     1       2.716   3.177  20.947  0.00  0.00    +0.000 A 
ATOM      2  C   UNL     1       1.875   4.213  21.352  0.00  0.00    +0.000 A 
ATOM      3  C   UNL     1       1.813   5.401  20.633  0.00  0.00    +0.000 A 
ATOM      4  C   UNL     1       2.594   5.595  19.475  0.00  0.00    +0.000 A 
ATOM      5  C   UNL     1       3.411   4.511  19.033  0.00  0.00    +0.000 A 
ATOM      6  C   UNL     1       4.182   4.650  17.865  0.00  0.00    +0.000 A 
ATOM      7  C   UNL     1       4.170   5.847  17.151  0.00  0.00    +0.000 A 
ATOM      8  C   UNL     1       3.395   6.896  17.633  0.00  0.00    +0.000 A 
ATOM      9  N   UNL     1       3.344   8.120  17.064  0.00  0.00    +0.000 NA
ATOM     10  C   UNL     1       2.523   8.801  17.880  0.00  0.00    +0.000 A 
ATOM     11  N   UNL     1       2.190  10.109  17.755  0.00  0.00    +0.000 NA
ATOM     12  C   UNL     1       1.371  10.680  18.686  0.00  0.00    +0.000 A 
ATOM     13  C   UNL     1       0.873   9.918  19.760  0.00  0.00    +0.000 A 
ATOM     14 BR   UNL     1      -0.265  10.722  21.067  0.00  0.00    +0.000 Br
ATOM     15  C   UNL     1       1.222   8.564  19.881  0.00  0.00    +0.000 A 
ATOM     16  C   UNL     1       2.076   8.009  18.909  0.00  0.00    +0.000 A 
ATOM     17  N   UNL     1       2.631   6.775  18.760  0.00  0.00    +0.000 N 
ATOM     18  C   UNL     1       3.466   3.317  19.773  0.00  0.00    +0.000 A 
ENDROOT
BRANCH   1  19
ATOM     19  N   UNL     1       2.813   2.005  21.733  0.00  0.00    +0.000 N 
ATOM     20  H   UNL     1       1.971   1.593  22.163  0.00  0.00    +0.000 HD
ATOM     21  H   UNL     1       3.728   1.574  21.925  0.00  0.00    +0.000 HD
ENDBRANCH   1  19
TORSDOF 1
ENDMDL
MODEL 9
REMARK VINA RESULT:      -6.2      2.344      5.525
REMARK  Name = 
REMARK  1 active torsions:
REMARK  status: ('A' for Active; 'I' for Inactive)
REMARK    1  A    between atoms: N_1  and  C_2
REMARK                            x       y       z     vdW  Elec       q    Type
REMARK                         _______ _______ _______ _____ _____    ______ ____
ROOT
ATOM      1  C   UNL     1       6.552   4.253  13.474  0.00  0.00    +0.000 A 
ATOM      2  C   UNL     1       5.313   3.746  13.864  0.00  0.00    +0.000 A 
ATOM      3  C   UNL     1       4.828   3.965  15.149  0.00  0.00    +0.000 A 
ATOM      4  C   UNL     1       5.570   4.703  16.093  0.00  0.00    +0.000 A 
ATOM      5  C   UNL     1       6.811   5.267  15.672  0.00  0.00    +0.000 A 
ATOM      6  C   UNL     1       7.570   6.038  16.572  0.00  0.00    +0.000 A 
ATOM      7  C   UNL     1       7.126   6.233  17.879  0.00  0.00    +0.000 A 
ATOM      8  C   UNL     1       5.932   5.635  18.267  0.00  0.00    +0.000 A 
ATOM      9  N   UNL     1       5.426   5.704  19.518  0.00  0.00    +0.000 NA
ATOM     10  C   UNL     1       4.313   4.958  19.437  0.00  0.00    +0.000 A 
ATOM     11  N   UNL     1       3.471   4.680  20.463  0.00  0.00    +0.000 NA
ATOM     12  C   UNL     1       2.394   3.872  20.241  0.00  0.00    +0.000 A 
ATOM     13  C   UNL     1       2.157   3.338  18.959  0.00  0.00    +0.000 A 
ATOM     14 BR   UNL     1       0.653   2.200  18.652  0.00  0.00    +0.000 Br
ATOM     15  C   UNL     1       3.033   3.632  17.903  0.00  0.00    +0.000 A 
ATOM     16  C   UNL     1       4.139   4.461  18.169  0.00  0.00    +0.000 A 
ATOM     17  N   UNL     1       5.178   4.893  17.403  0.00  0.00    +0.000 N 
ATOM     18  C   UNL     1       7.291   5.035  14.370  0.00  0.00    +0.000 A 
ENDROOT
BRANCH   1  19
ATOM     19  N   UNL     1       7.053   3.960  12.184  0.00  0.00    +0.000 N 
ATOM     20  H   UNL     1       6.544   4.268  11.343  0.00  0.00    +0.000 HD
ATOM     21  H   UNL     1       7.907   3.397  12.067  0.00  0.00    +0.000 HD
ENDBRANCH   1  19
TORSDOF 1
ENDMDL
