MODEL 1
REMARK VINA RESULT:      -7.1      0.000      0.000
REMARK  Name = 
REMARK  14 active torsions:
REMARK  status: ('A' for Active; 'I' for Inactive)
REMARK    1  A    between atoms: NZ_1  and  CE_2
REMARK    2  A    between atoms: CE_2  and  CD_3
REMARK    3  A    between atoms: CD_3  and  CG_4
REMARK    4  A    between atoms: CG_4  and  CB_5
REMARK    5  A    between atoms: CB_5  and  CA_6
REMARK    6  A    between atoms: CA_6  and  N_7
REMARK    7  A    between atoms: CA_6  and  C_22
REMARK    8  A    between atoms: C_8  and  CA_10
REMARK    9  A    between atoms: CA_10  and  CB_11
REMARK   10  A    between atoms: CA_10  and  N_17
REMARK   11  A    between atoms: CB_11  and  CG_12
REMARK   12  A    between atoms: C_18  and  CA_20
REMARK   13  A    between atoms: CA_20  and  N_21
REMARK   14  A    between atoms: C_22  and  OXT_24
REMARK                            x       y       z     vdW  Elec       q    Type
REMARK                         _______ _______ _______ _____ _____    ______ ____
ROOT
ATOM      1  N   LYS A   3       4.330   3.689  17.543  0.00  0.00    +0.000 N 
ATOM      2  C   HIS A   2       4.338   5.037  17.264  0.00  0.00    +0.000 C 
ATOM      3  O   HIS A   2       3.593   5.828  17.840  0.00  0.00    +0.000 OA
ATOM      4  H   LYS A   3       5.070   3.118  17.148  0.00  0.00    +0.000 HD
ENDROOT
BRANCH   1   5
ATOM      5  CA  LYS A   3       3.487   3.084  18.562  0.00  0.00    +0.000 C 
BRANCH   5   6
ATOM      6  C   LYS A   3       4.258   1.909  19.180  0.00  0.00    +0.000 C 
ATOM      7  O   LYS A   3       4.875   1.986  20.235  0.00  0.00    +0.000 OA
BRANCH   6   8
ATOM      8  OXT LYS A   3       4.229   0.778  18.438  0.00  0.00    +0.000 OA
ATOM      9  HXT LYS A   3       4.637   0.001  18.869  0.00  0.00    +0.000 HD
ENDBRANCH   6   8
ENDBRANCH   5   6
BRANCH   5  10
ATOM     10  CB  LYS A   3       2.196   2.583  17.911  0.00  0.00    +0.000 C 
BRANCH  10  11
ATOM     11  CG  LYS A   3       1.044   2.468  18.908  0.00  0.00    +0.000 C 
BRANCH  11  12
ATOM     12  CD  LYS A   3       1.204   3.475  20.046  0.00  0.00    +0.000 C 
BRANCH  12  13
ATOM     13  CE  LYS A   3       1.223   2.767  21.397  0.00  0.00    +0.000 C 
BRANCH  13  14
ATOM     14  NZ  LYS A   3       2.475   3.042  22.088  0.00  0.00    +0.000 NA
ATOM     15  HZ1 LYS A   3       3.226   2.507  21.655  0.00  0.00    +0.000 HD
ATOM     16  HZ2 LYS A   3       2.413   2.719  23.053  0.00  0.00    +0.000 HD
ENDBRANCH  13  14
ENDBRANCH  12  13
ENDBRANCH  11  12
ENDBRANCH  10  11
ENDBRANCH   5  10
ENDBRANCH   1   5
BRANCH   2  17
ATOM     17  CA  HIS A   2       5.320   5.471  16.153  0.00  0.00    +0.000 C 
BRANCH  17  18
ATOM     18  N   HIS A   2       6.058   6.694  16.488  0.00  0.00    +0.000 N 
ATOM     19  C   GLY A   1       7.030   6.682  17.472  0.00  0.00    +0.000 C 
ATOM     20  O   GLY A   1       7.249   5.713  18.191  0.00  0.00    +0.000 OA
ATOM     21  H   HIS A   2       6.137   7.431  15.789  0.00  0.00    +0.000 HD
BRANCH  19  22
ATOM     22  CA  GLY A   1       7.812   7.989  17.581  0.00  0.00    +0.000 C 
BRANCH  22  23
ATOM     23  N   GLY A   1       8.581   8.007  18.838  0.00  0.00    +0.000 NA
ATOM     24  H1  GLY A   1       7.960   8.338  19.584  0.00  0.00    +0.000 HD
ATOM     25  H2  GLY A   1       9.283   8.748  18.760  0.00  0.00    +0.000 HD
ENDBRANCH  22  23
ENDBRANCH  19  22
ENDBRANCH  17  18
BRANCH  17  26
ATOM     26  CB  HIS A   2       6.255   4.317  15.738  0.00  0.00    +0.000 C 
BRANCH  26  27
ATOM     27  CG  HIS A   2       6.544   4.227  14.273  0.00  0.00    +0.000 A 
ATOM     28  CD2 HIS A   2       7.408   4.927  13.455  0.00  0.00    +0.000 A 
ATOM     29  NE2 HIS A   2       7.338   4.475  12.164  0.00  0.00    +0.000 NA
ATOM     30  CE1 HIS A   2       6.487   3.478  12.191  0.00  0.00    +0.000 A 
ATOM     31  ND1 HIS A   2       5.994   3.274  13.449  0.00  0.00    +0.000 N 
ATOM     32  HD1 HIS A   2       5.357   2.536  13.717  0.00  0.00    +0.000 HD
ENDBRANCH  26  27
ENDBRANCH  17  26
ENDBRANCH   2  17
TORSDOF 14
ENDMDL
MODEL 2
REMARK VINA RESULT:      -6.8      2.140      2.808
REMARK  Name = 
REMARK  14 active torsions:
REMARK  status: ('A' for Active; 'I' for Inactive)
REMARK    1  A    between atoms: NZ_1  and  CE_2
REMARK    2  A    between atoms: CE_2  and  CD_3
REMARK    3  A    between atoms: CD_3  and  CG_4
REMARK    4  A    between atoms: CG_4  and  CB_5
REMARK    5  A    between atoms: CB_5  and  CA_6
REMARK    6  A    between atoms: CA_6  and  N_7
REMARK    7  A    between atoms: CA_6  and  C_22
REMARK    8  A    between atoms: C_8  and  CA_10
REMARK    9  A    between atoms: CA_10  and  CB_11
REMARK   10  A    between atoms: CA_10  and  N_17
REMARK   11  A    between atoms: CB_11  and  CG_12
REMARK   12  A    between atoms: C_18  and  CA_20
REMARK   13  A    between atoms: CA_20  and  N_21
REMARK   14  A    between atoms: C_22  and  OXT_24
REMARK                            x       y       z     vdW  Elec       q    Type
REMARK                         _______ _______ _______ _____ _____    ______ ____
ROOT
ATOM      1  N   LYS A   3       3.293   5.206  18.227  0.00  0.00    +0.000 N 
ATOM      2  C   HIS A   2       3.934   6.158  17.467  0.00  0.00    +0.000 C 
ATOM      3  O   HIS A   2       3.410   7.235  17.190  0.00  0.00    +0.000 OA
ATOM      4  H   LYS A   3       3.834   4.411  18.547  0.00  0.00    +0.000 HD
ENDROOT
BRANCH   1   5
ATOM      5  CA  LYS A   3       1.973   5.398  18.808  0.00  0.00    +0.000 C 
BRANCH   5   6
ATOM      6  C   LYS A   3       2.143   6.153  20.134  0.00  0.00    +0.000 C 
ATOM      7  O   LYS A   3       2.029   7.368  20.239  0.00  0.00    +0.000 OA
BRANCH   6   8
ATOM      8  OXT LYS A   3       2.467   5.362  21.183  0.00  0.00    +0.000 OA
ATOM      9  HXT LYS A   3       2.229   4.420  21.069  0.00  0.00    +0.000 HD
ENDBRANCH   6   8
ENDBRANCH   5   6
BRANCH   5  10
ATOM     10  CB  LYS A   3       1.333   4.031  19.058  0.00  0.00    +0.000 C 
BRANCH  10  11
ATOM     11  CG  LYS A   3       1.841   2.960  18.094  0.00  0.00    +0.000 C 
BRANCH  11  12
ATOM     12  CD  LYS A   3       2.470   1.795  18.854  0.00  0.00    +0.000 C 
BRANCH  12  13
ATOM     13  CE  LYS A   3       3.952   1.665  18.516  0.00  0.00    +0.000 C 
BRANCH  13  14
ATOM     14  NZ  LYS A   3       4.734   2.580  19.336  0.00  0.00    +0.000 NA
ATOM     15  HZ1 LYS A   3       4.132   3.328  19.677  0.00  0.00    +0.000 HD
ATOM     16  HZ2 LYS A   3       5.451   3.027  18.764  0.00  0.00    +0.000 HD
ENDBRANCH  13  14
ENDBRANCH  12  13
ENDBRANCH  11  12
ENDBRANCH  10  11
ENDBRANCH   5  10
ENDBRANCH   1   5
BRANCH   2  17
ATOM     17  CA  HIS A   2       5.337   5.756  16.959  0.00  0.00    +0.000 C 
BRANCH  17  18
ATOM     18  N   HIS A   2       6.344   5.725  18.026  0.00  0.00    +0.000 N 
ATOM     19  C   GLY A   1       7.476   6.516  17.945  0.00  0.00    +0.000 C 
ATOM     20  O   GLY A   1       7.766   7.181  16.957  0.00  0.00    +0.000 OA
ATOM     21  H   HIS A   2       6.065   5.436  18.961  0.00  0.00    +0.000 HD
BRANCH  19  22
ATOM     22  CA  GLY A   1       8.336   6.488  19.207  0.00  0.00    +0.000 C 
BRANCH  22  23
ATOM     23  N   GLY A   1       7.810   5.485  20.149  0.00  0.00    +0.000 NA
ATOM     24  H1  GLY A   1       6.805   5.657  20.263  0.00  0.00    +0.000 HD
ATOM     25  H2  GLY A   1       8.199   5.693  21.072  0.00  0.00    +0.000 HD
ENDBRANCH  22  23
ENDBRANCH  19  22
ENDBRANCH  17  18
BRANCH  17  26
ATOM     26  CB  HIS A   2       5.294   4.441  16.154  0.00  0.00    +0.000 C 
BRANCH  26  27
ATOM     27  CG  HIS A   2       6.072   4.450  14.877  0.00  0.00    +0.000 A 
ATOM     28  CD2 HIS A   2       5.863   3.836  13.659  0.00  0.00    +0.000 A 
ATOM     29  NE2 HIS A   2       6.852   4.156  12.769  0.00  0.00    +0.000 NA
ATOM     30  CE1 HIS A   2       7.632   4.997  13.405  0.00  0.00    +0.000 A 
ATOM     31  ND1 HIS A   2       7.191   5.224  14.677  0.00  0.00    +0.000 N 
ATOM     32  HD1 HIS A   2       7.608   5.867  15.337  0.00  0.00    +0.000 HD
ENDBRANCH  26  27
ENDBRANCH  17  26
ENDBRANCH   2  17
TORSDOF 14
ENDMDL
MODEL 3
REMARK VINA RESULT:      -6.7      2.546      4.735
REMARK  Name = 
REMARK  14 active torsions:
REMARK  status: ('A' for Active; 'I' for Inactive)
REMARK    1  A    between atoms: NZ_1  and  CE_2
REMARK    2  A    between atoms: CE_2  and  CD_3
REMARK    3  A    between atoms: CD_3  and  CG_4
REMARK    4  A    between atoms: CG_4  and  CB_5
REMARK    5  A    between atoms: CB_5  and  CA_6
REMARK    6  A    between atoms: CA_6  and  N_7
REMARK    7  A    between atoms: CA_6  and  C_22
REMARK    8  A    between atoms: C_8  and  CA_10
REMARK    9  A    between atoms: CA_10  and  CB_11
REMARK   10  A    between atoms: CA_10  and  N_17
REMARK   11  A    between atoms: CB_11  and  CG_12
REMARK   12  A    between atoms: C_18  and  CA_20
REMARK   13  A    between atoms: CA_20  and  N_21
REMARK   14  A    between atoms: C_22  and  OXT_24
REMARK                            x       y       z     vdW  Elec       q    Type
REMARK                         _______ _______ _______ _____ _____    ______ ____
ROOT
ATOM      1  N   LYS A   3       3.896   4.111  19.539  0.00  0.00    +0.000 N 
ATOM      2  C   HIS A   2       4.971   4.919  19.245  0.00  0.00    +0.000 C 
ATOM      3  O   HIS A   2       5.994   4.920  19.926  0.00  0.00    +0.000 OA
ATOM      4  H   LYS A   3       3.150   4.047  18.855  0.00  0.00    +0.000 HD
ENDROOT
BRANCH   1   5
ATOM      5  CA  LYS A   3       3.883   3.159  20.638  0.00  0.00    +0.000 C 
BRANCH   5   6
ATOM      6  C   LYS A   3       4.654   1.909  20.191  0.00  0.00    +0.000 C 
ATOM      7  O   LYS A   3       5.465   1.325  20.900  0.00  0.00    +0.000 OA
BRANCH   6   8
ATOM      8  OXT LYS A   3       4.387   1.519  18.923  0.00  0.00    +0.000 OA
ATOM      9  HXT LYS A   3       4.343   2.250  18.276  0.00  0.00    +0.000 HD
ENDBRANCH   6   8
ENDBRANCH   5   6
BRANCH   5  10
ATOM     10  CB  LYS A   3       2.435   2.795  20.970  0.00  0.00    +0.000 C 
BRANCH  10  11
ATOM     11  CG  LYS A   3       1.455   3.914  20.620  0.00  0.00    +0.000 C 
BRANCH  11  12
ATOM     12  CD  LYS A   3       0.692   3.589  19.338  0.00  0.00    +0.000 C 
BRANCH  12  13
ATOM     13  CE  LYS A   3       1.010   2.176  18.861  0.00  0.00    +0.000 C 
BRANCH  13  14
ATOM     14  NZ  LYS A   3       1.888   2.225  17.701  0.00  0.00    +0.000 NA
ATOM     15  HZ1 LYS A   3       2.515   3.024  17.784  0.00  0.00    +0.000 HD
ATOM     16  HZ2 LYS A   3       1.336   2.379  16.858  0.00  0.00    +0.000 HD
ENDBRANCH  13  14
ENDBRANCH  12  13
ENDBRANCH  11  12
ENDBRANCH  10  11
ENDBRANCH   5  10
ENDBRANCH   1   5
BRANCH   2  17
ATOM     17  CA  HIS A   2       4.778   5.849  18.026  0.00  0.00    +0.000 C 
BRANCH  17  18
ATOM     18  N   HIS A   2       5.601   5.460  16.875  0.00  0.00    +0.000 N 
ATOM     19  C   GLY A   1       5.418   4.232  16.263  0.00  0.00    +0.000 C 
ATOM     20  O   GLY A   1       4.668   3.367  16.699  0.00  0.00    +0.000 OA
ATOM     21  H   HIS A   2       6.026   6.187  16.302  0.00  0.00    +0.000 HD
BRANCH  19  22
ATOM     22  CA  GLY A   1       6.237   4.054  14.987  0.00  0.00    +0.000 C 
BRANCH  22  23
ATOM     23  N   GLY A   1       6.759   5.357  14.541  0.00  0.00    +0.000 NA
ATOM     24  H1  GLY A   1       7.569   5.590  15.127  0.00  0.00    +0.000 HD
ATOM     25  H2  GLY A   1       6.067   6.069  14.789  0.00  0.00    +0.000 HD
ENDBRANCH  22  23
ENDBRANCH  19  22
ENDBRANCH  17  18
BRANCH  17  26
ATOM     26  CB  HIS A   2       3.288   6.002  17.658  0.00  0.00    +0.000 C 
BRANCH  26  27
ATOM     27  CG  HIS A   2       2.598   7.176  18.277  0.00  0.00    +0.000 A 
ATOM     28  CD2 HIS A   2       2.187   7.435  19.569  0.00  0.00    +0.000 A 
ATOM     29  NE2 HIS A   2       1.604   8.670  19.663  0.00  0.00    +0.000 NA
ATOM     30  CE1 HIS A   2       1.700   9.190  18.463  0.00  0.00    +0.000 A 
ATOM     31  ND1 HIS A   2       2.313   8.334  17.593  0.00  0.00    +0.000 N 
ATOM     32  HD1 HIS A   2       2.532   8.537  16.627  0.00  0.00    +0.000 HD
ENDBRANCH  26  27
ENDBRANCH  17  26
ENDBRANCH   2  17
TORSDOF 14
ENDMDL
MODEL 4
REMARK VINA RESULT:      -6.7      2.731      7.348
REMARK  Name = 
REMARK  14 active torsions:
REMARK  status: ('A' for Active; 'I' for Inactive)
REMARK    1  A    between atoms: NZ_1  and  CE_2
REMARK    2  A    between atoms: CE_2  and  CD_3
REMARK    3  A    between atoms: CD_3  and  CG_4
REMARK    4  A    between atoms: CG_4  and  CB_5
REMARK    5  A    between atoms: CB_5  and  CA_6
REMARK    6  A    between atoms: CA_6  and  N_7
REMARK    7  A    between atoms: CA_6  and  C_22
REMARK    8  A    between atoms: C_8  and  CA_10
REMARK    9  A    between atoms: CA_10  and  CB_11
REMARK   10  A    between atoms: CA_10  and  N_17
REMARK   11  A    between atoms: CB_11  and  CG_12
REMARK   12  A    between atoms: C_18  and  CA_20
REMARK   13  A    between atoms: CA_20  and  N_21
REMARK   14  A    between atoms: C_22  and  OXT_24
REMARK                            x       y       z     vdW  Elec       q    Type
REMARK                         _______ _______ _______ _____ _____    ______ ____
ROOT
ATOM      1  N   LYS A   3       4.844   4.782  16.869  0.00  0.00    +0.000 N 
ATOM      2  C   HIS A   2       3.917   4.059  17.587  0.00  0.00    +0.000 C 
ATOM      3  O   HIS A   2       3.841   2.835  17.510  0.00  0.00    +0.000 OA
ATOM      4  H   LYS A   3       4.956   5.764  17.092  0.00  0.00    +0.000 HD
ENDROOT
BRANCH   1   5
ATOM      5  CA  LYS A   3       5.838   4.173  16.000  0.00  0.00    +0.000 C 
BRANCH   5   6
ATOM      6  C   LYS A   3       7.209   4.762  16.361  0.00  0.00    +0.000 C 
ATOM      7  O   LYS A   3       8.037   4.176  17.048  0.00  0.00    +0.000 OA
BRANCH   6   8
ATOM      8  OXT LYS A   3       7.418   6.010  15.883  0.00  0.00    +0.000 OA
ATOM      9  HXT LYS A   3       8.057   6.540  16.398  0.00  0.00    +0.000 HD
ENDBRANCH   6   8
ENDBRANCH   5   6
BRANCH   5  10
ATOM     10  CB  LYS A   3       5.495   4.493  14.543  0.00  0.00    +0.000 C 
BRANCH  10  11
ATOM     11  CG  LYS A   3       6.356   3.710  13.553  0.00  0.00    +0.000 C 
BRANCH  11  12
ATOM     12  CD  LYS A   3       5.547   3.318  12.318  0.00  0.00    +0.000 C 
BRANCH  12  13
ATOM     13  CE  LYS A   3       6.389   2.472  11.366  0.00  0.00    +0.000 C 
BRANCH  13  14
ATOM     14  NZ  LYS A   3       6.070   1.062  11.536  0.00  0.00    +0.000 NA
ATOM     15  HZ1 LYS A   3       6.608   0.510  10.870  0.00  0.00    +0.000 HD
ATOM     16  HZ2 LYS A   3       5.088   0.901  11.315  0.00  0.00    +0.000 HD
ENDBRANCH  13  14
ENDBRANCH  12  13
ENDBRANCH  11  12
ENDBRANCH  10  11
ENDBRANCH   5  10
ENDBRANCH   1   5
BRANCH   2  17
ATOM     17  CA  HIS A   2       2.962   4.903  18.459  0.00  0.00    +0.000 C 
BRANCH  17  18
ATOM     18  N   HIS A   2       2.597   4.239  19.715  0.00  0.00    +0.000 N 
ATOM     19  C   GLY A   1       1.517   3.374  19.765  0.00  0.00    +0.000 C 
ATOM     20  O   GLY A   1       0.746   3.205  18.828  0.00  0.00    +0.000 OA
ATOM     21  H   HIS A   2       3.310   4.107  20.430  0.00  0.00    +0.000 HD
BRANCH  19  22
ATOM     22  CA  GLY A   1       1.375   2.645  21.099  0.00  0.00    +0.000 C 
BRANCH  22  23
ATOM     23  N   GLY A   1       2.254   3.267  22.105  0.00  0.00    +0.000 NA
ATOM     24  H1  GLY A   1       3.124   2.723  22.143  0.00  0.00    +0.000 HD
ATOM     25  H2  GLY A   1       1.831   3.112  23.024  0.00  0.00    +0.000 HD
ENDBRANCH  22  23
ENDBRANCH  19  22
ENDBRANCH  17  18
BRANCH  17  26
ATOM     26  CB  HIS A   2       3.507   6.328  18.685  0.00  0.00    +0.000 C 
BRANCH  26  27
ATOM     27  CG  HIS A   2       2.554   7.279  19.336  0.00  0.00    +0.000 A 
ATOM     28  CD2 HIS A   2       1.889   8.393  18.865  0.00  0.00    +0.000 A 
ATOM     29  NE2 HIS A   2       1.097   8.943  19.837  0.00  0.00    +0.000 NA
ATOM     30  CE1 HIS A   2       1.226   8.154  20.876  0.00  0.00    +0.000 A 
ATOM     31  ND1 HIS A   2       2.081   7.120  20.617  0.00  0.00    +0.000 N 
ATOM     32  HD1 HIS A   2       2.300   6.366  21.254  0.00  0.00    +0.000 HD
ENDBRANCH  26  27
ENDBRANCH  17  26
ENDBRANCH   2  17
TORSDOF 14
ENDMDL
MODEL 5
REMARK VINA RESULT:      -6.6      3.138      7.163
REMARK  Name = 
REMARK  14 active torsions:
REMARK  status: ('A' for Active; 'I' for Inactive)
REMARK    1  A    between atoms: NZ_1  and  CE_2
REMARK    2  A    between atoms: CE_2  and  CD_3
REMARK    3  A    between atoms: CD_3  and  CG_4
REMARK    4  A    between atoms: CG_4  and  CB_5
REMARK    5  A    between atoms: CB_5  and  CA_6
REMARK    6  A    between atoms: CA_6  and  N_7
REMARK    7  A    between atoms: CA_6  and  C_22
REMARK    8  A    between atoms: C_8  and  CA_10
REMARK    9  A    between atoms: CA_10  and  CB_11
REMARK   10  A    between atoms: CA_10  and  N_17
REMARK   11  A    between atoms: CB_11  and  CG_12
REMARK   12  A    between atoms: C_18  and  CA_20
REMARK   13  A    between atoms: CA_20  and  N_21
REMARK   14  A    between atoms: C_22  and  OXT_24
REMARK                            x       y       z     vdW  Elec       q    Type
REMARK                         _______ _______ _______ _____ _____    ______ ____
ROOT
ATOM      1  N   LYS A   3       5.784   6.425  18.058  0.00  0.00    +0.000 N 
ATOM      2  C   HIS A   2       4.610   6.531  17.346  0.00  0.00    +0.000 C 
ATOM      3  O   HIS A   2       4.597   6.671  16.124  0.00  0.00    +0.000 OA
ATOM      4  H   LYS A   3       5.724   6.159  19.035  0.00  0.00    +0.000 HD
ENDROOT
BRANCH   1   5
ATOM      5  CA  LYS A   3       7.100   6.419  17.440  0.00  0.00    +0.000 C 
BRANCH   5   6
ATOM      6  C   LYS A   3       7.599   4.968  17.399  0.00  0.00    +0.000 C 
ATOM      7  O   LYS A   3       7.864   4.315  18.401  0.00  0.00    +0.000 OA
BRANCH   6   8
ATOM      8  OXT LYS A   3       7.756   4.472  16.150  0.00  0.00    +0.000 OA
ATOM      9  HXT LYS A   3       7.193   4.896  15.472  0.00  0.00    +0.000 HD
ENDBRANCH   6   8
ENDBRANCH   5   6
BRANCH   5  10
ATOM     10  CB  LYS A   3       8.050   7.279  18.275  0.00  0.00    +0.000 C 
BRANCH  10  11
ATOM     11  CG  LYS A   3       8.081   8.736  17.814  0.00  0.00    +0.000 C 
BRANCH  11  12
ATOM     12  CD  LYS A   3       8.833   9.610  18.815  0.00  0.00    +0.000 C 
BRANCH  12  13
ATOM     13  CE  LYS A   3       9.349  10.879  18.144  0.00  0.00    +0.000 C 
BRANCH  13  14
ATOM     14  NZ  LYS A   3       9.469  11.950  19.124  0.00  0.00    +0.000 NA
ATOM     15  HZ1 LYS A   3       9.139  12.823  18.714  0.00  0.00    +0.000 HD
ATOM     16  HZ2 LYS A   3      10.450  12.095  19.357  0.00  0.00    +0.000 HD
ENDBRANCH  13  14
ENDBRANCH  12  13
ENDBRANCH  11  12
ENDBRANCH  10  11
ENDBRANCH   5  10
ENDBRANCH   1   5
BRANCH   2  17
ATOM     17  CA  HIS A   2       3.322   6.503  18.198  0.00  0.00    +0.000 C 
BRANCH  17  18
ATOM     18  N   HIS A   2       2.466   7.675  17.979  0.00  0.00    +0.000 N 
ATOM     19  C   GLY A   1       1.870   8.319  19.049  0.00  0.00    +0.000 C 
ATOM     20  O   GLY A   1       1.914   7.898  20.199  0.00  0.00    +0.000 OA
ATOM     21  H   HIS A   2       2.596   8.232  17.137  0.00  0.00    +0.000 HD
BRANCH  19  22
ATOM     22  CA  GLY A   1       1.150   9.609  18.665  0.00  0.00    +0.000 C 
BRANCH  22  23
ATOM     23  N   GLY A   1       1.825  10.235  17.515  0.00  0.00    +0.000 NA
ATOM     24  H1  GLY A   1       1.686  11.250  17.582  0.00  0.00    +0.000 HD
ATOM     25  H2  GLY A   1       1.307   9.974  16.673  0.00  0.00    +0.000 HD
ENDBRANCH  22  23
ENDBRANCH  19  22
ENDBRANCH  17  18
BRANCH  17  26
ATOM     26  CB  HIS A   2       2.556   5.175  18.026  0.00  0.00    +0.000 C 
BRANCH  26  27
ATOM     27  CG  HIS A   2       2.350   4.391  19.283  0.00  0.00    +0.000 A 
ATOM     28  CD2 HIS A   2       1.321   4.368  20.203  0.00  0.00    +0.000 A 
ATOM     29  NE2 HIS A   2       1.571   3.463  21.200  0.00  0.00    +0.000 NA
ATOM     30  CE1 HIS A   2       2.709   2.897  20.876  0.00  0.00    +0.000 A 
ATOM     31  ND1 HIS A   2       3.210   3.409  19.713  0.00  0.00    +0.000 N 
ATOM     32  HD1 HIS A   2       4.053   3.097  19.250  0.00  0.00    +0.000 HD
ENDBRANCH  26  27
ENDBRANCH  17  26
ENDBRANCH   2  17
TORSDOF 14
ENDMDL
MODEL 6
REMARK VINA RESULT:      -6.6      1.956      2.877
REMARK  Name = 
REMARK  14 active torsions:
REMARK  status: ('A' for Active; 'I' for Inactive)
REMARK    1  A    between atoms: NZ_1  and  CE_2
REMARK    2  A    between atoms: CE_2  and  CD_3
REMARK    3  A    between atoms: CD_3  and  CG_4
REMARK    4  A    between atoms: CG_4  and  CB_5
REMARK    5  A    between atoms: CB_5  and  CA_6
REMARK    6  A    between atoms: CA_6  and  N_7
REMARK    7  A    between atoms: CA_6  and  C_22
REMARK    8  A    between atoms: C_8  and  CA_10
REMARK    9  A    between atoms: CA_10  and  CB_11
REMARK   10  A    between atoms: CA_10  and  N_17
REMARK   11  A    between atoms: CB_11  and  CG_12
REMARK   12  A    between atoms: C_18  and  CA_20
REMARK   13  A    between atoms: CA_20  and  N_21
REMARK   14  A    between atoms: C_22  and  OXT_24
REMARK                            x       y       z     vdW  Elec       q    Type
REMARK                         _______ _______ _______ _____ _____    ______ ____
ROOT
ATOM      1  N   LYS A   3       3.808   5.884  17.944  0.00  0.00    +0.000 N 
ATOM      2  C   HIS A   2       4.172   4.862  17.097  0.00  0.00    +0.000 C 
ATOM      3  O   HIS A   2       3.401   3.950  16.804  0.00  0.00    +0.000 OA
ATOM      4  H   LYS A   3       4.433   6.679  18.023  0.00  0.00    +0.000 HD
ENDROOT
BRANCH   1   5
ATOM      5  CA  LYS A   3       2.482   6.011  18.527  0.00  0.00    +0.000 C 
BRANCH   5   6
ATOM      6  C   LYS A   3       2.310   7.459  19.006  0.00  0.00    +0.000 C 
ATOM      7  O   LYS A   3       2.329   8.427  18.254  0.00  0.00    +0.000 OA
BRANCH   6   8
ATOM      8  OXT LYS A   3       2.169   7.586  20.345  0.00  0.00    +0.000 OA
ATOM      9  HXT LYS A   3       1.929   8.485  20.644  0.00  0.00    +0.000 HD
ENDBRANCH   6   8
ENDBRANCH   5   6
BRANCH   5  10
ATOM     10  CB  LYS A   3       2.360   5.047  19.710  0.00  0.00    +0.000 C 
BRANCH  10  11
ATOM     11  CG  LYS A   3       1.303   3.968  19.479  0.00  0.00    +0.000 C 
BRANCH  11  12
ATOM     12  CD  LYS A   3       1.011   3.205  20.769  0.00  0.00    +0.000 C 
BRANCH  12  13
ATOM     13  CE  LYS A   3       2.116   3.435  21.796  0.00  0.00    +0.000 C 
BRANCH  13  14
ATOM     14  NZ  LYS A   3       3.021   2.294  21.821  0.00  0.00    +0.000 NA
ATOM     15  HZ1 LYS A   3       3.690   2.409  22.581  0.00  0.00    +0.000 HD
ATOM     16  HZ2 LYS A   3       3.566   2.268  20.961  0.00  0.00    +0.000 HD
ENDBRANCH  13  14
ENDBRANCH  12  13
ENDBRANCH  11  12
ENDBRANCH  10  11
ENDBRANCH   5  10
ENDBRANCH   1   5
BRANCH   2  17
ATOM     17  CA  HIS A   2       5.626   4.925  16.580  0.00  0.00    +0.000 C 
BRANCH  17  18
ATOM     18  N   HIS A   2       6.606   5.133  17.653  0.00  0.00    +0.000 N 
ATOM     19  C   GLY A   1       7.298   6.327  17.750  0.00  0.00    +0.000 C 
ATOM     20  O   GLY A   1       7.233   7.215  16.908  0.00  0.00    +0.000 OA
ATOM     21  H   HIS A   2       6.520   4.593  18.512  0.00  0.00    +0.000 HD
BRANCH  19  22
ATOM     22  CA  GLY A   1       8.152   6.441  19.011  0.00  0.00    +0.000 C 
BRANCH  22  23
ATOM     23  N   GLY A   1       7.661   5.501  20.034  0.00  0.00    +0.000 NA
ATOM     24  H1  GLY A   1       8.211   4.638  19.959  0.00  0.00    +0.000 HD
ATOM     25  H2  GLY A   1       6.718   5.213  19.763  0.00  0.00    +0.000 HD
ENDBRANCH  22  23
ENDBRANCH  19  22
ENDBRANCH  17  18
BRANCH  17  26
ATOM     26  CB  HIS A   2       5.970   3.706  15.699  0.00  0.00    +0.000 C 
BRANCH  26  27
ATOM     27  CG  HIS A   2       6.477   4.032  14.331  0.00  0.00    +0.000 A 
ATOM     28  CD2 HIS A   2       7.339   5.007  13.869  0.00  0.00    +0.000 A 
ATOM     29  NE2 HIS A   2       7.522   4.903  12.516  0.00  0.00    +0.000 NA
ATOM     30  CE1 HIS A   2       6.830   3.850  12.153  0.00  0.00    +0.000 A 
ATOM     31  ND1 HIS A   2       6.196   3.275  13.218  0.00  0.00    +0.000 N 
ATOM     32  HD1 HIS A   2       5.641   2.431  13.185  0.00  0.00    +0.000 HD
ENDBRANCH  26  27
ENDBRANCH  17  26
ENDBRANCH   2  17
TORSDOF 14
ENDMDL
MODEL 7
REMARK VINA RESULT:      -6.5      2.099      3.183
REMARK  Name = 
REMARK  14 active torsions:
REMARK  status: ('A' for Active; 'I' for Inactive)
REMARK    1  A    between atoms: NZ_1  and  CE_2
REMARK    2  A    between atoms: CE_2  and  CD_3
REMARK    3  A    between atoms: CD_3  and  CG_4
REMARK    4  A    between atoms: CG_4  and  CB_5
REMARK    5  A    between atoms: CB_5  and  CA_6
REMARK    6  A    between atoms: CA_6  and  N_7
REMARK    7  A    between atoms: CA_6  and  C_22
REMARK    8  A    between atoms: C_8  and  CA_10
REMARK    9  A    between atoms: CA_10  and  CB_11
REMARK   10  A    between atoms: CA_10  and  N_17
REMARK   11  A    between atoms: CB_11  and  CG_12
REMARK   12  A    between atoms: C_18  and  CA_20
REMARK   13  A    between atoms: CA_20  and  N_21
REMARK   14  A    between atoms: C_22  and  OXT_24
REMARK                            x       y       z     vdW  Elec       q    Type
REMARK                         _______ _______ _______ _____ _____    ______ ____
ROOT
ATOM      1  N   LYS A   3       3.719   5.834  18.322  0.00  0.00    +0.000 N 
ATOM      2  C   HIS A   2       4.002   4.991  17.271  0.00  0.00    +0.000 C 
ATOM      3  O   HIS A   2       3.155   4.241  16.787  0.00  0.00    +0.000 OA
ATOM      4  H   LYS A   3       4.412   6.531  18.571  0.00  0.00    +0.000 HD
ENDROOT
BRANCH   1   5
ATOM      5  CA  LYS A   3       2.400   5.953  18.923  0.00  0.00    +0.000 C 
BRANCH   5   6
ATOM      6  C   LYS A   3       2.207   7.413  19.358  0.00  0.00    +0.000 C 
ATOM      7  O   LYS A   3       2.154   8.351  18.573  0.00  0.00    +0.000 OA
BRANCH   6   8
ATOM      8  OXT LYS A   3       2.134   7.585  20.698  0.00  0.00    +0.000 OA
ATOM      9  HXT LYS A   3       2.976   7.436  21.172  0.00  0.00    +0.000 HD
ENDBRANCH   6   8
ENDBRANCH   5   6
BRANCH   5  10
ATOM     10  CB  LYS A   3       2.316   5.026  20.137  0.00  0.00    +0.000 C 
BRANCH  10  11
ATOM     11  CG  LYS A   3       3.447   3.999  20.169  0.00  0.00    +0.000 C 
BRANCH  11  12
ATOM     12  CD  LYS A   3       2.910   2.604  20.483  0.00  0.00    +0.000 C 
BRANCH  12  13
ATOM     13  CE  LYS A   3       1.864   2.184  19.454  0.00  0.00    +0.000 C 
BRANCH  13  14
ATOM     14  NZ  LYS A   3       2.517   1.731  18.234  0.00  0.00    +0.000 NA
ATOM     15  HZ1 LYS A   3       1.814   1.386  17.582  0.00  0.00    +0.000 HD
ATOM     16  HZ2 LYS A   3       3.126   0.940  18.442  0.00  0.00    +0.000 HD
ENDBRANCH  13  14
ENDBRANCH  12  13
ENDBRANCH  11  12
ENDBRANCH  10  11
ENDBRANCH   5  10
ENDBRANCH   1   5
BRANCH   2  17
ATOM     17  CA  HIS A   2       5.464   5.030  16.775  0.00  0.00    +0.000 C 
BRANCH  17  18
ATOM     18  N   HIS A   2       6.431   5.219  17.862  0.00  0.00    +0.000 N 
ATOM     19  C   GLY A   1       7.401   6.202  17.777  0.00  0.00    +0.000 C 
ATOM     20  O   GLY A   1       7.590   6.878  16.772  0.00  0.00    +0.000 OA
ATOM     21  H   HIS A   2       6.186   4.913  18.802  0.00  0.00    +0.000 HD
BRANCH  19  22
ATOM     22  CA  GLY A   1       8.217   6.374  19.056  0.00  0.00    +0.000 C 
BRANCH  22  23
ATOM     23  N   GLY A   1       7.697   5.479  20.104  0.00  0.00    +0.000 NA
ATOM     24  H1  GLY A   1       7.472   6.051  20.926  0.00  0.00    +0.000 HD
ATOM     25  H2  GLY A   1       8.473   4.891  20.422  0.00  0.00    +0.000 HD
ENDBRANCH  22  23
ENDBRANCH  19  22
ENDBRANCH  17  18
BRANCH  17  26
ATOM     26  CB  HIS A   2       5.800   3.807  15.897  0.00  0.00    +0.000 C 
BRANCH  26  27
ATOM     27  CG  HIS A   2       6.416   4.124  14.572  0.00  0.00    +0.000 A 
ATOM     28  CD2 HIS A   2       6.136   3.690  13.292  0.00  0.00    +0.000 A 
ATOM     29  NE2 HIS A   2       6.970   4.277  12.379  0.00  0.00    +0.000 NA
ATOM     30  CE1 HIS A   2       7.716   5.102  13.072  0.00  0.00    +0.000 A 
ATOM     31  ND1 HIS A   2       7.406   5.062  14.402  0.00  0.00    +0.000 N 
ATOM     32  HD1 HIS A   2       7.822   5.641  15.119  0.00  0.00    +0.000 HD
ENDBRANCH  26  27
ENDBRANCH  17  26
ENDBRANCH   2  17
TORSDOF 14
ENDMDL
MODEL 8
REMARK VINA RESULT:      -6.5      3.204      6.091
REMARK  Name = 
REMARK  14 active torsions:
REMARK  status: ('A' for Active; 'I' for Inactive)
REMARK    1  A    between atoms: NZ_1  and  CE_2
REMARK    2  A    between atoms: CE_2  and  CD_3
REMARK    3  A    between atoms: CD_3  and  CG_4
REMARK    4  A    between atoms: CG_4  and  CB_5
REMARK    5  A    between atoms: CB_5  and  CA_6
REMARK    6  A    between atoms: CA_6  and  N_7
REMARK    7  A    between atoms: CA_6  and  C_22
REMARK    8  A    between atoms: C_8  and  CA_10
REMARK    9  A    between atoms: CA_10  and  CB_11
REMARK   10  A    between atoms: CA_10  and  N_17
REMARK   11  A    between atoms: CB_11  and  CG_12
REMARK   12  A    between atoms: C_18  and  CA_20
REMARK   13  A    between atoms: CA_20  and  N_21
REMARK   14  A    between atoms: C_22  and  OXT_24
REMARK                            x       y       z     vdW  Elec       q    Type
REMARK                         _______ _______ _______ _____ _____    ______ ____
ROOT
ATOM      1  N   LYS A   3       3.025   5.487  18.180  0.00  0.00    +0.000 N 
ATOM      2  C   HIS A   2       2.468   4.351  17.638  0.00  0.00    +0.000 C 
ATOM      3  O   HIS A   2       1.269   4.271  17.377  0.00  0.00    +0.000 OA
ATOM      4  H   LYS A   3       4.037   5.543  18.228  0.00  0.00    +0.000 HD
ENDROOT
BRANCH   1   5
ATOM      5  CA  LYS A   3       2.272   6.702  18.449  0.00  0.00    +0.000 C 
BRANCH   5   6
ATOM      6  C   LYS A   3       2.979   7.865  17.739  0.00  0.00    +0.000 C 
ATOM      7  O   LYS A   3       4.193   7.925  17.583  0.00  0.00    +0.000 OA
BRANCH   6   8
ATOM      8  OXT LYS A   3       2.147   8.848  17.325  0.00  0.00    +0.000 OA
ATOM      9  HXT LYS A   3       1.539   8.588  16.605  0.00  0.00    +0.000 HD
ENDBRANCH   6   8
ENDBRANCH   5   6
BRANCH   5  10
ATOM     10  CB  LYS A   3       2.238   6.948  19.959  0.00  0.00    +0.000 C 
BRANCH  10  11
ATOM     11  CG  LYS A   3       1.582   8.279  20.321  0.00  0.00    +0.000 C 
BRANCH  11  12
ATOM     12  CD  LYS A   3       1.045   8.252  21.750  0.00  0.00    +0.000 C 
BRANCH  12  13
ATOM     13  CE  LYS A   3       0.301   9.544  22.073  0.00  0.00    +0.000 C 
BRANCH  13  14
ATOM     14  NZ  LYS A   3       0.273   9.759  23.513  0.00  0.00    +0.000 NA
ATOM     15  HZ1 LYS A   3      -0.423  10.468  23.737  0.00  0.00    +0.000 HD
ATOM     16  HZ2 LYS A   3       1.170  10.131  23.823  0.00  0.00    +0.000 HD
ENDBRANCH  13  14
ENDBRANCH  12  13
ENDBRANCH  11  12
ENDBRANCH  10  11
ENDBRANCH   5  10
ENDBRANCH   1   5
BRANCH   2  17
ATOM     17  CA  HIS A   2       3.450   3.178  17.422  0.00  0.00    +0.000 C 
BRANCH  17  18
ATOM     18  N   HIS A   2       4.855   3.576  17.561  0.00  0.00    +0.000 N 
ATOM     19  C   GLY A   1       5.555   4.076  16.477  0.00  0.00    +0.000 C 
ATOM     20  O   GLY A   1       5.102   4.106  15.339  0.00  0.00    +0.000 OA
ATOM     21  H   HIS A   2       5.207   3.838  18.481  0.00  0.00    +0.000 HD
BRANCH  19  22
ATOM     22  CA  GLY A   1       6.947   4.593  16.829  0.00  0.00    +0.000 C 
BRANCH  22  23
ATOM     23  N   GLY A   1       7.248   4.297  18.241  0.00  0.00    +0.000 NA
ATOM     24  H1  GLY A   1       7.442   5.186  18.716  0.00  0.00    +0.000 HD
ATOM     25  H2  GLY A   1       8.146   3.806  18.270  0.00  0.00    +0.000 HD
ENDBRANCH  22  23
ENDBRANCH  19  22
ENDBRANCH  17  18
BRANCH  17  26
ATOM     26  CB  HIS A   2       3.092   1.967  18.308  0.00  0.00    +0.000 C 
BRANCH  26  27
ATOM     27  CG  HIS A   2       2.675   2.300  19.705  0.00  0.00    +0.000 A 
ATOM     28  CD2 HIS A   2       3.398   2.600  20.842  0.00  0.00    +0.000 A 
ATOM     29  NE2 HIS A   2       2.569   2.857  21.900  0.00  0.00    +0.000 NA
ATOM     30  CE1 HIS A   2       1.353   2.772  21.416  0.00  0.00    +0.000 A 
ATOM     31  ND1 HIS A   2       1.363   2.458  20.087  0.00  0.00    +0.000 N 
ATOM     32  HD1 HIS A   2       0.547   2.380  19.496  0.00  0.00    +0.000 HD
ENDBRANCH  26  27
ENDBRANCH  17  26
ENDBRANCH   2  17
TORSDOF 14
ENDMDL
MODEL 9
REMARK VINA RESULT:      -6.4      2.592      6.842
REMARK  Name = 
REMARK  14 active torsions:
REMARK  status: ('A' for Active; 'I' for Inactive)
REMARK    1  A    between atoms: NZ_1  and  CE_2
REMARK    2  A    between atoms: CE_2  and  CD_3
REMARK    3  A    between atoms: CD_3  and  CG_4
REMARK    4  A    between atoms: CG_4  and  CB_5
REMARK    5  A    between atoms: CB_5  and  CA_6
REMARK    6  A    between atoms: CA_6  and  N_7
REMARK    7  A    between atoms: CA_6  and  C_22
REMARK    8  A    between atoms: C_8  and  CA_10
REMARK    9  A    between atoms: CA_10  and  CB_11
REMARK   10  A    between atoms: CA_10  and  N_17
REMARK   11  A    between atoms: CB_11  and  CG_12
REMARK   12  A    between atoms: C_18  and  CA_20
REMARK   13  A    between atoms: CA_20  and  N_21
REMARK   14  A    between atoms: C_22  and  OXT_24
REMARK                            x       y       z     vdW  Elec       q    Type
REMARK                         _______ _______ _______ _____ _____    ______ ____
ROOT
ATOM      1  N   LYS A   3       4.890   4.595  16.808  0.00  0.00    +0.000 N 
ATOM      2  C   HIS A   2       4.453   5.883  17.022  0.00  0.00    +0.000 C 
ATOM      3  O   HIS A   2       5.019   6.856  16.527  0.00  0.00    +0.000 OA
ATOM      4  H   LYS A   3       4.294   3.835  17.115  0.00  0.00    +0.000 HD
ENDROOT
BRANCH   1   5
ATOM      5  CA  LYS A   3       6.017   4.261  15.951  0.00  0.00    +0.000 C 
BRANCH   5   6
ATOM      6  C   LYS A   3       7.278   4.892  16.559  0.00  0.00    +0.000 C 
ATOM      7  O   LYS A   3       7.886   4.409  17.507  0.00  0.00    +0.000 OA
BRANCH   6   8
ATOM      8  OXT LYS A   3       7.649   6.055  15.977  0.00  0.00    +0.000 OA
ATOM      9  HXT LYS A   3       8.600   6.114  15.757  0.00  0.00    +0.000 HD
ENDBRANCH   6   8
ENDBRANCH   5   6
BRANCH   5  10
ATOM     10  CB  LYS A   3       5.767   4.826  14.551  0.00  0.00    +0.000 C 
BRANCH  10  11
ATOM     11  CG  LYS A   3       5.163   3.792  13.602  0.00  0.00    +0.000 C 
BRANCH  11  12
ATOM     12  CD  LYS A   3       6.140   3.442  12.482  0.00  0.00    +0.000 C 
BRANCH  12  13
ATOM     13  CE  LYS A   3       5.553   2.371  11.567  0.00  0.00    +0.000 C 
BRANCH  13  14
ATOM     14  NZ  LYS A   3       6.551   1.347  11.291  0.00  0.00    +0.000 NA
ATOM     15  HZ1 LYS A   3       7.437   1.792  11.059  0.00  0.00    +0.000 HD
ATOM     16  HZ2 LYS A   3       6.275   0.811  10.470  0.00  0.00    +0.000 HD
ENDBRANCH  13  14
ENDBRANCH  12  13
ENDBRANCH  11  12
ENDBRANCH  10  11
ENDBRANCH   5  10
ENDBRANCH   1   5
BRANCH   2  17
ATOM     17  CA  HIS A   2       3.231   6.014  17.957  0.00  0.00    +0.000 C 
BRANCH  17  18
ATOM     18  N   HIS A   2       2.402   7.186  17.655  0.00  0.00    +0.000 N 
ATOM     19  C   GLY A   1       1.981   8.029  18.667  0.00  0.00    +0.000 C 
ATOM     20  O   GLY A   1       2.162   7.797  19.857  0.00  0.00    +0.000 OA
ATOM     21  H   HIS A   2       2.441   7.592  16.721  0.00  0.00    +0.000 HD
BRANCH  19  22
ATOM     22  CA  GLY A   1       1.270   9.285  18.167  0.00  0.00    +0.000 C 
BRANCH  22  23
ATOM     23  N   GLY A   1       2.259  10.243  17.641  0.00  0.00    +0.000 NA
ATOM     24  H1  GLY A   1       1.812  10.774  16.885  0.00  0.00    +0.000 HD
ATOM     25  H2  GLY A   1       2.986   9.705  17.163  0.00  0.00    +0.000 HD
ENDBRANCH  22  23
ENDBRANCH  19  22
ENDBRANCH  17  18
BRANCH  17  26
ATOM     26  CB  HIS A   2       2.409   4.710  18.003  0.00  0.00    +0.000 C 
BRANCH  26  27
ATOM     27  CG  HIS A   2       2.139   4.175  19.374  0.00  0.00    +0.000 A 
ATOM     28  CD2 HIS A   2       2.624   4.526  20.618  0.00  0.00    +0.000 A 
ATOM     29  NE2 HIS A   2       2.067   3.752  21.600  0.00  0.00    +0.000 NA
ATOM     30  CE1 HIS A   2       1.211   2.973  20.984  0.00  0.00    +0.000 A 
ATOM     31  ND1 HIS A   2       1.201   3.205  19.638  0.00  0.00    +0.000 N 
ATOM     32  HD1 HIS A   2       0.593   2.753  18.969  0.00  0.00    +0.000 HD
ENDBRANCH  26  27
ENDBRANCH  17  26
ENDBRANCH   2  17
TORSDOF 14
ENDMDL
