MODEL 1
REMARK VINA RESULT:      -7.3      0.000      0.000
REMARK  Name = 
REMARK  4 active torsions:
REMARK  status: ('A' for Active; 'I' for Inactive)
REMARK    1  A    between atoms: C_1  and  C_2
REMARK    2  A    between atoms: C_2  and  C_3
REMARK    3  A    between atoms: N_5  and  C_6
REMARK    4  A    between atoms: C_6  and  C_7
REMARK                            x       y       z     vdW  Elec       q    Type
REMARK                         _______ _______ _______ _____ _____    ______ ____
ROOT
ATOM      1  C   UNL     1       5.411   5.932  18.133  0.00  0.00    +0.000 C 
ATOM      2  O   UNL     1       5.512   5.533  19.285  0.00  0.00    +0.000 OA
ATOM      3  N   UNL     1       4.262   6.475  17.628  0.00  0.00    +0.000 N 
ATOM      4  H   UNL     1       4.221   6.885  16.700  0.00  0.00    +0.000 HD
ENDROOT
BRANCH   1   6
ATOM      5  C   UNL     1       7.445   7.118  17.172  0.00  0.00    +0.000 C 
ATOM      6  C   UNL     1       6.600   5.865  17.225  0.00  0.00    +0.000 C 
ATOM      7  C   UNL     1       7.362   4.542  17.282  0.00  0.00    +0.000 C 
ATOM      8  C   UNL     1       6.600   4.905  16.044  0.00  0.00    +0.000 C 
ATOM      9 CL   UNL     1       5.172   3.943  15.664  0.00  0.00    +0.000 Cl
ATOM     10 CL   UNL     1       7.565   5.251  14.603  0.00  0.00    +0.000 Cl
ENDBRANCH   1   6
BRANCH   3  11
ATOM     11  C   UNL     1       3.088   6.552  18.469  0.00  0.00    +0.000 C 
BRANCH  11  12
ATOM     12  C   UNL     1       2.341   5.272  18.457  0.00  0.00    +0.000 A 
ATOM     13  N   UNL     1       1.731   4.722  17.423  0.00  0.00    +0.000 NA
ATOM     14  N   UNL     1       1.116   3.566  17.848  0.00  0.00    +0.000 NA
ATOM     15  C   UNL     1       1.360   3.428  19.133  0.00  0.00    +0.000 A 
ATOM     16  C   UNL     1       0.981   2.443  20.086  0.00  0.00    +0.000 A 
ATOM     17  C   UNL     1       1.389   2.560  21.365  0.00  0.00    +0.000 A 
ATOM     18  C   UNL     1       2.213   3.680  21.797  0.00  0.00    +0.000 A 
ATOM     19  C   UNL     1       2.568   4.616  20.898  0.00  0.00    +0.000 A 
ATOM     20  N   UNL     1       2.142   4.486  19.575  0.00  0.00    +0.000 N 
ENDBRANCH  11  12
ENDBRANCH   3  11
TORSDOF 3
ENDMDL
MODEL 2
REMARK VINA RESULT:      -7.0      2.026      2.199
REMARK  Name = 
REMARK  4 active torsions:
REMARK  status: ('A' for Active; 'I' for Inactive)
REMARK    1  A    between atoms: C_1  and  C_2
REMARK    2  A    between atoms: C_2  and  C_3
REMARK    3  A    between atoms: N_5  and  C_6
REMARK    4  A    between atoms: C_6  and  C_7
REMARK                            x       y       z     vdW  Elec       q    Type
REMARK                         _______ _______ _______ _____ _____    ______ ____
ROOT
ATOM      1  C   UNL     1       6.056   4.435  18.244  0.00  0.00    +0.000 C 
ATOM      2  O   UNL     1       5.924   4.024  19.388  0.00  0.00    +0.000 OA
ATOM      3  N   UNL     1       5.416   3.880  17.170  0.00  0.00    +0.000 N 
ATOM      4  H   UNL     1       5.465   4.288  16.242  0.00  0.00    +0.000 HD
ENDROOT
BRANCH   1   6
ATOM      5  C   UNL     1       8.053   5.828  18.978  0.00  0.00    +0.000 C 
ATOM      6  C   UNL     1       6.930   5.623  17.986  0.00  0.00    +0.000 C 
ATOM      7  C   UNL     1       7.286   5.837  16.515  0.00  0.00    +0.000 C 
ATOM      8  C   UNL     1       6.385   6.813  17.209  0.00  0.00    +0.000 C 
ATOM      9 CL   UNL     1       4.698   6.858  16.698  0.00  0.00    +0.000 Cl
ATOM     10 CL   UNL     1       7.039   8.434  17.471  0.00  0.00    +0.000 Cl
ENDBRANCH   1   6
BRANCH   3  11
ATOM     11  C   UNL     1       4.569   2.725  17.374  0.00  0.00    +0.000 C 
BRANCH  11  12
ATOM     12  C   UNL     1       3.201   3.132  17.771  0.00  0.00    +0.000 A 
ATOM     13  N   UNL     1       2.273   3.655  16.989  0.00  0.00    +0.000 NA
ATOM     14  N   UNL     1       1.168   3.937  17.760  0.00  0.00    +0.000 NA
ATOM     15  C   UNL     1       1.436   3.581  18.997  0.00  0.00    +0.000 A 
ATOM     16  C   UNL     1       0.684   3.642  20.203  0.00  0.00    +0.000 A 
ATOM     17  C   UNL     1       1.226   3.191  21.351  0.00  0.00    +0.000 A 
ATOM     18  C   UNL     1       2.574   2.641  21.387  0.00  0.00    +0.000 A 
ATOM     19  C   UNL     1       3.290   2.589  20.248  0.00  0.00    +0.000 A 
ATOM     20  N   UNL     1       2.719   3.056  19.063  0.00  0.00    +0.000 N 
ENDBRANCH  11  12
ENDBRANCH   3  11
TORSDOF 3
ENDMDL
MODEL 3
REMARK VINA RESULT:      -7.0      2.555      5.984
REMARK  Name = 
REMARK  4 active torsions:
REMARK  status: ('A' for Active; 'I' for Inactive)
REMARK    1  A    between atoms: C_1  and  C_2
REMARK    2  A    between atoms: C_2  and  C_3
REMARK    3  A    between atoms: N_5  and  C_6
REMARK    4  A    between atoms: C_6  and  C_7
REMARK                            x       y       z     vdW  Elec       q    Type
REMARK                         _______ _______ _______ _____ _____    ______ ____
ROOT
ATOM      1  C   UNL     1       3.139   5.234  19.307  0.00  0.00    +0.000 C 
ATOM      2  O   UNL     1       3.039   6.453  19.275  0.00  0.00    +0.000 OA
ATOM      3  N   UNL     1       4.338   4.585  19.417  0.00  0.00    +0.000 N 
ATOM      4  H   UNL     1       4.397   3.578  19.534  0.00  0.00    +0.000 HD
ENDROOT
BRANCH   1   6
ATOM      5  C   UNL     1       0.971   4.544  20.443  0.00  0.00    +0.000 C 
ATOM      6  C   UNL     1       1.901   4.394  19.259  0.00  0.00    +0.000 C 
ATOM      7  C   UNL     1       1.234   4.332  17.885  0.00  0.00    +0.000 C 
ATOM      8  C   UNL     1       1.887   3.106  18.448  0.00  0.00    +0.000 C 
ATOM      9 CL   UNL     1       3.349   2.531  17.647  0.00  0.00    +0.000 Cl
ATOM     10 CL   UNL     1       0.809   1.777  18.889  0.00  0.00    +0.000 Cl
ENDBRANCH   1   6
BRANCH   3  11
ATOM     11  C   UNL     1       5.559   5.358  19.458  0.00  0.00    +0.000 C 
BRANCH  11  12
ATOM     12  C   UNL     1       6.485   4.949  18.376  0.00  0.00    +0.000 A 
ATOM     13  N   UNL     1       7.714   4.488  18.519  0.00  0.00    +0.000 NA
ATOM     14  N   UNL     1       8.245   4.277  17.267  0.00  0.00    +0.000 NA
ATOM     15  C   UNL     1       7.333   4.610  16.380  0.00  0.00    +0.000 A 
ATOM     16  C   UNL     1       7.324   4.607  14.957  0.00  0.00    +0.000 A 
ATOM     17  C   UNL     1       6.221   5.008  14.296  0.00  0.00    +0.000 A 
ATOM     18  C   UNL     1       5.031   5.452  15.008  0.00  0.00    +0.000 A 
ATOM     19  C   UNL     1       5.040   5.463  16.354  0.00  0.00    +0.000 A 
ATOM     20  N   UNL     1       6.186   5.042  17.031  0.00  0.00    +0.000 N 
ENDBRANCH  11  12
ENDBRANCH   3  11
TORSDOF 3
ENDMDL
MODEL 4
REMARK VINA RESULT:      -6.7      2.986      6.028
REMARK  Name = 
REMARK  4 active torsions:
REMARK  status: ('A' for Active; 'I' for Inactive)
REMARK    1  A    between atoms: C_1  and  C_2
REMARK    2  A    between atoms: C_2  and  C_3
REMARK    3  A    between atoms: N_5  and  C_6
REMARK    4  A    between atoms: C_6  and  C_7
REMARK                            x       y       z     vdW  Elec       q    Type
REMARK                         _______ _______ _______ _____ _____    ______ ____
ROOT
ATOM      1  C   UNL     1       3.172   3.123  17.646  0.00  0.00    +0.000 C 
ATOM      2  O   UNL     1       2.450   3.549  16.755  0.00  0.00    +0.000 OA
ATOM      3  N   UNL     1       4.533   3.052  17.537  0.00  0.00    +0.000 N 
ATOM      4  H   UNL     1       5.124   2.782  18.317  0.00  0.00    +0.000 HD
ENDROOT
BRANCH   1   6
ATOM      5  C   UNL     1       1.440   1.677  18.820  0.00  0.00    +0.000 C 
ATOM      6  C   UNL     1       2.560   2.685  18.941  0.00  0.00    +0.000 C 
ATOM      7  C   UNL     1       3.569   2.437  20.062  0.00  0.00    +0.000 C 
ATOM      8  C   UNL     1       2.625   3.596  20.159  0.00  0.00    +0.000 C 
ATOM      9 CL   UNL     1       3.319   5.213  20.037  0.00  0.00    +0.000 Cl
ATOM     10 CL   UNL     1       1.392   3.500  21.421  0.00  0.00    +0.000 Cl
ENDBRANCH   1   6
BRANCH   3  11
ATOM     11  C   UNL     1       5.164   3.457  16.299  0.00  0.00    +0.000 C 
BRANCH  11  12
ATOM     12  C   UNL     1       5.523   4.894  16.332  0.00  0.00    +0.000 A 
ATOM     13  N   UNL     1       5.079   5.838  15.522  0.00  0.00    +0.000 NA
ATOM     14  N   UNL     1       5.698   7.021  15.857  0.00  0.00    +0.000 NA
ATOM     15  C   UNL     1       6.508   6.782  16.865  0.00  0.00    +0.000 A 
ATOM     16  C   UNL     1       7.392   7.611  17.610  0.00  0.00    +0.000 A 
ATOM     17  C   UNL     1       8.113   7.081  18.617  0.00  0.00    +0.000 A 
ATOM     18  C   UNL     1       8.011   5.670  18.962  0.00  0.00    +0.000 A 
ATOM     19  C   UNL     1       7.180   4.883  18.254  0.00  0.00    +0.000 A 
ATOM     20  N   UNL     1       6.434   5.441  17.214  0.00  0.00    +0.000 N 
ENDBRANCH  11  12
ENDBRANCH   3  11
TORSDOF 3
ENDMDL
MODEL 5
REMARK VINA RESULT:      -6.7      3.715      7.091
REMARK  Name = 
REMARK  4 active torsions:
REMARK  status: ('A' for Active; 'I' for Inactive)
REMARK    1  A    between atoms: C_1  and  C_2
REMARK    2  A    between atoms: C_2  and  C_3
REMARK    3  A    between atoms: N_5  and  C_6
REMARK    4  A    between atoms: C_6  and  C_7
REMARK                            x       y       z     vdW  Elec       q    Type
REMARK                         _______ _______ _______ _____ _____    ______ ____
ROOT
ATOM      1  C   UNL     1       3.560   2.681  18.165  0.00  0.00    +0.000 C 
ATOM      2  O   UNL     1       2.784   1.927  17.594  0.00  0.00    +0.000 OA
ATOM      3  N   UNL     1       4.498   3.429  17.508  0.00  0.00    +0.000 N 
ATOM      4  H   UNL     1       5.071   4.117  17.986  0.00  0.00    +0.000 HD
ENDROOT
BRANCH   1   6
ATOM      5  C   UNL     1       4.522   2.083  20.442  0.00  0.00    +0.000 C 
ATOM      6  C   UNL     1       3.474   2.835  19.652  0.00  0.00    +0.000 C 
ATOM      7  C   UNL     1       3.171   4.258  20.122  0.00  0.00    +0.000 C 
ATOM      8  C   UNL     1       2.143   3.183  20.304  0.00  0.00    +0.000 C 
ATOM      9 CL   UNL     1       0.672   3.301  19.340  0.00  0.00    +0.000 Cl
ATOM     10 CL   UNL     1       1.804   2.697  21.970  0.00  0.00    +0.000 Cl
ENDBRANCH   1   6
BRANCH   3  11
ATOM     11  C   UNL     1       4.620   3.305  16.072  0.00  0.00    +0.000 C 
BRANCH  11  12
ATOM     12  C   UNL     1       5.782   4.074  15.568  0.00  0.00    +0.000 A 
ATOM     13  N   UNL     1       6.550   4.892  16.265  0.00  0.00    +0.000 NA
ATOM     14  N   UNL     1       7.480   5.443  15.412  0.00  0.00    +0.000 NA
ATOM     15  C   UNL     1       7.266   4.953  14.210  0.00  0.00    +0.000 A 
ATOM     16  C   UNL     1       7.902   5.164  12.956  0.00  0.00    +0.000 A 
ATOM     17  C   UNL     1       7.461   4.507  11.865  0.00  0.00    +0.000 A 
ATOM     18  C   UNL     1       6.338   3.583  11.941  0.00  0.00    +0.000 A 
ATOM     19  C   UNL     1       5.731   3.387  13.126  0.00  0.00    +0.000 A 
ATOM     20  N   UNL     1       6.197   4.070  14.251  0.00  0.00    +0.000 N 
ENDBRANCH  11  12
ENDBRANCH   3  11
TORSDOF 3
ENDMDL
MODEL 6
REMARK VINA RESULT:      -6.7      2.896      6.017
REMARK  Name = 
REMARK  4 active torsions:
REMARK  status: ('A' for Active; 'I' for Inactive)
REMARK    1  A    between atoms: C_1  and  C_2
REMARK    2  A    between atoms: C_2  and  C_3
REMARK    3  A    between atoms: N_5  and  C_6
REMARK    4  A    between atoms: C_6  and  C_7
REMARK                            x       y       z     vdW  Elec       q    Type
REMARK                         _______ _______ _______ _____ _____    ______ ____
ROOT
ATOM      1  C   UNL     1       2.634   4.331  18.439  0.00  0.00    +0.000 C 
ATOM      2  O   UNL     1       2.067   4.984  17.573  0.00  0.00    +0.000 OA
ATOM      3  N   UNL     1       3.844   3.723  18.245  0.00  0.00    +0.000 N 
ATOM      4  H   UNL     1       4.343   3.263  19.000  0.00  0.00    +0.000 HD
ENDROOT
BRANCH   1   6
ATOM      5  C   UNL     1       2.304   5.342  20.749  0.00  0.00    +0.000 C 
ATOM      6  C   UNL     1       2.009   4.207  19.794  0.00  0.00    +0.000 C 
ATOM      7  C   UNL     1       0.567   3.699  19.778  0.00  0.00    +0.000 C 
ATOM      8  C   UNL     1       1.651   2.833  20.342  0.00  0.00    +0.000 C 
ATOM      9 CL   UNL     1       2.064   1.371  19.447  0.00  0.00    +0.000 Cl
ATOM     10 CL   UNL     1       1.598   2.546  22.086  0.00  0.00    +0.000 Cl
ENDBRANCH   1   6
BRANCH   3  11
ATOM     11  C   UNL     1       4.479   3.812  16.948  0.00  0.00    +0.000 C 
BRANCH  11  12
ATOM     12  C   UNL     1       5.135   5.128  16.766  0.00  0.00    +0.000 A 
ATOM     13  N   UNL     1       4.877   6.015  15.822  0.00  0.00    +0.000 NA
ATOM     14  N   UNL     1       5.741   7.076  15.979  0.00  0.00    +0.000 NA
ATOM     15  C   UNL     1       6.510   6.821  17.014  0.00  0.00    +0.000 A 
ATOM     16  C   UNL     1       7.571   7.542  17.629  0.00  0.00    +0.000 A 
ATOM     17  C   UNL     1       8.193   7.025  18.707  0.00  0.00    +0.000 A 
ATOM     18  C   UNL     1       7.804   5.735  19.258  0.00  0.00    +0.000 A 
ATOM     19  C   UNL     1       6.806   5.048  18.674  0.00  0.00    +0.000 A 
ATOM     20  N   UNL     1       6.165   5.592  17.560  0.00  0.00    +0.000 N 
ENDBRANCH  11  12
ENDBRANCH   3  11
TORSDOF 3
ENDMDL
MODEL 7
REMARK VINA RESULT:      -6.7      2.271      2.595
REMARK  Name = 
REMARK  4 active torsions:
REMARK  status: ('A' for Active; 'I' for Inactive)
REMARK    1  A    between atoms: C_1  and  C_2
REMARK    2  A    between atoms: C_2  and  C_3
REMARK    3  A    between atoms: N_5  and  C_6
REMARK    4  A    between atoms: C_6  and  C_7
REMARK                            x       y       z     vdW  Elec       q    Type
REMARK                         _______ _______ _______ _____ _____    ______ ____
ROOT
ATOM      1  C   UNL     1       5.364   4.329  16.427  0.00  0.00    +0.000 C 
ATOM      2  O   UNL     1       4.741   4.261  15.376  0.00  0.00    +0.000 OA
ATOM      3  N   UNL     1       5.218   3.426  17.443  0.00  0.00    +0.000 N 
ATOM      4  H   UNL     1       5.807   3.443  18.269  0.00  0.00    +0.000 HD
ENDROOT
BRANCH   1   6
ATOM      5  C   UNL     1       7.545   5.397  15.670  0.00  0.00    +0.000 C 
ATOM      6  C   UNL     1       6.367   5.425  16.617  0.00  0.00    +0.000 C 
ATOM      7  C   UNL     1       5.753   6.799  16.886  0.00  0.00    +0.000 C 
ATOM      8  C   UNL     1       6.507   6.098  17.975  0.00  0.00    +0.000 C 
ATOM      9 CL   UNL     1       5.578   5.530  19.362  0.00  0.00    +0.000 Cl
ATOM     10 CL   UNL     1       8.041   6.829  18.463  0.00  0.00    +0.000 Cl
ENDBRANCH   1   6
BRANCH   3  11
ATOM     11  C   UNL     1       4.254   2.356  17.303  0.00  0.00    +0.000 C 
BRANCH  11  12
ATOM     12  C   UNL     1       2.927   2.763  17.822  0.00  0.00    +0.000 A 
ATOM     13  N   UNL     1       1.897   3.186  17.112  0.00  0.00    +0.000 NA
ATOM     14  N   UNL     1       0.879   3.511  17.980  0.00  0.00    +0.000 NA
ATOM     15  C   UNL     1       1.302   3.281  19.204  0.00  0.00    +0.000 A 
ATOM     16  C   UNL     1       0.694   3.436  20.480  0.00  0.00    +0.000 A 
ATOM     17  C   UNL     1       1.382   3.109  21.591  0.00  0.00    +0.000 A 
ATOM     18  C   UNL     1       2.744   2.601  21.516  0.00  0.00    +0.000 A 
ATOM     19  C   UNL     1       3.324   2.459  20.310  0.00  0.00    +0.000 A 
ATOM     20  N   UNL     1       2.602   2.798  19.164  0.00  0.00    +0.000 N 
ENDBRANCH  11  12
ENDBRANCH   3  11
TORSDOF 3
ENDMDL
MODEL 8
REMARK VINA RESULT:      -6.7      3.336      6.798
REMARK  Name = 
REMARK  4 active torsions:
REMARK  status: ('A' for Active; 'I' for Inactive)
REMARK    1  A    between atoms: C_1  and  C_2
REMARK    2  A    between atoms: C_2  and  C_3
REMARK    3  A    between atoms: N_5  and  C_6
REMARK    4  A    between atoms: C_6  and  C_7
REMARK                            x       y       z     vdW  Elec       q    Type
REMARK                         _______ _______ _______ _____ _____    ______ ____
ROOT
ATOM      1  C   UNL     1       2.677   4.186  17.914  0.00  0.00    +0.000 C 
ATOM      2  O   UNL     1       1.808   3.669  17.226  0.00  0.00    +0.000 OA
ATOM      3  N   UNL     1       3.990   4.251  17.537  0.00  0.00    +0.000 N 
ATOM      4  H   UNL     1       4.682   4.763  18.076  0.00  0.00    +0.000 HD
ENDROOT
BRANCH   1   6
ATOM      5  C   UNL     1       1.262   4.069  20.024  0.00  0.00    +0.000 C 
ATOM      6  C   UNL     1       2.303   4.816  19.220  0.00  0.00    +0.000 C 
ATOM      7  C   UNL     1       3.484   5.380  20.009  0.00  0.00    +0.000 C 
ATOM      8  C   UNL     1       2.474   6.315  19.417  0.00  0.00    +0.000 C 
ATOM      9 CL   UNL     1       3.008   7.343  18.088  0.00  0.00    +0.000 Cl
ATOM     10 CL   UNL     1       1.454   7.194  20.562  0.00  0.00    +0.000 Cl
ENDBRANCH   1   6
BRANCH   3  11
ATOM     11  C   UNL     1       4.396   3.648  16.286  0.00  0.00    +0.000 C 
BRANCH  11  12
ATOM     12  C   UNL     1       5.595   4.321  15.736  0.00  0.00    +0.000 A 
ATOM     13  N   UNL     1       6.387   5.168  16.369  0.00  0.00    +0.000 NA
ATOM     14  N   UNL     1       7.350   5.601  15.486  0.00  0.00    +0.000 NA
ATOM     15  C   UNL     1       7.133   5.013  14.330  0.00  0.00    +0.000 A 
ATOM     16  C   UNL     1       7.794   5.083  13.073  0.00  0.00    +0.000 A 
ATOM     17  C   UNL     1       7.341   4.348  12.038  0.00  0.00    +0.000 A 
ATOM     18  C   UNL     1       6.181   3.480  12.178  0.00  0.00    +0.000 A 
ATOM     19  C   UNL     1       5.549   3.417  13.365  0.00  0.00    +0.000 A 
ATOM     20  N   UNL     1       6.028   4.180  14.432  0.00  0.00    +0.000 N 
ENDBRANCH  11  12
ENDBRANCH   3  11
TORSDOF 3
ENDMDL
MODEL 9
REMARK VINA RESULT:      -6.7      2.809      6.052
REMARK  Name = 
REMARK  4 active torsions:
REMARK  status: ('A' for Active; 'I' for Inactive)
REMARK    1  A    between atoms: C_1  and  C_2
REMARK    2  A    between atoms: C_2  and  C_3
REMARK    3  A    between atoms: N_5  and  C_6
REMARK    4  A    between atoms: C_6  and  C_7
REMARK                            x       y       z     vdW  Elec       q    Type
REMARK                         _______ _______ _______ _____ _____    ______ ____
ROOT
ATOM      1  C   UNL     1       3.952   2.912  18.801  0.00  0.00    +0.000 C 
ATOM      2  O   UNL     1       4.978   2.554  19.364  0.00  0.00    +0.000 OA
ATOM      3  N   UNL     1       3.922   3.337  17.501  0.00  0.00    +0.000 N 
ATOM      4  H   UNL     1       3.052   3.543  17.021  0.00  0.00    +0.000 HD
ENDROOT
BRANCH   1   6
ATOM      5  C   UNL     1       1.667   1.823  19.039  0.00  0.00    +0.000 C 
ATOM      6  C   UNL     1       2.651   2.857  19.539  0.00  0.00    +0.000 C 
ATOM      7  C   UNL     1       2.782   2.981  21.057  0.00  0.00    +0.000 C 
ATOM      8  C   UNL     1       2.142   4.088  20.276  0.00  0.00    +0.000 C 
ATOM      9 CL   UNL     1       3.014   5.617  20.181  0.00  0.00    +0.000 Cl
ATOM     10 CL   UNL     1       0.410   4.330  20.533  0.00  0.00    +0.000 Cl
ENDBRANCH   1   6
BRANCH   3  11
ATOM     11  C   UNL     1       5.158   3.414  16.754  0.00  0.00    +0.000 C 
BRANCH  11  12
ATOM     12  C   UNL     1       5.580   4.822  16.567  0.00  0.00    +0.000 A 
ATOM     13  N   UNL     1       5.209   5.636  15.595  0.00  0.00    +0.000 NA
ATOM     14  N   UNL     1       5.868   6.833  15.760  0.00  0.00    +0.000 NA
ATOM     15  C   UNL     1       6.629   6.733  16.828  0.00  0.00    +0.000 A 
ATOM     16  C   UNL     1       7.521   7.638  17.465  0.00  0.00    +0.000 A 
ATOM     17  C   UNL     1       8.181   7.255  18.576  0.00  0.00    +0.000 A 
ATOM     18  C   UNL     1       8.003   5.925  19.141  0.00  0.00    +0.000 A 
ATOM     19  C   UNL     1       7.163   5.064  18.536  0.00  0.00    +0.000 A 
ATOM     20  N   UNL     1       6.482   5.471  17.387  0.00  0.00    +0.000 N 
ENDBRANCH  11  12
ENDBRANCH   3  11
TORSDOF 3
ENDMDL
