MODEL 1
REMARK VINA RESULT:      -8.1      0.000      0.000
REMARK  Name = 
REMARK  15 active torsions:
REMARK  status: ('A' for Active; 'I' for Inactive)
REMARK    1  A    between atoms: C_1  and  O_2
REMARK    2  A    between atoms: O_2  and  C_3
REMARK    3  A    between atoms: C_3  and  C_5
REMARK    4  A    between atoms: C_6  and  C_7
REMARK    5  A    between atoms: C_7  and  C_8
REMARK    6  A    between atoms: C_9  and  C_10
REMARK    7  A    between atoms: C_10  and  C_11
REMARK    8  A    between atoms: C_12  and  O_13
REMARK    9  A    between atoms: C_15  and  O_16
REMARK   10  A    between atoms: C_17  and  C_18
REMARK   11  A    between atoms: C_19  and  C_20
REMARK   12  A    between atoms: C_20  and  O_21
REMARK   13  A    between atoms: C_20  and  O_22
REMARK   14  A    between atoms: O_22  and  C_23
REMARK   15  A    between atoms: C_27  and  C_28
REMARK                            x       y       z     vdW  Elec       q    Type
REMARK                         _______ _______ _______ _____ _____    ______ ____
ROOT
ATOM      1  C   UNL     1       2.592   4.921  18.777  0.00  0.00    +0.000 C 
ATOM      2  C   UNL     1       2.092   3.732  17.930  0.00  0.00    +0.000 C 
ATOM      3  C   UNL     1       1.269   2.831  18.844  0.00  0.00    +0.000 C 
ATOM      4  C   UNL     1       0.903   3.690  20.039  0.00  0.00    +0.000 C 
ATOM      5  C   UNL     1       2.071   4.683  20.210  0.00  0.00    +0.000 C 
ENDROOT
BRANCH   2   6
ATOM      6  O   UNL     1       3.110   3.001  17.273  0.00  0.00    +0.000 OA
ATOM      7  H   UNL     1       3.011   2.058  17.481  0.00  0.00    +0.000 HD
ENDBRANCH   2   6
BRANCH   4   8
ATOM      8  O   UNL     1       0.719   2.883  21.194  0.00  0.00    +0.000 OA
ATOM      9  H   UNL     1      -0.235   2.779  21.350  0.00  0.00    +0.000 HD
ENDBRANCH   4   8
BRANCH   5  10
ATOM     10  C   UNL     1       1.559   5.963  20.825  0.00  0.00    +0.000 C 
ATOM     11  C   UNL     1       1.666   7.204  20.326  0.00  0.00    +0.000 C 
BRANCH  11  12
ATOM     12  C   UNL     1       1.149   8.454  20.998  0.00  0.00    +0.000 C 
BRANCH  12  13
ATOM     13  O   UNL     1       1.813   8.643  22.239  0.00  0.00    +0.000 OA
ATOM     14  H   UNL     1       1.112   8.596  22.908  0.00  0.00    +0.000 HD
ENDBRANCH  12  13
BRANCH  12  15
ATOM     15  O   UNL     1       1.358   9.530  20.081  0.00  0.00    +0.000 OA
BRANCH  15  16
ATOM     16  C   UNL     1       0.289  10.277  19.669  0.00  0.00    +0.000 A 
ATOM     17  C   UNL     1       0.099  11.472  20.363  0.00  0.00    +0.000 A 
ATOM     18  C   UNL     1      -0.990  12.302  20.069  0.00  0.00    +0.000 A 
ATOM     19  C   UNL     1      -1.898  11.929  19.082  0.00  0.00    +0.000 A 
ATOM     20  C   UNL     1      -1.723  10.735  18.368  0.00  0.00    +0.000 A 
ATOM     21  C   UNL     1      -0.610   9.927  18.663  0.00  0.00    +0.000 A 
BRANCH  20  22
ATOM     22  C   UNL     1      -2.707  10.278  17.329  0.00  0.00    +0.000 C 
ATOM     23  F   UNL     1      -3.670   9.443  17.813  0.00  0.00    +0.000 F 
ATOM     24  F   UNL     1      -3.373  11.318  16.754  0.00  0.00    +0.000 F 
ATOM     25  F   UNL     1      -2.113   9.603  16.305  0.00  0.00    +0.000 F 
ENDBRANCH  20  22
ENDBRANCH  15  16
ENDBRANCH  12  15
ENDBRANCH  11  12
ENDBRANCH   5  10
BRANCH   1  26
ATOM     26  C   UNL     1       4.091   5.281  18.710  0.00  0.00    +0.000 C 
BRANCH  26  28
ATOM     27  C   UNL     1       5.393   5.828  16.595  0.00  0.00    +0.000 C 
ATOM     28  C   UNL     1       4.544   6.167  17.578  0.00  0.00    +0.000 C 
BRANCH  27  29
ATOM     29  C   UNL     1       6.100   4.516  16.425  0.00  0.00    +0.000 C 
BRANCH  29  31
ATOM     30  C   UNL     1       6.659   4.408  13.984  0.00  0.00    +0.000 C 
ATOM     31  C   UNL     1       5.930   3.994  15.026  0.00  0.00    +0.000 C 
BRANCH  30  32
ATOM     32  C   UNL     1       6.404   3.860  12.641  0.00  0.00    +0.000 C 
ATOM     33  O   UNL     1       7.136   3.986  11.683  0.00  0.00    +0.000 OA
BRANCH  32  35
ATOM     34  C   UNL     1       4.490   3.267  11.449  0.00  0.00    +0.000 C 
ATOM     35  O   UNL     1       5.230   3.180  12.672  0.00  0.00    +0.000 OA
ENDBRANCH  32  35
ENDBRANCH  30  32
ENDBRANCH  29  31
ENDBRANCH  27  29
ENDBRANCH  26  28
ENDBRANCH   1  26
TORSDOF 14
ENDMDL
MODEL 2
REMARK VINA RESULT:      -8.1      0.732      1.132
REMARK  Name = 
REMARK  15 active torsions:
REMARK  status: ('A' for Active; 'I' for Inactive)
REMARK    1  A    between atoms: C_1  and  O_2
REMARK    2  A    between atoms: O_2  and  C_3
REMARK    3  A    between atoms: C_3  and  C_5
REMARK    4  A    between atoms: C_6  and  C_7
REMARK    5  A    between atoms: C_7  and  C_8
REMARK    6  A    between atoms: C_9  and  C_10
REMARK    7  A    between atoms: C_10  and  C_11
REMARK    8  A    between atoms: C_12  and  O_13
REMARK    9  A    between atoms: C_15  and  O_16
REMARK   10  A    between atoms: C_17  and  C_18
REMARK   11  A    between atoms: C_19  and  C_20
REMARK   12  A    between atoms: C_20  and  O_21
REMARK   13  A    between atoms: C_20  and  O_22
REMARK   14  A    between atoms: O_22  and  C_23
REMARK   15  A    between atoms: C_27  and  C_28
REMARK                            x       y       z     vdW  Elec       q    Type
REMARK                         _______ _______ _______ _____ _____    ______ ____
ROOT
ATOM      1  C   UNL     1       2.434   5.154  18.727  0.00  0.00    +0.000 C 
ATOM      2  C   UNL     1       1.975   3.935  17.899  0.00  0.00    +0.000 C 
ATOM      3  C   UNL     1       1.242   2.988  18.842  0.00  0.00    +0.000 C 
ATOM      4  C   UNL     1       0.870   3.826  20.050  0.00  0.00    +0.000 C 
ATOM      5  C   UNL     1       1.981   4.888  20.177  0.00  0.00    +0.000 C 
ENDROOT
BRANCH   2   6
ATOM      6  O   UNL     1       3.011   3.266  17.204  0.00  0.00    +0.000 OA
ATOM      7  H   UNL     1       3.835   3.337  17.714  0.00  0.00    +0.000 HD
ENDBRANCH   2   6
BRANCH   4   8
ATOM      8  O   UNL     1       0.778   3.012  21.211  0.00  0.00    +0.000 OA
ATOM      9  H   UNL     1      -0.023   3.263  21.702  0.00  0.00    +0.000 HD
ENDBRANCH   4   8
BRANCH   5  10
ATOM     10  C   UNL     1       1.415   6.137  20.811  0.00  0.00    +0.000 C 
ATOM     11  C   UNL     1       1.654   7.408  20.455  0.00  0.00    +0.000 C 
BRANCH  11  12
ATOM     12  C   UNL     1       1.073   8.622  21.140  0.00  0.00    +0.000 C 
BRANCH  12  13
ATOM     13  O   UNL     1       1.737   8.841  22.376  0.00  0.00    +0.000 OA
ATOM     14  H   UNL     1       1.128   8.504  23.051  0.00  0.00    +0.000 HD
ENDBRANCH  12  13
BRANCH  12  15
ATOM     15  O   UNL     1       1.209   9.714  20.229  0.00  0.00    +0.000 OA
BRANCH  15  16
ATOM     16  C   UNL     1       0.089  10.347  19.768  0.00  0.00    +0.000 A 
ATOM     17  C   UNL     1      -0.448  11.303  20.631  0.00  0.00    +0.000 A 
ATOM     18  C   UNL     1      -1.624  11.986  20.295  0.00  0.00    +0.000 A 
ATOM     19  C   UNL     1      -2.271  11.703  19.094  0.00  0.00    +0.000 A 
ATOM     20  C   UNL     1      -1.745  10.750  18.211  0.00  0.00    +0.000 A 
ATOM     21  C   UNL     1      -0.551  10.092  18.556  0.00  0.00    +0.000 A 
BRANCH  20  22
ATOM     22  C   UNL     1      -2.440  10.387  16.929  0.00  0.00    +0.000 C 
ATOM     23  F   UNL     1      -2.463  11.396  16.012  0.00  0.00    +0.000 F 
ATOM     24  F   UNL     1      -1.851   9.331  16.302  0.00  0.00    +0.000 F 
ATOM     25  F   UNL     1      -3.741  10.030  17.119  0.00  0.00    +0.000 F 
ENDBRANCH  20  22
ENDBRANCH  15  16
ENDBRANCH  12  15
ENDBRANCH  11  12
ENDBRANCH   5  10
BRANCH   1  26
ATOM     26  C   UNL     1       3.905   5.604  18.604  0.00  0.00    +0.000 C 
BRANCH  26  28
ATOM     27  C   UNL     1       5.142   6.264  16.482  0.00  0.00    +0.000 C 
ATOM     28  C   UNL     1       4.260   6.520  17.461  0.00  0.00    +0.000 C 
BRANCH  27  29
ATOM     29  C   UNL     1       5.989   5.035  16.329  0.00  0.00    +0.000 C 
BRANCH  29  31
ATOM     30  C   UNL     1       6.567   4.813  13.900  0.00  0.00    +0.000 C 
ATOM     31  C   UNL     1       6.907   5.161  15.147  0.00  0.00    +0.000 C 
BRANCH  30  32
ATOM     32  C   UNL     1       7.543   4.945  12.805  0.00  0.00    +0.000 C 
ATOM     33  O   UNL     1       8.457   5.741  12.776  0.00  0.00    +0.000 OA
BRANCH  32  35
ATOM     34  C   UNL     1       6.071   3.262  12.145  0.00  0.00    +0.000 C 
ATOM     35  O   UNL     1       7.254   4.017  11.860  0.00  0.00    +0.000 OA
ENDBRANCH  32  35
ENDBRANCH  30  32
ENDBRANCH  29  31
ENDBRANCH  27  29
ENDBRANCH  26  28
ENDBRANCH   1  26
TORSDOF 14
ENDMDL
MODEL 3
REMARK VINA RESULT:      -8.1      1.022      1.256
REMARK  Name = 
REMARK  15 active torsions:
REMARK  status: ('A' for Active; 'I' for Inactive)
REMARK    1  A    between atoms: C_1  and  O_2
REMARK    2  A    between atoms: O_2  and  C_3
REMARK    3  A    between atoms: C_3  and  C_5
REMARK    4  A    between atoms: C_6  and  C_7
REMARK    5  A    between atoms: C_7  and  C_8
REMARK    6  A    between atoms: C_9  and  C_10
REMARK    7  A    between atoms: C_10  and  C_11
REMARK    8  A    between atoms: C_12  and  O_13
REMARK    9  A    between atoms: C_15  and  O_16
REMARK   10  A    between atoms: C_17  and  C_18
REMARK   11  A    between atoms: C_19  and  C_20
REMARK   12  A    between atoms: C_20  and  O_21
REMARK   13  A    between atoms: C_20  and  O_22
REMARK   14  A    between atoms: O_22  and  C_23
REMARK   15  A    between atoms: C_27  and  C_28
REMARK                            x       y       z     vdW  Elec       q    Type
REMARK                         _______ _______ _______ _____ _____    ______ ____
ROOT
ATOM      1  C   UNL     1       1.786   4.240  18.679  0.00  0.00    +0.000 C 
ATOM      2  C   UNL     1       1.541   2.716  18.677  0.00  0.00    +0.000 C 
ATOM      3  C   UNL     1       1.679   2.226  20.114  0.00  0.00    +0.000 C 
ATOM      4  C   UNL     1       1.535   3.463  20.980  0.00  0.00    +0.000 C 
ATOM      5  C   UNL     1       2.099   4.626  20.139  0.00  0.00    +0.000 C 
ENDROOT
BRANCH   2   6
ATOM      6  O   UNL     1       2.378   1.981  17.803  0.00  0.00    +0.000 OA
ATOM      7  H   UNL     1       3.275   2.352  17.833  0.00  0.00    +0.000 HD
ENDBRANCH   2   6
BRANCH   4   8
ATOM      8  O   UNL     1       2.241   3.300  22.202  0.00  0.00    +0.000 OA
ATOM      9  H   UNL     1       1.599   3.294  22.932  0.00  0.00    +0.000 HD
ENDBRANCH   4   8
BRANCH   5  10
ATOM     10  C   UNL     1       1.405   5.911  20.525  0.00  0.00    +0.000 C 
ATOM     11  C   UNL     1       1.890   7.158  20.426  0.00  0.00    +0.000 C 
BRANCH  11  12
ATOM     12  C   UNL     1       1.155   8.408  20.847  0.00  0.00    +0.000 C 
BRANCH  12  13
ATOM     13  O   UNL     1       1.561   8.788  22.153  0.00  0.00    +0.000 OA
ATOM     14  H   UNL     1       0.742   9.041  22.607  0.00  0.00    +0.000 HD
ENDBRANCH  12  13
BRANCH  12  15
ATOM     15  O   UNL     1       1.436   9.403  19.860  0.00  0.00    +0.000 OA
BRANCH  15  16
ATOM     16  C   UNL     1       0.454  10.281  19.494  0.00  0.00    +0.000 A 
ATOM     17  C   UNL     1       0.641  11.593  19.930  0.00  0.00    +0.000 A 
ATOM     18  C   UNL     1      -0.319  12.577  19.662  0.00  0.00    +0.000 A 
ATOM     19  C   UNL     1      -1.477  12.244  18.964  0.00  0.00    +0.000 A 
ATOM     20  C   UNL     1      -1.682  10.932  18.512  0.00  0.00    +0.000 A 
ATOM     21  C   UNL     1      -0.695   9.964  18.771  0.00  0.00    +0.000 A 
BRANCH  20  22
ATOM     22  C   UNL     1      -2.939  10.526  17.796  0.00  0.00    +0.000 C 
ATOM     23  F   UNL     1      -3.158   9.180  17.792  0.00  0.00    +0.000 F 
ATOM     24  F   UNL     1      -4.053  11.080  18.349  0.00  0.00    +0.000 F 
ATOM     25  F   UNL     1      -2.943  10.905  16.488  0.00  0.00    +0.000 F 
ENDBRANCH  20  22
ENDBRANCH  15  16
ENDBRANCH  12  15
ENDBRANCH  11  12
ENDBRANCH   5  10
BRANCH   1  26
ATOM     26  C   UNL     1       2.784   4.816  17.652  0.00  0.00    +0.000 C 
BRANCH  26  28
ATOM     27  C   UNL     1       5.166   5.523  18.193  0.00  0.00    +0.000 C 
ATOM     28  C   UNL     1       3.844   5.757  18.164  0.00  0.00    +0.000 C 
BRANCH  27  29
ATOM     29  C   UNL     1       5.872   4.273  17.759  0.00  0.00    +0.000 C 
BRANCH  29  31
ATOM     30  C   UNL     1       6.975   4.965  15.617  0.00  0.00    +0.000 C 
ATOM     31  C   UNL     1       6.051   4.249  16.268  0.00  0.00    +0.000 C 
BRANCH  30  32
ATOM     32  C   UNL     1       7.059   4.900  14.148  0.00  0.00    +0.000 C 
ATOM     33  O   UNL     1       7.846   5.520  13.465  0.00  0.00    +0.000 OA
BRANCH  32  35
ATOM     34  C   UNL     1       6.429   3.475  12.414  0.00  0.00    +0.000 C 
ATOM     35  O   UNL     1       6.128   4.020  13.704  0.00  0.00    +0.000 OA
ENDBRANCH  32  35
ENDBRANCH  30  32
ENDBRANCH  29  31
ENDBRANCH  27  29
ENDBRANCH  26  28
ENDBRANCH   1  26
TORSDOF 14
ENDMDL
MODEL 4
REMARK VINA RESULT:      -8.1      2.478      3.305
REMARK  Name = 
REMARK  15 active torsions:
REMARK  status: ('A' for Active; 'I' for Inactive)
REMARK    1  A    between atoms: C_1  and  O_2
REMARK    2  A    between atoms: O_2  and  C_3
REMARK    3  A    between atoms: C_3  and  C_5
REMARK    4  A    between atoms: C_6  and  C_7
REMARK    5  A    between atoms: C_7  and  C_8
REMARK    6  A    between atoms: C_9  and  C_10
REMARK    7  A    between atoms: C_10  and  C_11
REMARK    8  A    between atoms: C_12  and  O_13
REMARK    9  A    between atoms: C_15  and  O_16
REMARK   10  A    between atoms: C_17  and  C_18
REMARK   11  A    between atoms: C_19  and  C_20
REMARK   12  A    between atoms: C_20  and  O_21
REMARK   13  A    between atoms: C_20  and  O_22
REMARK   14  A    between atoms: O_22  and  C_23
REMARK   15  A    between atoms: C_27  and  C_28
REMARK                            x       y       z     vdW  Elec       q    Type
REMARK                         _______ _______ _______ _____ _____    ______ ____
ROOT
ATOM      1  C   UNL     1       1.812   4.324  18.150  0.00  0.00    +0.000 C 
ATOM      2  C   UNL     1       0.833   3.325  18.803  0.00  0.00    +0.000 C 
ATOM      3  C   UNL     1       1.062   3.375  20.309  0.00  0.00    +0.000 C 
ATOM      4  C   UNL     1       1.795   4.678  20.565  0.00  0.00    +0.000 C 
ATOM      5  C   UNL     1       2.637   4.936  19.300  0.00  0.00    +0.000 C 
ENDROOT
BRANCH   2   6
ATOM      6  O   UNL     1       0.924   2.000  18.314  0.00  0.00    +0.000 OA
ATOM      7  H   UNL     1       1.858   1.773  18.179  0.00  0.00    +0.000 HD
ENDBRANCH   2   6
BRANCH   4   8
ATOM      8  O   UNL     1       2.602   4.574  21.730  0.00  0.00    +0.000 OA
ATOM      9  H   UNL     1       2.807   5.470  22.046  0.00  0.00    +0.000 HD
ENDBRANCH   4   8
BRANCH   5  10
ATOM     10  C   UNL     1       2.820   6.423  19.110  0.00  0.00    +0.000 C 
ATOM     11  C   UNL     1       1.924   7.297  18.626  0.00  0.00    +0.000 C 
BRANCH  11  12
ATOM     12  C   UNL     1       2.170   8.775  18.441  0.00  0.00    +0.000 C 
BRANCH  12  13
ATOM     13  O   UNL     1       1.913   9.140  17.093  0.00  0.00    +0.000 OA
ATOM     14  H   UNL     1       1.162   9.753  17.138  0.00  0.00    +0.000 HD
ENDBRANCH  12  13
BRANCH  12  15
ATOM     15  O   UNL     1       1.328   9.453  19.376  0.00  0.00    +0.000 OA
BRANCH  15  16
ATOM     16  C   UNL     1       0.486  10.434  18.933  0.00  0.00    +0.000 A 
ATOM     17  C   UNL     1       0.990  11.732  19.021  0.00  0.00    +0.000 A 
ATOM     18  C   UNL     1       0.206  12.829  18.646  0.00  0.00    +0.000 A 
ATOM     19  C   UNL     1      -1.094  12.627  18.187  0.00  0.00    +0.000 A 
ATOM     20  C   UNL     1      -1.619  11.331  18.085  0.00  0.00    +0.000 A 
ATOM     21  C   UNL     1      -0.806  10.241  18.446  0.00  0.00    +0.000 A 
BRANCH  20  22
ATOM     22  C   UNL     1      -3.031  11.078  17.639  0.00  0.00    +0.000 C 
ATOM     23  F   UNL     1      -3.395   9.764  17.686  0.00  0.00    +0.000 F 
ATOM     24  F   UNL     1      -3.942  11.742  18.403  0.00  0.00    +0.000 F 
ATOM     25  F   UNL     1      -3.255  11.477  16.356  0.00  0.00    +0.000 F 
ENDBRANCH  20  22
ENDBRANCH  15  16
ENDBRANCH  12  15
ENDBRANCH  11  12
ENDBRANCH   5  10
BRANCH   1  26
ATOM     26  C   UNL     1       2.664   3.834  16.961  0.00  0.00    +0.000 C 
BRANCH  26  28
ATOM     27  C   UNL     1       5.190   3.670  16.717  0.00  0.00    +0.000 C 
ATOM     28  C   UNL     1       4.031   3.276  17.266  0.00  0.00    +0.000 C 
BRANCH  27  29
ATOM     29  C   UNL     1       5.379   4.720  15.661  0.00  0.00    +0.000 C 
BRANCH  29  31
ATOM     30  C   UNL     1       6.493   6.196  17.353  0.00  0.00    +0.000 C 
ATOM     31  C   UNL     1       6.386   5.744  16.098  0.00  0.00    +0.000 C 
BRANCH  30  32
ATOM     32  C   UNL     1       7.493   7.224  17.685  0.00  0.00    +0.000 C 
ATOM     33  O   UNL     1       7.630   8.279  17.104  0.00  0.00    +0.000 OA
BRANCH  32  35
ATOM     34  C   UNL     1       7.611   5.686  19.433  0.00  0.00    +0.000 C 
ATOM     35  O   UNL     1       8.210   6.795  18.753  0.00  0.00    +0.000 OA
ENDBRANCH  32  35
ENDBRANCH  30  32
ENDBRANCH  29  31
ENDBRANCH  27  29
ENDBRANCH  26  28
ENDBRANCH   1  26
TORSDOF 14
ENDMDL
MODEL 5
REMARK VINA RESULT:      -8.0      1.640      2.199
REMARK  Name = 
REMARK  15 active torsions:
REMARK  status: ('A' for Active; 'I' for Inactive)
REMARK    1  A    between atoms: C_1  and  O_2
REMARK    2  A    between atoms: O_2  and  C_3
REMARK    3  A    between atoms: C_3  and  C_5
REMARK    4  A    between atoms: C_6  and  C_7
REMARK    5  A    between atoms: C_7  and  C_8
REMARK    6  A    between atoms: C_9  and  C_10
REMARK    7  A    between atoms: C_10  and  C_11
REMARK    8  A    between atoms: C_12  and  O_13
REMARK    9  A    between atoms: C_15  and  O_16
REMARK   10  A    between atoms: C_17  and  C_18
REMARK   11  A    between atoms: C_19  and  C_20
REMARK   12  A    between atoms: C_20  and  O_21
REMARK   13  A    between atoms: C_20  and  O_22
REMARK   14  A    between atoms: O_22  and  C_23
REMARK   15  A    between atoms: C_27  and  C_28
REMARK                            x       y       z     vdW  Elec       q    Type
REMARK                         _______ _______ _______ _____ _____    ______ ____
ROOT
ATOM      1  C   UNL     1       1.722   3.887  18.343  0.00  0.00    +0.000 C 
ATOM      2  C   UNL     1       0.705   2.914  18.976  0.00  0.00    +0.000 C 
ATOM      3  C   UNL     1       0.886   2.980  20.488  0.00  0.00    +0.000 C 
ATOM      4  C   UNL     1       1.632   4.274  20.751  0.00  0.00    +0.000 C 
ATOM      5  C   UNL     1       2.520   4.501  19.511  0.00  0.00    +0.000 C 
ENDROOT
BRANCH   2   6
ATOM      6  O   UNL     1       0.789   1.581  18.509  0.00  0.00    +0.000 OA
ATOM      7  H   UNL     1       0.165   1.028  19.008  0.00  0.00    +0.000 HD
ENDBRANCH   2   6
BRANCH   4   8
ATOM      8  O   UNL     1       2.400   4.172  21.943  0.00  0.00    +0.000 OA
ATOM      9  H   UNL     1       2.478   3.232  22.182  0.00  0.00    +0.000 HD
ENDBRANCH   4   8
BRANCH   5  10
ATOM     10  C   UNL     1       2.735   5.982  19.308  0.00  0.00    +0.000 C 
ATOM     11  C   UNL     1       2.149   6.770  18.395  0.00  0.00    +0.000 C 
BRANCH  11  12
ATOM     12  C   UNL     1       2.417   8.246  18.225  0.00  0.00    +0.000 C 
BRANCH  12  13
ATOM     13  O   UNL     1       3.654   8.436  17.555  0.00  0.00    +0.000 OA
ATOM     14  H   UNL     1       3.566   9.289  17.102  0.00  0.00    +0.000 HD
ENDBRANCH  12  13
BRANCH  12  15
ATOM     15  O   UNL     1       1.304   8.788  17.512  0.00  0.00    +0.000 OA
BRANCH  15  16
ATOM     16  C   UNL     1       0.427   9.611  18.163  0.00  0.00    +0.000 A 
ATOM     17  C   UNL     1       0.870  10.094  19.394  0.00  0.00    +0.000 A 
ATOM     18  C   UNL     1       0.043  10.906  20.181  0.00  0.00    +0.000 A 
ATOM     19  C   UNL     1      -1.236  11.229  19.736  0.00  0.00    +0.000 A 
ATOM     20  C   UNL     1      -1.699  10.759  18.499  0.00  0.00    +0.000 A 
ATOM     21  C   UNL     1      -0.845   9.963  17.714  0.00  0.00    +0.000 A 
BRANCH  20  22
ATOM     22  C   UNL     1      -3.090  11.048  18.008  0.00  0.00    +0.000 C 
ATOM     23  F   UNL     1      -3.129  11.583  16.754  0.00  0.00    +0.000 F 
ATOM     24  F   UNL     1      -3.865   9.930  17.959  0.00  0.00    +0.000 F 
ATOM     25  F   UNL     1      -3.755  11.930  18.806  0.00  0.00    +0.000 F 
ENDBRANCH  20  22
ENDBRANCH  15  16
ENDBRANCH  12  15
ENDBRANCH  11  12
ENDBRANCH   5  10
BRANCH   1  26
ATOM     26  C   UNL     1       2.605   3.366  17.189  0.00  0.00    +0.000 C 
BRANCH  26  28
ATOM     27  C   UNL     1       5.082   3.935  17.123  0.00  0.00    +0.000 C 
ATOM     28  C   UNL     1       4.065   3.134  17.479  0.00  0.00    +0.000 C 
BRANCH  27  29
ATOM     29  C   UNL     1       4.995   5.209  16.334  0.00  0.00    +0.000 C 
BRANCH  29  31
ATOM     30  C   UNL     1       6.136   4.817  14.137  0.00  0.00    +0.000 C 
ATOM     31  C   UNL     1       6.145   5.324  15.375  0.00  0.00    +0.000 C 
BRANCH  30  32
ATOM     32  C   UNL     1       7.322   4.954  13.275  0.00  0.00    +0.000 C 
ATOM     33  O   UNL     1       8.309   5.605  13.542  0.00  0.00    +0.000 OA
BRANCH  32  35
ATOM     34  C   UNL     1       6.064   3.262  12.280  0.00  0.00    +0.000 C 
ATOM     35  O   UNL     1       7.125   4.216  12.154  0.00  0.00    +0.000 OA
ENDBRANCH  32  35
ENDBRANCH  30  32
ENDBRANCH  29  31
ENDBRANCH  27  29
ENDBRANCH  26  28
ENDBRANCH   1  26
TORSDOF 14
ENDMDL
MODEL 6
REMARK VINA RESULT:      -8.0      3.648      5.017
REMARK  Name = 
REMARK  15 active torsions:
REMARK  status: ('A' for Active; 'I' for Inactive)
REMARK    1  A    between atoms: C_1  and  O_2
REMARK    2  A    between atoms: O_2  and  C_3
REMARK    3  A    between atoms: C_3  and  C_5
REMARK    4  A    between atoms: C_6  and  C_7
REMARK    5  A    between atoms: C_7  and  C_8
REMARK    6  A    between atoms: C_9  and  C_10
REMARK    7  A    between atoms: C_10  and  C_11
REMARK    8  A    between atoms: C_12  and  O_13
REMARK    9  A    between atoms: C_15  and  O_16
REMARK   10  A    between atoms: C_17  and  C_18
REMARK   11  A    between atoms: C_19  and  C_20
REMARK   12  A    between atoms: C_20  and  O_21
REMARK   13  A    between atoms: C_20  and  O_22
REMARK   14  A    between atoms: O_22  and  C_23
REMARK   15  A    between atoms: C_27  and  C_28
REMARK                            x       y       z     vdW  Elec       q    Type
REMARK                         _______ _______ _______ _____ _____    ______ ____
ROOT
ATOM      1  C   UNL     1       4.174   5.567  17.005  0.00  0.00    +0.000 C 
ATOM      2  C   UNL     1       3.764   4.098  17.238  0.00  0.00    +0.000 C 
ATOM      3  C   UNL     1       3.155   4.006  18.633  0.00  0.00    +0.000 C 
ATOM      4  C   UNL     1       2.787   5.428  19.009  0.00  0.00    +0.000 C 
ATOM      5  C   UNL     1       3.821   6.327  18.300  0.00  0.00    +0.000 C 
ENDROOT
BRANCH   2   6
ATOM      6  O   UNL     1       4.808   3.157  17.072  0.00  0.00    +0.000 OA
ATOM      7  H   UNL     1       4.799   2.535  17.819  0.00  0.00    +0.000 HD
ENDBRANCH   2   6
BRANCH   4   8
ATOM      8  O   UNL     1       2.818   5.594  20.420  0.00  0.00    +0.000 OA
ATOM      9  H   UNL     1       2.403   6.445  20.641  0.00  0.00    +0.000 HD
ENDBRANCH   4   8
BRANCH   5  10
ATOM     10  C   UNL     1       3.199   7.668  17.995  0.00  0.00    +0.000 C 
ATOM     11  C   UNL     1       2.094   8.196  18.545  0.00  0.00    +0.000 C 
BRANCH  11  12
ATOM     12  C   UNL     1       1.506   9.540  18.186  0.00  0.00    +0.000 C 
BRANCH  12  13
ATOM     13  O   UNL     1       2.308  10.167  17.197  0.00  0.00    +0.000 OA
ATOM     14  H   UNL     1       2.712   9.437  16.702  0.00  0.00    +0.000 HD
ENDBRANCH  12  13
BRANCH  12  15
ATOM     15  O   UNL     1       0.166   9.299  17.752  0.00  0.00    +0.000 OA
BRANCH  15  16
ATOM     16  C   UNL     1      -0.821  10.176  18.107  0.00  0.00    +0.000 A 
ATOM     17  C   UNL     1      -0.506  11.026  19.167  0.00  0.00    +0.000 A 
ATOM     18  C   UNL     1      -1.451  11.935  19.658  0.00  0.00    +0.000 A 
ATOM     19  C   UNL     1      -2.722  11.987  19.091  0.00  0.00    +0.000 A 
ATOM     20  C   UNL     1      -3.059  11.145  18.021  0.00  0.00    +0.000 A 
ATOM     21  C   UNL     1      -2.087  10.255  17.529  0.00  0.00    +0.000 A 
BRANCH  20  22
ATOM     22  C   UNL     1      -4.433  11.141  17.415  0.00  0.00    +0.000 C 
ATOM     23  F   UNL     1      -5.022  12.370  17.380  0.00  0.00    +0.000 F 
ATOM     24  F   UNL     1      -4.430  10.695  16.128  0.00  0.00    +0.000 F 
ATOM     25  F   UNL     1      -5.301  10.335  18.088  0.00  0.00    +0.000 F 
ENDBRANCH  20  22
ENDBRANCH  15  16
ENDBRANCH  12  15
ENDBRANCH  11  12
ENDBRANCH   5  10
BRANCH   1  26
ATOM     26  C   UNL     1       5.599   5.850  16.483  0.00  0.00    +0.000 C 
BRANCH  26  28
ATOM     27  C   UNL     1       7.555   6.651  17.896  0.00  0.00    +0.000 C 
ATOM     28  C   UNL     1       6.741   5.681  17.452  0.00  0.00    +0.000 C 
BRANCH  27  29
ATOM     29  C   UNL     1       7.532   8.100  17.505  0.00  0.00    +0.000 C 
BRANCH  29  31
ATOM     30  C   UNL     1       8.846  10.136  18.143  0.00  0.00    +0.000 C 
ATOM     31  C   UNL     1       8.374   8.921  18.440  0.00  0.00    +0.000 C 
BRANCH  30  32
ATOM     32  C   UNL     1       9.688  10.857  19.112  0.00  0.00    +0.000 C 
ATOM     33  O   UNL     1       9.612  10.754  20.318  0.00  0.00    +0.000 OA
BRANCH  32  35
ATOM     34  C   UNL     1       9.955  12.759  17.790  0.00  0.00    +0.000 C 
ATOM     35  O   UNL     1      10.566  11.630  18.425  0.00  0.00    +0.000 OA
ENDBRANCH  32  35
ENDBRANCH  30  32
ENDBRANCH  29  31
ENDBRANCH  27  29
ENDBRANCH  26  28
ENDBRANCH   1  26
TORSDOF 14
ENDMDL
MODEL 7
REMARK VINA RESULT:      -7.9      0.894      1.369
REMARK  Name = 
REMARK  15 active torsions:
REMARK  status: ('A' for Active; 'I' for Inactive)
REMARK    1  A    between atoms: C_1  and  O_2
REMARK    2  A    between atoms: O_2  and  C_3
REMARK    3  A    between atoms: C_3  and  C_5
REMARK    4  A    between atoms: C_6  and  C_7
REMARK    5  A    between atoms: C_7  and  C_8
REMARK    6  A    between atoms: C_9  and  C_10
REMARK    7  A    between atoms: C_10  and  C_11
REMARK    8  A    between atoms: C_12  and  O_13
REMARK    9  A    between atoms: C_15  and  O_16
REMARK   10  A    between atoms: C_17  and  C_18
REMARK   11  A    between atoms: C_19  and  C_20
REMARK   12  A    between atoms: C_20  and  O_21
REMARK   13  A    between atoms: C_20  and  O_22
REMARK   14  A    between atoms: O_22  and  C_23
REMARK   15  A    between atoms: C_27  and  C_28
REMARK                            x       y       z     vdW  Elec       q    Type
REMARK                         _______ _______ _______ _____ _____    ______ ____
ROOT
ATOM      1  C   UNL     1       2.149   5.050  18.524  0.00  0.00    +0.000 C 
ATOM      2  C   UNL     1       1.450   3.817  17.913  0.00  0.00    +0.000 C 
ATOM      3  C   UNL     1       1.003   2.924  19.065  0.00  0.00    +0.000 C 
ATOM      4  C   UNL     1       1.010   3.813  20.294  0.00  0.00    +0.000 C 
ATOM      5  C   UNL     1       2.129   4.846  20.053  0.00  0.00    +0.000 C 
ENDROOT
BRANCH   2   6
ATOM      6  O   UNL     1       2.229   3.095  16.978  0.00  0.00    +0.000 OA
ATOM      7  H   UNL     1       2.221   2.153  17.215  0.00  0.00    +0.000 HD
ENDBRANCH   2   6
BRANCH   4   8
ATOM      8  O   UNL     1       1.241   3.042  21.465  0.00  0.00    +0.000 OA
ATOM      9  H   UNL     1       1.870   2.332  21.249  0.00  0.00    +0.000 HD
ENDBRANCH   4   8
BRANCH   5  10
ATOM     10  C   UNL     1       1.792   6.131  20.772  0.00  0.00    +0.000 C 
ATOM     11  C   UNL     1       1.264   7.244  20.241  0.00  0.00    +0.000 C 
BRANCH  11  12
ATOM     12  C   UNL     1       0.965   8.511  21.007  0.00  0.00    +0.000 C 
BRANCH  12  13
ATOM     13  O   UNL     1       1.794   8.584  22.157  0.00  0.00    +0.000 OA
ATOM     14  H   UNL     1       2.105   7.676  22.301  0.00  0.00    +0.000 HD
ENDBRANCH  12  13
BRANCH  12  15
ATOM     15  O   UNL     1       1.165   9.597  20.101  0.00  0.00    +0.000 OA
BRANCH  15  16
ATOM     16  C   UNL     1       0.091  10.342  19.699  0.00  0.00    +0.000 A 
ATOM     17  C   UNL     1      -0.225  11.420  20.526  0.00  0.00    +0.000 A 
ATOM     18  C   UNL     1      -1.334  12.229  20.250  0.00  0.00    +0.000 A 
ATOM     19  C   UNL     1      -2.135  11.953  19.145  0.00  0.00    +0.000 A 
ATOM     20  C   UNL     1      -1.832  10.878  18.298  0.00  0.00    +0.000 A 
ATOM     21  C   UNL     1      -0.701  10.091  18.580  0.00  0.00    +0.000 A 
BRANCH  20  22
ATOM     22  C   UNL     1      -2.699  10.522  17.123  0.00  0.00    +0.000 C 
ATOM     23  F   UNL     1      -2.484  11.301  16.025  0.00  0.00    +0.000 F 
ATOM     24  F   UNL     1      -2.510   9.239  16.710  0.00  0.00    +0.000 F 
ATOM     25  F   UNL     1      -4.029  10.633  17.400  0.00  0.00    +0.000 F 
ENDBRANCH  20  22
ENDBRANCH  15  16
ENDBRANCH  12  15
ENDBRANCH  11  12
ENDBRANCH   5  10
BRANCH   1  26
ATOM     26  C   UNL     1       3.530   5.453  17.966  0.00  0.00    +0.000 C 
BRANCH  26  28
ATOM     27  C   UNL     1       5.838   5.373  19.030  0.00  0.00    +0.000 C 
ATOM     28  C   UNL     1       4.590   5.861  18.956  0.00  0.00    +0.000 C 
BRANCH  27  29
ATOM     29  C   UNL     1       6.440   4.298  18.174  0.00  0.00    +0.000 C 
BRANCH  29  31
ATOM     30  C   UNL     1       6.457   4.044  15.681  0.00  0.00    +0.000 C 
ATOM     31  C   UNL     1       6.661   4.790  16.773  0.00  0.00    +0.000 C 
BRANCH  30  32
ATOM     32  C   UNL     1       6.727   4.602  14.345  0.00  0.00    +0.000 C 
ATOM     33  O   UNL     1       7.598   5.404  14.086  0.00  0.00    +0.000 OA
BRANCH  32  35
ATOM     34  C   UNL     1       6.485   3.524  12.292  0.00  0.00    +0.000 C 
ATOM     35  O   UNL     1       5.855   4.050  13.466  0.00  0.00    +0.000 OA
ENDBRANCH  32  35
ENDBRANCH  30  32
ENDBRANCH  29  31
ENDBRANCH  27  29
ENDBRANCH  26  28
ENDBRANCH   1  26
TORSDOF 14
ENDMDL
MODEL 8
REMARK VINA RESULT:      -7.9      4.019      5.793
REMARK  Name = 
REMARK  15 active torsions:
REMARK  status: ('A' for Active; 'I' for Inactive)
REMARK    1  A    between atoms: C_1  and  O_2
REMARK    2  A    between atoms: O_2  and  C_3
REMARK    3  A    between atoms: C_3  and  C_5
REMARK    4  A    between atoms: C_6  and  C_7
REMARK    5  A    between atoms: C_7  and  C_8
REMARK    6  A    between atoms: C_9  and  C_10
REMARK    7  A    between atoms: C_10  and  C_11
REMARK    8  A    between atoms: C_12  and  O_13
REMARK    9  A    between atoms: C_15  and  O_16
REMARK   10  A    between atoms: C_17  and  C_18
REMARK   11  A    between atoms: C_19  and  C_20
REMARK   12  A    between atoms: C_20  and  O_21
REMARK   13  A    between atoms: C_20  and  O_22
REMARK   14  A    between atoms: O_22  and  C_23
REMARK   15  A    between atoms: C_27  and  C_28
REMARK                            x       y       z     vdW  Elec       q    Type
REMARK                         _______ _______ _______ _____ _____    ______ ____
ROOT
ATOM      1  C   UNL     1       5.198   6.247  16.500  0.00  0.00    +0.000 C 
ATOM      2  C   UNL     1       5.469   5.283  15.325  0.00  0.00    +0.000 C 
ATOM      3  C   UNL     1       5.218   3.865  15.826  0.00  0.00    +0.000 C 
ATOM      4  C   UNL     1       4.381   4.021  17.081  0.00  0.00    +0.000 C 
ATOM      5  C   UNL     1       4.813   5.364  17.704  0.00  0.00    +0.000 C 
ENDROOT
BRANCH   2   6
ATOM      6  O   UNL     1       6.755   5.401  14.745  0.00  0.00    +0.000 OA
ATOM      7  H   UNL     1       6.954   4.592  14.245  0.00  0.00    +0.000 HD
ENDBRANCH   2   6
BRANCH   4   8
ATOM      8  O   UNL     1       4.602   2.930  17.964  0.00  0.00    +0.000 OA
ATOM      9  H   UNL     1       4.466   2.101  17.473  0.00  0.00    +0.000 HD
ENDBRANCH   4   8
BRANCH   5  10
ATOM     10  C   UNL     1       3.656   5.959  18.471  0.00  0.00    +0.000 C 
ATOM     11  C   UNL     1       3.092   7.162  18.285  0.00  0.00    +0.000 C 
BRANCH  11  12
ATOM     12  C   UNL     1       1.944   7.715  19.097  0.00  0.00    +0.000 C 
BRANCH  12  13
ATOM     13  O   UNL     1       2.092   7.336  20.457  0.00  0.00    +0.000 OA
ATOM     14  H   UNL     1       2.187   6.371  20.440  0.00  0.00    +0.000 HD
ENDBRANCH  12  13
BRANCH  12  15
ATOM     15  O   UNL     1       1.949   9.131  18.905  0.00  0.00    +0.000 OA
BRANCH  15  16
ATOM     16  C   UNL     1       0.765   9.815  18.933  0.00  0.00    +0.000 A 
ATOM     17  C   UNL     1       0.578  10.629  20.050  0.00  0.00    +0.000 A 
ATOM     18  C   UNL     1      -0.615  11.344  20.219  0.00  0.00    +0.000 A 
ATOM     19  C   UNL     1      -1.629  11.235  19.271  0.00  0.00    +0.000 A 
ATOM     20  C   UNL     1      -1.459  10.426  18.138  0.00  0.00    +0.000 A 
ATOM     21  C   UNL     1      -0.244   9.735  17.975  0.00  0.00    +0.000 A 
BRANCH  20  22
ATOM     22  C   UNL     1      -2.547  10.248  17.117  0.00  0.00    +0.000 C 
ATOM     23  F   UNL     1      -2.213   9.405  16.099  0.00  0.00    +0.000 F 
ATOM     24  F   UNL     1      -3.688   9.741  17.660  0.00  0.00    +0.000 F 
ATOM     25  F   UNL     1      -2.905  11.421  16.523  0.00  0.00    +0.000 F 
ENDBRANCH  20  22
ENDBRANCH  15  16
ENDBRANCH  12  15
ENDBRANCH  11  12
ENDBRANCH   5  10
BRANCH   1  26
ATOM     26  C   UNL     1       6.263   7.315  16.823  0.00  0.00    +0.000 C 
BRANCH  26  28
ATOM     27  C   UNL     1       8.246   7.784  18.345  0.00  0.00    +0.000 C 
ATOM     28  C   UNL     1       7.335   6.951  17.818  0.00  0.00    +0.000 C 
BRANCH  27  29
ATOM     29  C   UNL     1       8.422   9.242  18.036  0.00  0.00    +0.000 C 
BRANCH  29  31
ATOM     30  C   UNL     1       9.416  11.249  19.162  0.00  0.00    +0.000 C 
ATOM     31  C   UNL     1       9.046   9.964  19.197  0.00  0.00    +0.000 C 
BRANCH  30  32
ATOM     32  C   UNL     1      10.047  11.867  20.340  0.00  0.00    +0.000 C 
ATOM     33  O   UNL     1       9.525  12.689  21.063  0.00  0.00    +0.000 OA
BRANCH  32  35
ATOM     34  C   UNL     1      12.261  11.936  19.613  0.00  0.00    +0.000 C 
ATOM     35  O   UNL     1      11.290  11.344  20.484  0.00  0.00    +0.000 OA
ENDBRANCH  32  35
ENDBRANCH  30  32
ENDBRANCH  29  31
ENDBRANCH  27  29
ENDBRANCH  26  28
ENDBRANCH   1  26
TORSDOF 14
ENDMDL
MODEL 9
REMARK VINA RESULT:      -7.9      2.172      3.298
REMARK  Name = 
REMARK  15 active torsions:
REMARK  status: ('A' for Active; 'I' for Inactive)
REMARK    1  A    between atoms: C_1  and  O_2
REMARK    2  A    between atoms: O_2  and  C_3
REMARK    3  A    between atoms: C_3  and  C_5
REMARK    4  A    between atoms: C_6  and  C_7
REMARK    5  A    between atoms: C_7  and  C_8
REMARK    6  A    between atoms: C_9  and  C_10
REMARK    7  A    between atoms: C_10  and  C_11
REMARK    8  A    between atoms: C_12  and  O_13
REMARK    9  A    between atoms: C_15  and  O_16
REMARK   10  A    between atoms: C_17  and  C_18
REMARK   11  A    between atoms: C_19  and  C_20
REMARK   12  A    between atoms: C_20  and  O_21
REMARK   13  A    between atoms: C_20  and  O_22
REMARK   14  A    between atoms: O_22  and  C_23
REMARK   15  A    between atoms: C_27  and  C_28
REMARK                            x       y       z     vdW  Elec       q    Type
REMARK                         _______ _______ _______ _____ _____    ______ ____
ROOT
ATOM      1  C   UNL     1       4.196   5.734  19.257  0.00  0.00    +0.000 C 
ATOM      2  C   UNL     1       5.651   5.219  19.266  0.00  0.00    +0.000 C 
ATOM      3  C   UNL     1       6.339   5.762  18.019  0.00  0.00    +0.000 C 
ATOM      4  C   UNL     1       5.481   6.924  17.556  0.00  0.00    +0.000 C 
ATOM      5  C   UNL     1       4.039   6.564  17.967  0.00  0.00    +0.000 C 
ENDROOT
BRANCH   2   6
ATOM      6  O   UNL     1       5.782   3.812  19.350  0.00  0.00    +0.000 OA
ATOM      7  H   UNL     1       6.642   3.595  19.748  0.00  0.00    +0.000 HD
ENDBRANCH   2   6
BRANCH   4   8
ATOM      8  O   UNL     1       5.604   7.105  16.152  0.00  0.00    +0.000 OA
ATOM      9  H   UNL     1       4.884   7.684  15.850  0.00  0.00    +0.000 HD
ENDBRANCH   4   8
BRANCH   5  10
ATOM     10  C   UNL     1       3.256   7.831  18.224  0.00  0.00    +0.000 C 
ATOM     11  C   UNL     1       2.058   8.161  17.719  0.00  0.00    +0.000 C 
BRANCH  11  12
ATOM     12  C   UNL     1       1.329   9.455  17.998  0.00  0.00    +0.000 C 
BRANCH  12  13
ATOM     13  O   UNL     1       2.035  10.539  17.413  0.00  0.00    +0.000 OA
ATOM     14  H   UNL     1       1.860  10.469  16.462  0.00  0.00    +0.000 HD
ENDBRANCH  12  13
BRANCH  12  15
ATOM     15  O   UNL     1       0.006   9.301  17.480  0.00  0.00    +0.000 OA
BRANCH  15  16
ATOM     16  C   UNL     1      -0.981  10.148  17.900  0.00  0.00    +0.000 A 
ATOM     17  C   UNL     1      -0.684  10.879  19.050  0.00  0.00    +0.000 A 
ATOM     18  C   UNL     1      -1.632  11.745  19.610  0.00  0.00    +0.000 A 
ATOM     19  C   UNL     1      -2.888  11.872  19.020  0.00  0.00    +0.000 A 
ATOM     20  C   UNL     1      -3.205  11.150  17.860  0.00  0.00    +0.000 A 
ATOM     21  C   UNL     1      -2.230  10.304  17.301  0.00  0.00    +0.000 A 
BRANCH  20  22
ATOM     22  C   UNL     1      -4.563  11.227  17.222  0.00  0.00    +0.000 C 
ATOM     23  F   UNL     1      -5.521  10.515  17.882  0.00  0.00    +0.000 F 
ATOM     24  F   UNL     1      -5.032  12.504  17.154  0.00  0.00    +0.000 F 
ATOM     25  F   UNL     1      -4.569  10.757  15.943  0.00  0.00    +0.000 F 
ENDBRANCH  20  22
ENDBRANCH  15  16
ENDBRANCH  12  15
ENDBRANCH  11  12
ENDBRANCH   5  10
BRANCH   1  26
ATOM     26  C   UNL     1       3.063   4.712  19.485  0.00  0.00    +0.000 C 
BRANCH  26  28
ATOM     27  C   UNL     1       2.495   3.637  17.252  0.00  0.00    +0.000 C 
ATOM     28  C   UNL     1       2.170   4.389  18.315  0.00  0.00    +0.000 C 
BRANCH  27  29
ATOM     29  C   UNL     1       3.818   2.985  16.977  0.00  0.00    +0.000 C 
BRANCH  29  31
ATOM     30  C   UNL     1       5.842   3.642  15.652  0.00  0.00    +0.000 C 
ATOM     31  C   UNL     1       4.515   3.652  15.826  0.00  0.00    +0.000 C 
BRANCH  30  32
ATOM     32  C   UNL     1       6.441   4.348  14.507  0.00  0.00    +0.000 C 
ATOM     33  O   UNL     1       7.393   5.096  14.567  0.00  0.00    +0.000 OA
BRANCH  32  35
ATOM     34  C   UNL     1       6.609   3.551  12.323  0.00  0.00    +0.000 C 
ATOM     35  O   UNL     1       5.762   4.000  13.386  0.00  0.00    +0.000 OA
ENDBRANCH  32  35
ENDBRANCH  30  32
ENDBRANCH  29  31
ENDBRANCH  27  29
ENDBRANCH  26  28
ENDBRANCH   1  26
TORSDOF 14
ENDMDL
