MODEL 1
REMARK VINA RESULT:      -6.4      0.000      0.000
REMARK  Name = 
REMARK  3 active torsions:
REMARK  status: ('A' for Active; 'I' for Inactive)
REMARK    1  A    between atoms: C_1  and  N_2
REMARK    2  A    between atoms: C_3  and  C_5
REMARK    3  A    between atoms: C_14  and  C_15
REMARK                            x       y       z     vdW  Elec       q    Type
REMARK                         _______ _______ _______ _____ _____    ______ ____
ROOT
ATOM      1  C   UNL     1       2.347   2.357  19.828  0.00  0.00    +0.000 C 
ATOM      2  N   UNL     1       3.239   3.426  19.422  0.00  0.00    +0.000 N 
ATOM      3  C   UNL     1       4.630   3.236  19.435  0.00  0.00    +0.000 C 
ATOM      4  O   UNL     1       5.152   2.237  19.939  0.00  0.00    +0.000 OA
ATOM      5  C   UNL     1       2.712   4.617  18.967  0.00  0.00    +0.000 A 
ATOM      6  N   UNL     1       2.078   4.828  17.839  0.00  0.00    +0.000 NA
ATOM      7  N   UNL     1       1.792   6.171  17.672  0.00  0.00    +0.000 NA
ATOM      8  C   UNL     1       2.086   6.885  18.746  0.00  0.00    +0.000 A 
ATOM      9  S   UNL     1       2.773   5.955  20.028  0.00  0.00    +0.000 S 
ENDROOT
BRANCH   3  10
ATOM     10  C   UNL     1       5.551   4.260  18.840  0.00  0.00    +0.000 A 
ATOM     11  C   UNL     1       5.617   4.407  17.465  0.00  0.00    +0.000 A 
ATOM     12  N   UNL     1       6.503   5.242  16.860  0.00  0.00    +0.000 NA
ATOM     13  C   UNL     1       7.307   5.941  17.694  0.00  0.00    +0.000 A 
ATOM     14  C   UNL     1       7.218   5.828  19.065  0.00  0.00    +0.000 A 
ATOM     15  N   UNL     1       6.340   4.998  19.666  0.00  0.00    +0.000 NA
ENDBRANCH   3  10
BRANCH   8  16
ATOM     16  C   UNL     1       1.860   8.322  18.886  0.00  0.00    +0.000 A 
ATOM     17  C   UNL     1       2.219   9.210  17.876  0.00  0.00    +0.000 A 
ATOM     18  N   UNL     1       1.976  10.545  17.945  0.00  0.00    +0.000 NA
ATOM     19  C   UNL     1       1.346  10.957  19.067  0.00  0.00    +0.000 A 
ATOM     20  C   UNL     1       0.998  10.085  20.084  0.00  0.00    +0.000 A 
ATOM     21  N   UNL     1       1.249   8.759  20.021  0.00  0.00    +0.000 NA
ENDBRANCH   8  16
TORSDOF 2
ENDMDL
MODEL 2
REMARK VINA RESULT:      -6.3      2.195      5.766
REMARK  Name = 
REMARK  3 active torsions:
REMARK  status: ('A' for Active; 'I' for Inactive)
REMARK    1  A    between atoms: C_1  and  N_2
REMARK    2  A    between atoms: C_3  and  C_5
REMARK    3  A    between atoms: C_14  and  C_15
REMARK                            x       y       z     vdW  Elec       q    Type
REMARK                         _______ _______ _______ _____ _____    ______ ____
ROOT
ATOM      1  C   UNL     1       3.131   2.257  20.799  0.00  0.00    +0.000 C 
ATOM      2  N   UNL     1       3.135   3.499  20.049  0.00  0.00    +0.000 N 
ATOM      3  C   UNL     1       2.091   4.425  20.199  0.00  0.00    +0.000 C 
ATOM      4  O   UNL     1       1.064   4.161  20.831  0.00  0.00    +0.000 OA
ATOM      5  C   UNL     1       4.203   3.793  19.225  0.00  0.00    +0.000 A 
ATOM      6  N   UNL     1       5.425   4.101  19.586  0.00  0.00    +0.000 NA
ATOM      7  N   UNL     1       6.196   4.441  18.489  0.00  0.00    +0.000 NA
ATOM      8  C   UNL     1       5.567   4.228  17.345  0.00  0.00    +0.000 A 
ATOM      9  S   UNL     1       3.961   3.626  17.542  0.00  0.00    +0.000 S 
ENDROOT
BRANCH   3  10
ATOM     10  C   UNL     1       2.179   5.789  19.579  0.00  0.00    +0.000 A 
ATOM     11  C   UNL     1       2.031   6.914  20.372  0.00  0.00    +0.000 A 
ATOM     12  N   UNL     1       1.997   8.173  19.858  0.00  0.00    +0.000 NA
ATOM     13  C   UNL     1       2.139   8.256  18.515  0.00  0.00    +0.000 A 
ATOM     14  C   UNL     1       2.326   7.142  17.725  0.00  0.00    +0.000 A 
ATOM     15  N   UNL     1       2.358   5.893  18.235  0.00  0.00    +0.000 NA
ENDBRANCH   3  10
BRANCH   8  16
ATOM     16  C   UNL     1       6.137   4.453  16.019  0.00  0.00    +0.000 A 
ATOM     17  C   UNL     1       7.187   5.345  15.828  0.00  0.00    +0.000 A 
ATOM     18  N   UNL     1       7.780   5.543  14.621  0.00  0.00    +0.000 NA
ATOM     19  C   UNL     1       7.283   4.798  13.609  0.00  0.00    +0.000 A 
ATOM     20  C   UNL     1       6.230   3.919  13.784  0.00  0.00    +0.000 A 
ATOM     21  N   UNL     1       5.632   3.730  14.982  0.00  0.00    +0.000 NA
ENDBRANCH   8  16
TORSDOF 2
ENDMDL
MODEL 3
REMARK VINA RESULT:      -6.3      0.604      1.050
REMARK  Name = 
REMARK  3 active torsions:
REMARK  status: ('A' for Active; 'I' for Inactive)
REMARK    1  A    between atoms: C_1  and  N_2
REMARK    2  A    between atoms: C_3  and  C_5
REMARK    3  A    between atoms: C_14  and  C_15
REMARK                            x       y       z     vdW  Elec       q    Type
REMARK                         _______ _______ _______ _____ _____    ______ ____
ROOT
ATOM      1  C   UNL     1       2.357   2.436  19.905  0.00  0.00    +0.000 C 
ATOM      2  N   UNL     1       3.243   3.494  19.454  0.00  0.00    +0.000 N 
ATOM      3  C   UNL     1       4.635   3.311  19.469  0.00  0.00    +0.000 C 
ATOM      4  O   UNL     1       5.164   2.335  20.008  0.00  0.00    +0.000 OA
ATOM      5  C   UNL     1       2.707   4.663  18.956  0.00  0.00    +0.000 A 
ATOM      6  N   UNL     1       2.068   4.827  17.823  0.00  0.00    +0.000 NA
ATOM      7  N   UNL     1       1.774   6.162  17.607  0.00  0.00    +0.000 NA
ATOM      8  C   UNL     1       2.069   6.918  18.651  0.00  0.00    +0.000 A 
ATOM      9  S   UNL     1       2.766   6.042  19.964  0.00  0.00    +0.000 S 
ENDROOT
BRANCH   3  10
ATOM     10  C   UNL     1       5.548   4.316  18.831  0.00  0.00    +0.000 A 
ATOM     11  C   UNL     1       5.597   4.419  17.451  0.00  0.00    +0.000 A 
ATOM     12  N   UNL     1       6.475   5.235  16.809  0.00  0.00    +0.000 NA
ATOM     13  C   UNL     1       7.289   5.960  17.611  0.00  0.00    +0.000 A 
ATOM     14  C   UNL     1       7.217   5.891  18.986  0.00  0.00    +0.000 A 
ATOM     15  N   UNL     1       6.347   5.080  19.623  0.00  0.00    +0.000 NA
ENDBRANCH   3  10
BRANCH   8  16
ATOM     16  C   UNL     1       1.836   8.358  18.736  0.00  0.00    +0.000 A 
ATOM     17  C   UNL     1       1.245   8.928  19.860  0.00  0.00    +0.000 A 
ATOM     18  N   UNL     1       1.061  10.267  19.999  0.00  0.00    +0.000 NA
ATOM     19  C   UNL     1       1.506  11.019  18.968  0.00  0.00    +0.000 A 
ATOM     20  C   UNL     1       2.082  10.462  17.840  0.00  0.00    +0.000 A 
ATOM     21  N   UNL     1       2.255   9.129  17.695  0.00  0.00    +0.000 NA
ENDBRANCH   8  16
TORSDOF 2
ENDMDL
MODEL 4
REMARK VINA RESULT:      -6.2      3.712      4.977
REMARK  Name = 
REMARK  3 active torsions:
REMARK  status: ('A' for Active; 'I' for Inactive)
REMARK    1  A    between atoms: C_1  and  N_2
REMARK    2  A    between atoms: C_3  and  C_5
REMARK    3  A    between atoms: C_14  and  C_15
REMARK                            x       y       z     vdW  Elec       q    Type
REMARK                         _______ _______ _______ _____ _____    ______ ____
ROOT
ATOM      1  C   UNL     1       5.181   4.384  13.822  0.00  0.00    +0.000 C 
ATOM      2  N   UNL     1       5.637   4.666  15.171  0.00  0.00    +0.000 N 
ATOM      3  C   UNL     1       6.986   4.965  15.418  0.00  0.00    +0.000 C 
ATOM      4  O   UNL     1       7.856   4.840  14.552  0.00  0.00    +0.000 OA
ATOM      5  C   UNL     1       4.724   4.694  16.206  0.00  0.00    +0.000 A 
ATOM      6  N   UNL     1       3.792   5.591  16.421  0.00  0.00    +0.000 NA
ATOM      7  N   UNL     1       3.140   5.352  17.618  0.00  0.00    +0.000 NA
ATOM      8  C   UNL     1       3.505   4.208  18.171  0.00  0.00    +0.000 A 
ATOM      9  S   UNL     1       4.710   3.359  17.272  0.00  0.00    +0.000 S 
ENDROOT
BRANCH   3  10
ATOM     10  C   UNL     1       7.431   5.442  16.769  0.00  0.00    +0.000 A 
ATOM     11  C   UNL     1       7.697   4.521  17.768  0.00  0.00    +0.000 A 
ATOM     12  N   UNL     1       8.004   4.890  19.041  0.00  0.00    +0.000 NA
ATOM     13  C   UNL     1       8.054   6.224  19.264  0.00  0.00    +0.000 A 
ATOM     14  C   UNL     1       7.830   7.145  18.263  0.00  0.00    +0.000 A 
ATOM     15  N   UNL     1       7.523   6.779  17.001  0.00  0.00    +0.000 NA
ENDBRANCH   3  10
BRANCH   8  16
ATOM     16  C   UNL     1       2.963   3.667  19.415  0.00  0.00    +0.000 A 
ATOM     17  C   UNL     1       3.743   2.889  20.264  0.00  0.00    +0.000 A 
ATOM     18  N   UNL     1       3.292   2.413  21.454  0.00  0.00    +0.000 NA
ATOM     19  C   UNL     1       2.024   2.759  21.768  0.00  0.00    +0.000 A 
ATOM     20  C   UNL     1       1.234   3.520  20.925  0.00  0.00    +0.000 A 
ATOM     21  N   UNL     1       1.678   3.985  19.736  0.00  0.00    +0.000 NA
ENDBRANCH   8  16
TORSDOF 2
ENDMDL
MODEL 5
REMARK VINA RESULT:      -6.1      2.004      3.682
REMARK  Name = 
REMARK  3 active torsions:
REMARK  status: ('A' for Active; 'I' for Inactive)
REMARK    1  A    between atoms: C_1  and  N_2
REMARK    2  A    between atoms: C_3  and  C_5
REMARK    3  A    between atoms: C_14  and  C_15
REMARK                            x       y       z     vdW  Elec       q    Type
REMARK                         _______ _______ _______ _____ _____    ______ ____
ROOT
ATOM      1  C   UNL     1       5.100   3.441  16.479  0.00  0.00    +0.000 C 
ATOM      2  N   UNL     1       4.198   3.603  17.604  0.00  0.00    +0.000 N 
ATOM      3  C   UNL     1       3.606   2.484  18.209  0.00  0.00    +0.000 C 
ATOM      4  O   UNL     1       3.689   1.353  17.722  0.00  0.00    +0.000 OA
ATOM      5  C   UNL     1       3.967   4.864  18.114  0.00  0.00    +0.000 A 
ATOM      6  N   UNL     1       4.806   5.619  18.782  0.00  0.00    +0.000 NA
ATOM      7  N   UNL     1       4.188   6.773  19.230  0.00  0.00    +0.000 NA
ATOM      8  C   UNL     1       2.962   6.905  18.753  0.00  0.00    +0.000 A 
ATOM      9  S   UNL     1       2.468   5.595  17.744  0.00  0.00    +0.000 S 
ENDROOT
BRANCH   3  10
ATOM     10  C   UNL     1       2.828   2.622  19.485  0.00  0.00    +0.000 A 
ATOM     11  C   UNL     1       3.484   2.535  20.701  0.00  0.00    +0.000 A 
ATOM     12  N   UNL     1       2.825   2.548  21.891  0.00  0.00    +0.000 NA
ATOM     13  C   UNL     1       1.480   2.674  21.809  0.00  0.00    +0.000 A 
ATOM     14  C   UNL     1       0.826   2.801  20.602  0.00  0.00    +0.000 A 
ATOM     15  N   UNL     1       1.480   2.786  19.421  0.00  0.00    +0.000 NA
ENDBRANCH   3  10
BRANCH   8  16
ATOM     16  C   UNL     1       2.077   8.038  19.016  0.00  0.00    +0.000 A 
ATOM     17  C   UNL     1       1.682   8.896  17.995  0.00  0.00    +0.000 A 
ATOM     18  N   UNL     1       0.818   9.928  18.189  0.00  0.00    +0.000 NA
ATOM     19  C   UNL     1       0.355  10.060  19.452  0.00  0.00    +0.000 A 
ATOM     20  C   UNL     1       0.754   9.221  20.478  0.00  0.00    +0.000 A 
ATOM     21  N   UNL     1       1.621   8.202  20.288  0.00  0.00    +0.000 NA
ENDBRANCH   8  16
TORSDOF 2
ENDMDL
MODEL 6
REMARK VINA RESULT:      -6.1      3.579      4.911
REMARK  Name = 
REMARK  3 active torsions:
REMARK  status: ('A' for Active; 'I' for Inactive)
REMARK    1  A    between atoms: C_1  and  N_2
REMARK    2  A    between atoms: C_3  and  C_5
REMARK    3  A    between atoms: C_14  and  C_15
REMARK                            x       y       z     vdW  Elec       q    Type
REMARK                         _______ _______ _______ _____ _____    ______ ____
ROOT
ATOM      1  C   UNL     1       5.192   4.397  13.831  0.00  0.00    +0.000 C 
ATOM      2  N   UNL     1       5.642   4.687  15.180  0.00  0.00    +0.000 N 
ATOM      3  C   UNL     1       6.998   4.945  15.437  0.00  0.00    +0.000 C 
ATOM      4  O   UNL     1       7.873   4.776  14.584  0.00  0.00    +0.000 OA
ATOM      5  C   UNL     1       4.720   4.764  16.203  0.00  0.00    +0.000 A 
ATOM      6  N   UNL     1       3.816   5.695  16.392  0.00  0.00    +0.000 NA
ATOM      7  N   UNL     1       3.143   5.499  17.584  0.00  0.00    +0.000 NA
ATOM      8  C   UNL     1       3.463   4.353  18.161  0.00  0.00    +0.000 A 
ATOM      9  S   UNL     1       4.648   3.449  17.291  0.00  0.00    +0.000 S 
ENDROOT
BRANCH   3  10
ATOM     10  C   UNL     1       7.444   5.431  16.786  0.00  0.00    +0.000 A 
ATOM     11  C   UNL     1       7.719   4.516  17.787  0.00  0.00    +0.000 A 
ATOM     12  N   UNL     1       8.027   4.892  19.058  0.00  0.00    +0.000 NA
ATOM     13  C   UNL     1       8.069   6.226  19.275  0.00  0.00    +0.000 A 
ATOM     14  C   UNL     1       7.835   7.142  18.271  0.00  0.00    +0.000 A 
ATOM     15  N   UNL     1       7.527   6.769  17.011  0.00  0.00    +0.000 NA
ENDBRANCH   3  10
BRANCH   8  16
ATOM     16  C   UNL     1       2.889   3.852  19.408  0.00  0.00    +0.000 A 
ATOM     17  C   UNL     1       1.582   4.161  19.775  0.00  0.00    +0.000 A 
ATOM     18  N   UNL     1       0.995   3.671  20.898  0.00  0.00    +0.000 NA
ATOM     19  C   UNL     1       1.769   2.846  21.638  0.00  0.00    +0.000 A 
ATOM     20  C   UNL     1       3.073   2.545  21.291  0.00  0.00    +0.000 A 
ATOM     21  N   UNL     1       3.662   3.040  20.179  0.00  0.00    +0.000 NA
ENDBRANCH   8  16
TORSDOF 2
ENDMDL
MODEL 7
REMARK VINA RESULT:      -6.1      2.032      3.813
REMARK  Name = 
REMARK  3 active torsions:
REMARK  status: ('A' for Active; 'I' for Inactive)
REMARK    1  A    between atoms: C_1  and  N_2
REMARK    2  A    between atoms: C_3  and  C_5
REMARK    3  A    between atoms: C_14  and  C_15
REMARK                            x       y       z     vdW  Elec       q    Type
REMARK                         _______ _______ _______ _____ _____    ______ ____
ROOT
ATOM      1  C   UNL     1       5.067   3.469  16.455  0.00  0.00    +0.000 C 
ATOM      2  N   UNL     1       4.173   3.618  17.589  0.00  0.00    +0.000 N 
ATOM      3  C   UNL     1       3.599   2.489  18.194  0.00  0.00    +0.000 C 
ATOM      4  O   UNL     1       3.689   1.361  17.702  0.00  0.00    +0.000 OA
ATOM      5  C   UNL     1       3.933   4.874  18.106  0.00  0.00    +0.000 A 
ATOM      6  N   UNL     1       4.770   5.635  18.770  0.00  0.00    +0.000 NA
ATOM      7  N   UNL     1       4.144   6.780  19.228  0.00  0.00    +0.000 NA
ATOM      8  C   UNL     1       2.912   6.902  18.761  0.00  0.00    +0.000 A 
ATOM      9  S   UNL     1       2.423   5.590  17.751  0.00  0.00    +0.000 S 
ENDROOT
BRANCH   3  10
ATOM     10  C   UNL     1       2.829   2.614  19.477  0.00  0.00    +0.000 A 
ATOM     11  C   UNL     1       3.496   2.525  20.687  0.00  0.00    +0.000 A 
ATOM     12  N   UNL     1       2.846   2.526  21.882  0.00  0.00    +0.000 NA
ATOM     13  C   UNL     1       1.500   2.643  21.812  0.00  0.00    +0.000 A 
ATOM     14  C   UNL     1       0.835   2.773  20.611  0.00  0.00    +0.000 A 
ATOM     15  N   UNL     1       1.479   2.769  19.425  0.00  0.00    +0.000 NA
ENDBRANCH   3  10
BRANCH   8  16
ATOM     16  C   UNL     1       2.018   8.024  19.037  0.00  0.00    +0.000 A 
ATOM     17  C   UNL     1       1.543   8.269  20.321  0.00  0.00    +0.000 A 
ATOM     18  N   UNL     1       0.754   9.333  20.627  0.00  0.00    +0.000 NA
ATOM     19  C   UNL     1       0.468  10.153  19.591  0.00  0.00    +0.000 A 
ATOM     20  C   UNL     1       0.923   9.911  18.308  0.00  0.00    +0.000 A 
ATOM     21  N   UNL     1       1.698   8.847  18.000  0.00  0.00    +0.000 NA
ENDBRANCH   8  16
TORSDOF 2
ENDMDL
MODEL 8
REMARK VINA RESULT:      -6.0      3.535      6.790
REMARK  Name = 
REMARK  3 active torsions:
REMARK  status: ('A' for Active; 'I' for Inactive)
REMARK    1  A    between atoms: C_1  and  N_2
REMARK    2  A    between atoms: C_3  and  C_5
REMARK    3  A    between atoms: C_14  and  C_15
REMARK                            x       y       z     vdW  Elec       q    Type
REMARK                         _______ _______ _______ _____ _____    ______ ____
ROOT
ATOM      1  C   UNL     1       7.847   6.717  18.365  0.00  0.00    +0.000 C 
ATOM      2  N   UNL     1       6.732   5.863  17.998  0.00  0.00    +0.000 N 
ATOM      3  C   UNL     1       5.960   5.236  18.989  0.00  0.00    +0.000 C 
ATOM      4  O   UNL     1       6.286   5.246  20.180  0.00  0.00    +0.000 OA
ATOM      5  C   UNL     1       6.399   5.713  16.668  0.00  0.00    +0.000 A 
ATOM      6  N   UNL     1       5.865   6.611  15.875  0.00  0.00    +0.000 NA
ATOM      7  N   UNL     1       5.568   6.067  14.638  0.00  0.00    +0.000 NA
ATOM      8  C   UNL     1       6.027   4.834  14.506  0.00  0.00    +0.000 A 
ATOM      9  S   UNL     1       6.828   4.241  15.915  0.00  0.00    +0.000 S 
ENDROOT
BRANCH   3  10
ATOM     10  C   UNL     1       4.697   4.509  18.633  0.00  0.00    +0.000 A 
ATOM     11  C   UNL     1       4.644   3.130  18.748  0.00  0.00    +0.000 A 
ATOM     12  N   UNL     1       3.568   2.403  18.345  0.00  0.00    +0.000 NA
ATOM     13  C   UNL     1       2.538   3.120  17.840  0.00  0.00    +0.000 A 
ATOM     14  C   UNL     1       2.569   4.496  17.760  0.00  0.00    +0.000 A 
ATOM     15  N   UNL     1       3.638   5.218  18.158  0.00  0.00    +0.000 NA
ENDBRANCH   3  10
BRANCH   8  16
ATOM     16  C   UNL     1       5.903   4.017  13.301  0.00  0.00    +0.000 A 
ATOM     17  C   UNL     1       7.023   3.478  12.676  0.00  0.00    +0.000 A 
ATOM     18  N   UNL     1       6.945   2.670  11.587  0.00  0.00    +0.000 NA
ATOM     19  C   UNL     1       5.692   2.412  11.151  0.00  0.00    +0.000 A 
ATOM     20  C   UNL     1       4.572   2.954  11.756  0.00  0.00    +0.000 A 
ATOM     21  N   UNL     1       4.649   3.767  12.833  0.00  0.00    +0.000 NA
ENDBRANCH   8  16
TORSDOF 2
ENDMDL
MODEL 9
REMARK VINA RESULT:      -6.0      3.584      6.844
REMARK  Name = 
REMARK  3 active torsions:
REMARK  status: ('A' for Active; 'I' for Inactive)
REMARK    1  A    between atoms: C_1  and  N_2
REMARK    2  A    between atoms: C_3  and  C_5
REMARK    3  A    between atoms: C_14  and  C_15
REMARK                            x       y       z     vdW  Elec       q    Type
REMARK                         _______ _______ _______ _____ _____    ______ ____
ROOT
ATOM      1  C   UNL     1       7.769   6.578  18.312  0.00  0.00    +0.000 C 
ATOM      2  N   UNL     1       6.639   5.757  17.920  0.00  0.00    +0.000 N 
ATOM      3  C   UNL     1       5.825   5.155  18.892  0.00  0.00    +0.000 C 
ATOM      4  O   UNL     1       6.123   5.156  20.090  0.00  0.00    +0.000 OA
ATOM      5  C   UNL     1       6.332   5.616  16.582  0.00  0.00    +0.000 A 
ATOM      6  N   UNL     1       5.844   6.529  15.776  0.00  0.00    +0.000 NA
ATOM      7  N   UNL     1       5.559   5.993  14.533  0.00  0.00    +0.000 NA
ATOM      8  C   UNL     1       5.984   4.746  14.412  0.00  0.00    +0.000 A 
ATOM      9  S   UNL     1       6.734   4.131  15.840  0.00  0.00    +0.000 S 
ENDROOT
BRANCH   3  10
ATOM     10  C   UNL     1       4.549   4.466  18.507  0.00  0.00    +0.000 A 
ATOM     11  C   UNL     1       3.437   5.220  18.173  0.00  0.00    +0.000 A 
ATOM     12  N   UNL     1       2.224   4.660  17.915  0.00  0.00    +0.000 NA
ATOM     13  C   UNL     1       2.180   3.310  17.985  0.00  0.00    +0.000 A 
ATOM     14  C   UNL     1       3.294   2.553  18.278  0.00  0.00    +0.000 A 
ATOM     15  N   UNL     1       4.497   3.107  18.536  0.00  0.00    +0.000 NA
ENDBRANCH   3  10
BRANCH   8  16
ATOM     16  C   UNL     1       5.863   3.933  13.205  0.00  0.00    +0.000 A 
ATOM     17  C   UNL     1       6.981   3.360  12.607  0.00  0.00    +0.000 A 
ATOM     18  N   UNL     1       6.904   2.553  11.516  0.00  0.00    +0.000 NA
ATOM     19  C   UNL     1       5.654   2.333  11.051  0.00  0.00    +0.000 A 
ATOM     20  C   UNL     1       4.537   2.909  11.629  0.00  0.00    +0.000 A 
ATOM     21  N   UNL     1       4.614   3.721  12.708  0.00  0.00    +0.000 NA
ENDBRANCH   8  16
TORSDOF 2
ENDMDL
