MODEL 1
REMARK VINA RESULT:      -7.5      0.000      0.000
REMARK  Name = 
REMARK  4 active torsions:
REMARK  status: ('A' for Active; 'I' for Inactive)
REMARK    1  A    between atoms: C_1  and  O_2
REMARK    2  A    between atoms: O_2  and  C_3
REMARK    3  A    between atoms: C_7  and  C_8
REMARK    4  A    between atoms: C_17  and  C_18
REMARK                            x       y       z     vdW  Elec       q    Type
REMARK                         _______ _______ _______ _____ _____    ______ ____
ROOT
ATOM      1  C   UNL     1       2.102   8.436  18.323  0.00  0.00    +0.000 C 
ATOM      2  O   UNL     1       2.503   8.820  17.225  0.00  0.00    +0.000 OA
ATOM      3  N   UNL     1       2.541   7.224  18.894  0.00  0.00    +0.000 N 
ATOM      4  C   UNL     1       3.730   6.592  18.296  0.00  0.00    +0.000 C 
ATOM      5  C   UNL     1       3.456   5.221  17.679  0.00  0.00    +0.000 C 
ATOM      6  C   UNL     1       3.467   4.148  18.742  0.00  0.00    +0.000 A 
ATOM      7  N   UNL     1       4.500   3.280  18.697  0.00  0.00    +0.000 NA
ATOM      8  C   UNL     1       4.549   2.367  19.674  0.00  0.00    +0.000 A 
ATOM      9  N   UNL     1       3.675   2.241  20.679  0.00  0.00    +0.000 NA
ATOM     10  C   UNL     1       2.649   3.119  20.702  0.00  0.00    +0.000 A 
ATOM     11  C   UNL     1       1.697   2.957  21.853  0.00  0.00    +0.000 C 
ATOM     12  C   UNL     1       2.497   4.113  19.740  0.00  0.00    +0.000 A 
ATOM     13  C   UNL     1       1.398   5.135  19.766  0.00  0.00    +0.000 C 
ATOM     14  C   UNL     1       1.919   6.546  20.046  0.00  0.00    +0.000 C 
ENDROOT
BRANCH   1  19
ATOM     15  C   UNL     1       0.339  10.400  21.048  0.00  0.00    +0.000 A 
ATOM     16  C   UNL     1      -0.748  10.904  20.333  0.00  0.00    +0.000 A 
ATOM     17  C   UNL     1      -0.874  10.659  18.965  0.00  0.00    +0.000 A 
ATOM     18  C   UNL     1       0.061   9.852  18.317  0.00  0.00    +0.000 A 
ATOM     19  C   UNL     1       1.138   9.316  19.032  0.00  0.00    +0.000 A 
ATOM     20  C   UNL     1       1.318   9.672  20.373  0.00  0.00    +0.000 A 
BRANCH  15  22
ATOM     21  C   UNL     1      -0.457   9.818  23.208  0.00  0.00    +0.000 C 
ATOM     22  O   UNL     1       0.343  10.666  22.391  0.00  0.00    +0.000 OA
ENDBRANCH  15  22
ENDBRANCH   1  19
TORSDOF 2
ENDMDL
MODEL 2
REMARK VINA RESULT:      -7.4      4.535      7.716
REMARK  Name = 
REMARK  4 active torsions:
REMARK  status: ('A' for Active; 'I' for Inactive)
REMARK    1  A    between atoms: C_1  and  O_2
REMARK    2  A    between atoms: O_2  and  C_3
REMARK    3  A    between atoms: C_7  and  C_8
REMARK    4  A    between atoms: C_17  and  C_18
REMARK                            x       y       z     vdW  Elec       q    Type
REMARK                         _______ _______ _______ _____ _____    ______ ____
ROOT
ATOM      1  C   UNL     1       6.465   5.511  15.943  0.00  0.00    +0.000 C 
ATOM      2  O   UNL     1       7.411   6.175  16.365  0.00  0.00    +0.000 OA
ATOM      3  N   UNL     1       5.318   5.267  16.726  0.00  0.00    +0.000 N 
ATOM      4  C   UNL     1       5.140   6.095  17.933  0.00  0.00    +0.000 C 
ATOM      5  C   UNL     1       5.161   5.298  19.236  0.00  0.00    +0.000 C 
ATOM      6  C   UNL     1       3.809   4.681  19.505  0.00  0.00    +0.000 A 
ATOM      7  N   UNL     1       3.121   5.195  20.547  0.00  0.00    +0.000 NA
ATOM      8  C   UNL     1       1.897   4.697  20.751  0.00  0.00    +0.000 A 
ATOM      9  N   UNL     1       1.301   3.747  20.021  0.00  0.00    +0.000 NA
ATOM     10  C   UNL     1       2.009   3.247  18.985  0.00  0.00    +0.000 A 
ATOM     11  C   UNL     1       1.303   2.194  18.179  0.00  0.00    +0.000 C 
ATOM     12  C   UNL     1       3.292   3.690  18.676  0.00  0.00    +0.000 A 
ATOM     13  C   UNL     1       4.084   3.192  17.503  0.00  0.00    +0.000 C 
ATOM     14  C   UNL     1       4.277   4.267  16.430  0.00  0.00    +0.000 C 
ENDROOT
BRANCH   1  19
ATOM     15  C   UNL     1       5.790   3.567  12.756  0.00  0.00    +0.000 A 
ATOM     16  C   UNL     1       6.888   3.955  11.987  0.00  0.00    +0.000 A 
ATOM     17  C   UNL     1       7.805   4.886  12.476  0.00  0.00    +0.000 A 
ATOM     18  C   UNL     1       7.659   5.389  13.769  0.00  0.00    +0.000 A 
ATOM     19  C   UNL     1       6.579   4.982  14.560  0.00  0.00    +0.000 A 
ATOM     20  C   UNL     1       5.602   4.144  14.011  0.00  0.00    +0.000 A 
BRANCH  15  22
ATOM     21  C   UNL     1       4.089   3.066  11.177  0.00  0.00    +0.000 C 
ATOM     22  O   UNL     1       4.977   2.619  12.196  0.00  0.00    +0.000 OA
ENDBRANCH  15  22
ENDBRANCH   1  19
TORSDOF 2
ENDMDL
MODEL 3
REMARK VINA RESULT:      -7.3      3.376      7.698
REMARK  Name = 
REMARK  4 active torsions:
REMARK  status: ('A' for Active; 'I' for Inactive)
REMARK    1  A    between atoms: C_1  and  O_2
REMARK    2  A    between atoms: O_2  and  C_3
REMARK    3  A    between atoms: C_7  and  C_8
REMARK    4  A    between atoms: C_17  and  C_18
REMARK                            x       y       z     vdW  Elec       q    Type
REMARK                         _______ _______ _______ _____ _____    ______ ____
ROOT
ATOM      1  C   UNL     1       4.676   4.460  18.006  0.00  0.00    +0.000 C 
ATOM      2  O   UNL     1       4.579   3.356  18.541  0.00  0.00    +0.000 OA
ATOM      3  N   UNL     1       4.070   5.609  18.554  0.00  0.00    +0.000 N 
ATOM      4  C   UNL     1       3.595   5.518  19.946  0.00  0.00    +0.000 C 
ATOM      5  C   UNL     1       2.084   5.685  20.096  0.00  0.00    +0.000 C 
ATOM      6  C   UNL     1       1.708   7.148  20.103  0.00  0.00    +0.000 A 
ATOM      7  N   UNL     1       1.261   7.639  21.278  0.00  0.00    +0.000 NA
ATOM      8  C   UNL     1       0.987   8.948  21.307  0.00  0.00    +0.000 A 
ATOM      9  N   UNL     1       1.118   9.803  20.287  0.00  0.00    +0.000 NA
ATOM     10  C   UNL     1       1.566   9.289  19.121  0.00  0.00    +0.000 A 
ATOM     11  C   UNL     1       1.714  10.280  18.002  0.00  0.00    +0.000 C 
ATOM     12  C   UNL     1       1.885   7.942  18.973  0.00  0.00    +0.000 A 
ATOM     13  C   UNL     1       2.431   7.351  17.707  0.00  0.00    +0.000 C 
ATOM     14  C   UNL     1       3.885   6.894  17.857  0.00  0.00    +0.000 C 
ENDROOT
BRANCH   1  19
ATOM     15  C   UNL     1       5.710   4.197  14.365  0.00  0.00    +0.000 A 
ATOM     16  C   UNL     1       7.040   4.610  14.450  0.00  0.00    +0.000 A 
ATOM     17  C   UNL     1       7.578   5.029  15.668  0.00  0.00    +0.000 A 
ATOM     18  C   UNL     1       6.799   4.977  16.824  0.00  0.00    +0.000 A 
ATOM     19  C   UNL     1       5.473   4.534  16.754  0.00  0.00    +0.000 A 
ATOM     20  C   UNL     1       4.912   4.235  15.508  0.00  0.00    +0.000 A 
BRANCH  15  22
ATOM     21  C   UNL     1       6.322   3.428  12.203  0.00  0.00    +0.000 C 
ATOM     22  O   UNL     1       5.298   3.769  13.132  0.00  0.00    +0.000 OA
ENDBRANCH  15  22
ENDBRANCH   1  19
TORSDOF 2
ENDMDL
MODEL 4
REMARK VINA RESULT:      -7.2      2.860      7.385
REMARK  Name = 
REMARK  4 active torsions:
REMARK  status: ('A' for Active; 'I' for Inactive)
REMARK    1  A    between atoms: C_1  and  O_2
REMARK    2  A    between atoms: O_2  and  C_3
REMARK    3  A    between atoms: C_7  and  C_8
REMARK    4  A    between atoms: C_17  and  C_18
REMARK                            x       y       z     vdW  Elec       q    Type
REMARK                         _______ _______ _______ _____ _____    ______ ____
ROOT
ATOM      1  C   UNL     1       1.918   5.753  20.061  0.00  0.00    +0.000 C 
ATOM      2  O   UNL     1       1.201   5.052  20.775  0.00  0.00    +0.000 OA
ATOM      3  N   UNL     1       1.885   7.160  20.126  0.00  0.00    +0.000 N 
ATOM      4  C   UNL     1       1.213   7.763  21.291  0.00  0.00    +0.000 C 
ATOM      5  C   UNL     1      -0.017   8.596  20.932  0.00  0.00    +0.000 C 
ATOM      6  C   UNL     1       0.389   9.984  20.496  0.00  0.00    +0.000 A 
ATOM      7  N   UNL     1       0.064  10.988  21.337  0.00  0.00    +0.000 NA
ATOM      8  C   UNL     1       0.477  12.211  20.986  0.00  0.00    +0.000 A 
ATOM      9  N   UNL     1       1.176  12.522  19.889  0.00  0.00    +0.000 NA
ATOM     10  C   UNL     1       1.489  11.502  19.062  0.00  0.00    +0.000 A 
ATOM     11  C   UNL     1       2.287  11.885  17.848  0.00  0.00    +0.000 C 
ATOM     12  C   UNL     1       1.114  10.187  19.324  0.00  0.00    +0.000 A 
ATOM     13  C   UNL     1       1.489   9.025  18.452  0.00  0.00    +0.000 C 
ATOM     14  C   UNL     1       2.477   8.077  19.135  0.00  0.00    +0.000 C 
ENDROOT
BRANCH   1  19
ATOM     15  C   UNL     1       5.059   4.369  18.444  0.00  0.00    +0.000 A 
ATOM     16  C   UNL     1       4.516   3.782  17.300  0.00  0.00    +0.000 A 
ATOM     17  C   UNL     1       3.137   3.782  17.087  0.00  0.00    +0.000 A 
ATOM     18  C   UNL     1       2.296   4.428  17.994  0.00  0.00    +0.000 A 
ATOM     19  C   UNL     1       2.833   5.047  19.128  0.00  0.00    +0.000 A 
ATOM     20  C   UNL     1       4.203   4.932  19.390  0.00  0.00    +0.000 A 
BRANCH  15  22
ATOM     21  C   UNL     1       7.142   4.638  17.337  0.00  0.00    +0.000 C 
ATOM     22  O   UNL     1       6.424   4.348  18.532  0.00  0.00    +0.000 OA
ENDBRANCH  15  22
ENDBRANCH   1  19
TORSDOF 2
ENDMDL
MODEL 5
REMARK VINA RESULT:      -7.1      1.063      1.932
REMARK  Name = 
REMARK  4 active torsions:
REMARK  status: ('A' for Active; 'I' for Inactive)
REMARK    1  A    between atoms: C_1  and  O_2
REMARK    2  A    between atoms: O_2  and  C_3
REMARK    3  A    between atoms: C_7  and  C_8
REMARK    4  A    between atoms: C_17  and  C_18
REMARK                            x       y       z     vdW  Elec       q    Type
REMARK                         _______ _______ _______ _____ _____    ______ ____
ROOT
ATOM      1  C   UNL     1       2.021   8.460  18.386  0.00  0.00    +0.000 C 
ATOM      2  O   UNL     1       2.385   8.862  17.281  0.00  0.00    +0.000 OA
ATOM      3  N   UNL     1       2.492   7.248  18.930  0.00  0.00    +0.000 N 
ATOM      4  C   UNL     1       3.673   6.639  18.291  0.00  0.00    +0.000 C 
ATOM      5  C   UNL     1       3.400   5.272  17.666  0.00  0.00    +0.000 C 
ATOM      6  C   UNL     1       3.456   4.187  18.715  0.00  0.00    +0.000 A 
ATOM      7  N   UNL     1       4.499   3.335  18.630  0.00  0.00    +0.000 NA
ATOM      8  C   UNL     1       4.588   2.411  19.594  0.00  0.00    +0.000 A 
ATOM      9  N   UNL     1       3.745   2.261  20.622  0.00  0.00    +0.000 NA
ATOM     10  C   UNL     1       2.709   3.124  20.685  0.00  0.00    +0.000 A 
ATOM     11  C   UNL     1       1.792   2.935  21.860  0.00  0.00    +0.000 C 
ATOM     12  C   UNL     1       2.515   4.127  19.740  0.00  0.00    +0.000 A 
ATOM     13  C   UNL     1       1.404   5.133  19.809  0.00  0.00    +0.000 C 
ATOM     14  C   UNL     1       1.913   6.548  20.090  0.00  0.00    +0.000 C 
ENDROOT
BRANCH   1  19
ATOM     15  C   UNL     1      -0.732  10.944  19.189  0.00  0.00    +0.000 A 
ATOM     16  C   UNL     1      -0.646  10.975  20.581  0.00  0.00    +0.000 A 
ATOM     17  C   UNL     1       0.256  10.151  21.256  0.00  0.00    +0.000 A 
ATOM     18  C   UNL     1       1.123   9.333  20.531  0.00  0.00    +0.000 A 
ATOM     19  C   UNL     1       1.066   9.318  19.133  0.00  0.00    +0.000 A 
ATOM     20  C   UNL     1       0.075  10.056  18.477  0.00  0.00    +0.000 A 
BRANCH  15  22
ATOM     21  C   UNL     1      -2.231  11.413  17.408  0.00  0.00    +0.000 C 
ATOM     22  O   UNL     1      -1.621  11.821  18.628  0.00  0.00    +0.000 OA
ENDBRANCH  15  22
ENDBRANCH   1  19
TORSDOF 2
ENDMDL
MODEL 6
REMARK VINA RESULT:      -7.1      1.336      1.972
REMARK  Name = 
REMARK  4 active torsions:
REMARK  status: ('A' for Active; 'I' for Inactive)
REMARK    1  A    between atoms: C_1  and  O_2
REMARK    2  A    between atoms: O_2  and  C_3
REMARK    3  A    between atoms: C_7  and  C_8
REMARK    4  A    between atoms: C_17  and  C_18
REMARK                            x       y       z     vdW  Elec       q    Type
REMARK                         _______ _______ _______ _____ _____    ______ ____
ROOT
ATOM      1  C   UNL     1       1.376   8.782  19.680  0.00  0.00    +0.000 C 
ATOM      2  O   UNL     1       1.465   9.445  18.647  0.00  0.00    +0.000 OA
ATOM      3  N   UNL     1       1.978   7.513  19.805  0.00  0.00    +0.000 N 
ATOM      4  C   UNL     1       2.983   7.144  18.793  0.00  0.00    +0.000 C 
ATOM      5  C   UNL     1       2.589   5.936  17.944  0.00  0.00    +0.000 C 
ATOM      6  C   UNL     1       2.903   4.650  18.670  0.00  0.00    +0.000 A 
ATOM      7  N   UNL     1       3.909   3.910  18.157  0.00  0.00    +0.000 NA
ATOM      8  C   UNL     1       4.234   2.802  18.832  0.00  0.00    +0.000 A 
ATOM      9  N   UNL     1       3.657   2.369  19.960  0.00  0.00    +0.000 NA
ATOM     10  C   UNL     1       2.653   3.125  20.454  0.00  0.00    +0.000 A 
ATOM     11  C   UNL     1       2.040   2.617  21.728  0.00  0.00    +0.000 C 
ATOM     12  C   UNL     1       2.230   4.299  19.838  0.00  0.00    +0.000 A 
ATOM     13  C   UNL     1       1.153   5.186  20.388  0.00  0.00    +0.000 C 
ATOM     14  C   UNL     1       1.696   6.534  20.870  0.00  0.00    +0.000 C 
ENDROOT
BRANCH   1  19
ATOM     15  C   UNL     1      -1.013  10.970  21.654  0.00  0.00    +0.000 A 
ATOM     16  C   UNL     1      -0.733  10.542  22.952  0.00  0.00    +0.000 A 
ATOM     17  C   UNL     1       0.177   9.509  23.179  0.00  0.00    +0.000 A 
ATOM     18  C   UNL     1       0.862   8.940  22.105  0.00  0.00    +0.000 A 
ATOM     19  C   UNL     1       0.611   9.385  20.802  0.00  0.00    +0.000 A 
ATOM     20  C   UNL     1      -0.393  10.333  20.580  0.00  0.00    +0.000 A 
BRANCH  15  22
ATOM     21  C   UNL     1      -2.637  12.337  22.718  0.00  0.00    +0.000 C 
ATOM     22  O   UNL     1      -1.890  12.015  21.549  0.00  0.00    +0.000 OA
ENDBRANCH  15  22
ENDBRANCH   1  19
TORSDOF 2
ENDMDL
MODEL 7
REMARK VINA RESULT:      -7.0      1.214      1.837
REMARK  Name = 
REMARK  4 active torsions:
REMARK  status: ('A' for Active; 'I' for Inactive)
REMARK    1  A    between atoms: C_1  and  O_2
REMARK    2  A    between atoms: O_2  and  C_3
REMARK    3  A    between atoms: C_7  and  C_8
REMARK    4  A    between atoms: C_17  and  C_18
REMARK                            x       y       z     vdW  Elec       q    Type
REMARK                         _______ _______ _______ _____ _____    ______ ____
ROOT
ATOM      1  C   UNL     1       1.459   8.736  19.421  0.00  0.00    +0.000 C 
ATOM      2  O   UNL     1       1.489   9.332  18.345  0.00  0.00    +0.000 OA
ATOM      3  N   UNL     1       2.071   7.479  19.595  0.00  0.00    +0.000 N 
ATOM      4  C   UNL     1       3.022   7.046  18.555  0.00  0.00    +0.000 C 
ATOM      5  C   UNL     1       2.588   5.786  17.808  0.00  0.00    +0.000 C 
ATOM      6  C   UNL     1       2.946   4.549  18.597  0.00  0.00    +0.000 A 
ATOM      7  N   UNL     1       3.926   3.779  18.078  0.00  0.00    +0.000 NA
ATOM      8  C   UNL     1       4.291   2.717  18.805  0.00  0.00    +0.000 A 
ATOM      9  N   UNL     1       3.778   2.357  19.987  0.00  0.00    +0.000 NA
ATOM     10  C   UNL     1       2.799   3.141  20.486  0.00  0.00    +0.000 A 
ATOM     11  C   UNL     1       2.257   2.716  21.821  0.00  0.00    +0.000 C 
ATOM     12  C   UNL     1       2.338   4.274  19.819  0.00  0.00    +0.000 A 
ATOM     13  C   UNL     1       1.289   5.194  20.369  0.00  0.00    +0.000 C 
ATOM     14  C   UNL     1       1.851   6.570  20.734  0.00  0.00    +0.000 C 
ENDROOT
BRANCH   1  19
ATOM     15  C   UNL     1       0.102  11.412  21.744  0.00  0.00    +0.000 A 
ATOM     16  C   UNL     1      -0.513  10.618  22.712  0.00  0.00    +0.000 A 
ATOM     17  C   UNL     1      -0.540   9.228  22.580  0.00  0.00    +0.000 A 
ATOM     18  C   UNL     1       0.106   8.623  21.502  0.00  0.00    +0.000 A 
ATOM     19  C   UNL     1       0.753   9.410  20.542  0.00  0.00    +0.000 A 
ATOM     20  C   UNL     1       0.665  10.803  20.623  0.00  0.00    +0.000 A 
BRANCH  15  22
ATOM     21  C   UNL     1       0.956  13.553  21.174  0.00  0.00    +0.000 C 
ATOM     22  O   UNL     1       0.105  12.758  21.994  0.00  0.00    +0.000 OA
ENDBRANCH  15  22
ENDBRANCH   1  19
TORSDOF 2
ENDMDL
MODEL 8
REMARK VINA RESULT:      -6.9      2.755      6.936
REMARK  Name = 
REMARK  4 active torsions:
REMARK  status: ('A' for Active; 'I' for Inactive)
REMARK    1  A    between atoms: C_1  and  O_2
REMARK    2  A    between atoms: O_2  and  C_3
REMARK    3  A    between atoms: C_7  and  C_8
REMARK    4  A    between atoms: C_17  and  C_18
REMARK                            x       y       z     vdW  Elec       q    Type
REMARK                         _______ _______ _______ _____ _____    ______ ____
ROOT
ATOM      1  C   UNL     1       2.721   7.665  17.914  0.00  0.00    +0.000 C 
ATOM      2  O   UNL     1       3.166   8.151  16.875  0.00  0.00    +0.000 OA
ATOM      3  N   UNL     1       1.790   8.353  18.719  0.00  0.00    +0.000 N 
ATOM      4  C   UNL     1       1.120   9.522  18.121  0.00  0.00    +0.000 C 
ATOM      5  C   UNL     1       1.429  10.840  18.830  0.00  0.00    +0.000 C 
ATOM      6  C   UNL     1       0.552  11.007  20.048  0.00  0.00    +0.000 A 
ATOM      7  N   UNL     1      -0.386  11.975  19.974  0.00  0.00    +0.000 NA
ATOM      8  C   UNL     1      -1.207  12.085  21.024  0.00  0.00    +0.000 A 
ATOM      9  N   UNL     1      -1.181  11.328  22.127  0.00  0.00    +0.000 NA
ATOM     10  C   UNL     1      -0.234  10.367  22.180  0.00  0.00    +0.000 A 
ATOM     11  C   UNL     1      -0.245   9.528  23.425  0.00  0.00    +0.000 C 
ATOM     12  C   UNL     1       0.674  10.158  21.145  0.00  0.00    +0.000 A 
ATOM     13  C   UNL     1       1.704   9.068  21.151  0.00  0.00    +0.000 C 
ATOM     14  C   UNL     1       1.422   7.992  20.099  0.00  0.00    +0.000 C 
ENDROOT
BRANCH   1  19
ATOM     15  C   UNL     1       4.952   4.804  19.023  0.00  0.00    +0.000 A 
ATOM     16  C   UNL     1       4.076   3.729  18.875  0.00  0.00    +0.000 A 
ATOM     17  C   UNL     1       2.755   3.938  18.478  0.00  0.00    +0.000 A 
ATOM     18  C   UNL     1       2.321   5.227  18.166  0.00  0.00    +0.000 A 
ATOM     19  C   UNL     1       3.202   6.308  18.281  0.00  0.00    +0.000 A 
ATOM     20  C   UNL     1       4.484   6.098  18.799  0.00  0.00    +0.000 A 
BRANCH  15  22
ATOM     21  C   UNL     1       7.191   5.536  19.329  0.00  0.00    +0.000 C 
ATOM     22  O   UNL     1       6.234   4.482  19.378  0.00  0.00    +0.000 OA
ENDBRANCH  15  22
ENDBRANCH   1  19
TORSDOF 2
ENDMDL
MODEL 9
REMARK VINA RESULT:      -6.8      2.627      6.856
REMARK  Name = 
REMARK  4 active torsions:
REMARK  status: ('A' for Active; 'I' for Inactive)
REMARK    1  A    between atoms: C_1  and  O_2
REMARK    2  A    between atoms: O_2  and  C_3
REMARK    3  A    between atoms: C_7  and  C_8
REMARK    4  A    between atoms: C_17  and  C_18
REMARK                            x       y       z     vdW  Elec       q    Type
REMARK                         _______ _______ _______ _____ _____    ______ ____
ROOT
ATOM      1  C   UNL     1       3.169   7.047  17.943  0.00  0.00    +0.000 C 
ATOM      2  O   UNL     1       3.761   7.446  16.940  0.00  0.00    +0.000 OA
ATOM      3  N   UNL     1       2.169   7.815  18.572  0.00  0.00    +0.000 N 
ATOM      4  C   UNL     1       1.623   8.957  17.815  0.00  0.00    +0.000 C 
ATOM      5  C   UNL     1       1.886  10.313  18.469  0.00  0.00    +0.000 C 
ATOM      6  C   UNL     1       0.867  10.590  19.548  0.00  0.00    +0.000 A 
ATOM      7  N   UNL     1      -0.018  11.575  19.288  0.00  0.00    +0.000 NA
ATOM      8  C   UNL     1      -0.962  11.782  20.213  0.00  0.00    +0.000 A 
ATOM      9  N   UNL     1      -1.104  11.105  21.358  0.00  0.00    +0.000 NA
ATOM     10  C   UNL     1      -0.207  10.125  21.597  0.00  0.00    +0.000 A 
ATOM     11  C   UNL     1      -0.407   9.377  22.885  0.00  0.00    +0.000 C 
ATOM     12  C   UNL     1       0.817   9.818  20.706  0.00  0.00    +0.000 A 
ATOM     13  C   UNL     1       1.799   8.704  20.919  0.00  0.00    +0.000 C 
ATOM     14  C   UNL     1       1.614   7.564  19.914  0.00  0.00    +0.000 C 
ENDROOT
BRANCH   1  19
ATOM     15  C   UNL     1       2.991   3.424  19.052  0.00  0.00    +0.000 A 
ATOM     16  C   UNL     1       4.293   3.238  19.518  0.00  0.00    +0.000 A 
ATOM     17  C   UNL     1       5.237   4.260  19.416  0.00  0.00    +0.000 A 
ATOM     18  C   UNL     1       4.862   5.501  18.900  0.00  0.00    +0.000 A 
ATOM     19  C   UNL     1       3.549   5.707  18.459  0.00  0.00    +0.000 A 
ATOM     20  C   UNL     1       2.650   4.636  18.454  0.00  0.00    +0.000 A 
BRANCH  15  22
ATOM     21  C   UNL     1       0.801   2.548  18.779  0.00  0.00    +0.000 C 
ATOM     22  O   UNL     1       2.137   2.370  19.238  0.00  0.00    +0.000 OA
ENDBRANCH  15  22
ENDBRANCH   1  19
TORSDOF 2
ENDMDL
