MODEL 1
REMARK VINA RESULT:      -8.0      0.000      0.000
REMARK  Name = 
REMARK  11 active torsions:
REMARK  status: ('A' for Active; 'I' for Inactive)
REMARK    1  A    between atoms: C_1  and  C_2
REMARK    2  A    between atoms: C_4  and  C_5
REMARK    3  A    between atoms: C_6  and  S_7
REMARK    4  A    between atoms: S_7  and  N_10
REMARK    5  A    between atoms: C_14  and  C_16
REMARK    6  A    between atoms: C_16  and  C_17
REMARK    7  A    between atoms: C_17  and  C_18
REMARK    8  A    between atoms: C_18  and  O_19
REMARK    9  A    between atoms: O_19  and  C_20
REMARK   10  A    between atoms: C_25  and  C_26
REMARK   11  A    between atoms: C_30  and  C_31
REMARK                            x       y       z     vdW  Elec       q    Type
REMARK                         _______ _______ _______ _____ _____    ______ ____
ROOT
ATOM      1  N   UNL     1      -0.015  10.317  20.077  0.00  0.00    +0.000 NA
ATOM      2  C   UNL     1       0.477   9.837  18.773  0.00  0.00    +0.000 C 
ATOM      3  C   UNL     1       1.769   9.052  18.981  0.00  0.00    +0.000 C 
ATOM      4  N   UNL     1       1.548   7.912  19.879  0.00  0.00    +0.000 N 
ATOM      5  C   UNL     1       2.245   6.746  19.599  0.00  0.00    +0.000 C 
ATOM      6  O   UNL     1       2.911   6.628  18.568  0.00  0.00    +0.000 OA
ATOM      7  C   UNL     1       0.949   8.255  21.176  0.00  0.00    +0.000 C 
ATOM      8  C   UNL     1      -0.202   9.282  21.109  0.00  0.00    +0.000 C 
ENDROOT
BRANCH   1   9
ATOM      9  S   UNL     1       0.030  11.959  20.422  0.00  0.00    +0.000 S 
ATOM     10  O   UNL     1       0.523  12.580  19.208  0.00  0.00    +0.000 OA
ATOM     11  O   UNL     1       0.695  12.169  21.681  0.00  0.00    +0.000 OA
BRANCH   9  17
ATOM     12  C   UNL     1      -5.931  13.220  21.396  0.00  0.00    +0.000 C 
ATOM     13  C   UNL     1      -4.479  12.920  21.168  0.00  0.00    +0.000 A 
ATOM     14  C   UNL     1      -3.522  13.136  22.153  0.00  0.00    +0.000 A 
ATOM     15  C   UNL     1      -2.154  12.876  21.925  0.00  0.00    +0.000 A 
ATOM     16  C   UNL     1      -1.229  13.176  23.074  0.00  0.00    +0.000 C 
ATOM     17  C   UNL     1      -1.733  12.368  20.662  0.00  0.00    +0.000 A 
ATOM     18  C   UNL     1      -2.693  12.210  19.634  0.00  0.00    +0.000 A 
ATOM     19  C   UNL     1      -2.443  11.858  18.191  0.00  0.00    +0.000 C 
ATOM     20  C   UNL     1      -4.055  12.451  19.927  0.00  0.00    +0.000 A 
ENDBRANCH   9  17
ENDBRANCH   1   9
BRANCH   5  21
ATOM     21  C   UNL     1       2.134   5.577  20.567  0.00  0.00    +0.000 C 
BRANCH  21  22
ATOM     22  C   UNL     1       1.863   4.267  19.825  0.00  0.00    +0.000 C 
BRANCH  22  23
ATOM     23  C   UNL     1       2.985   3.266  20.087  0.00  0.00    +0.000 C 
BRANCH  23  24
ATOM     24  O   UNL     1       3.591   2.895  18.853  0.00  0.00    +0.000 OA
BRANCH  24  25
ATOM     25  C   UNL     1       4.488   3.798  18.351  0.00  0.00    +0.000 A 
ATOM     26  C   UNL     1       5.334   4.380  19.295  0.00  0.00    +0.000 A 
ATOM     27  C   UNL     1       6.277   5.331  18.900  0.00  0.00    +0.000 A 
ATOM     28  C   UNL     1       6.381   5.713  17.557  0.00  0.00    +0.000 A 
ATOM     29 CL   UNL     1       7.561   6.902  17.156  0.00  0.00    +0.000 Cl
ATOM     30  C   UNL     1       5.542   5.137  16.593  0.00  0.00    +0.000 A 
ATOM     31  C   UNL     1       5.567   5.480  15.130  0.00  0.00    +0.000 C 
ATOM     32  C   UNL     1       4.604   4.177  17.009  0.00  0.00    +0.000 A 
ENDBRANCH  24  25
ENDBRANCH  23  24
ENDBRANCH  22  23
ENDBRANCH  21  22
ENDBRANCH   5  21
TORSDOF 7
ENDMDL
MODEL 2
REMARK VINA RESULT:      -8.0      0.783      1.313
REMARK  Name = 
REMARK  11 active torsions:
REMARK  status: ('A' for Active; 'I' for Inactive)
REMARK    1  A    between atoms: C_1  and  C_2
REMARK    2  A    between atoms: C_4  and  C_5
REMARK    3  A    between atoms: C_6  and  S_7
REMARK    4  A    between atoms: S_7  and  N_10
REMARK    5  A    between atoms: C_14  and  C_16
REMARK    6  A    between atoms: C_16  and  C_17
REMARK    7  A    between atoms: C_17  and  C_18
REMARK    8  A    between atoms: C_18  and  O_19
REMARK    9  A    between atoms: O_19  and  C_20
REMARK   10  A    between atoms: C_25  and  C_26
REMARK   11  A    between atoms: C_30  and  C_31
REMARK                            x       y       z     vdW  Elec       q    Type
REMARK                         _______ _______ _______ _____ _____    ______ ____
ROOT
ATOM      1  N   UNL     1      -0.062  10.372  20.134  0.00  0.00    +0.000 NA
ATOM      2  C   UNL     1       0.328   9.885  18.799  0.00  0.00    +0.000 C 
ATOM      3  C   UNL     1       1.682   9.189  18.892  0.00  0.00    +0.000 C 
ATOM      4  N   UNL     1       1.628   8.064  19.835  0.00  0.00    +0.000 N 
ATOM      5  C   UNL     1       2.367   6.936  19.513  0.00  0.00    +0.000 C 
ATOM      6  O   UNL     1       2.932   6.829  18.422  0.00  0.00    +0.000 OA
ATOM      7  C   UNL     1       1.141   8.407  21.178  0.00  0.00    +0.000 C 
ATOM      8  C   UNL     1      -0.076   9.358  21.204  0.00  0.00    +0.000 C 
ENDROOT
BRANCH   1   9
ATOM      9  S   UNL     1      -0.089  12.023  20.434  0.00  0.00    +0.000 S 
ATOM     10  O   UNL     1       0.344  12.634  19.192  0.00  0.00    +0.000 OA
ATOM     11  O   UNL     1       0.596  12.300  21.670  0.00  0.00    +0.000 OA
BRANCH   9  17
ATOM     12  C   UNL     1      -6.083  13.008  21.518  0.00  0.00    +0.000 C 
ATOM     13  C   UNL     1      -4.623  12.776  21.264  0.00  0.00    +0.000 A 
ATOM     14  C   UNL     1      -3.664  12.984  22.249  0.00  0.00    +0.000 A 
ATOM     15  C   UNL     1      -2.289  12.788  21.997  0.00  0.00    +0.000 A 
ATOM     16  C   UNL     1      -1.365  13.072  23.150  0.00  0.00    +0.000 C 
ATOM     17  C   UNL     1      -1.863  12.353  20.709  0.00  0.00    +0.000 A 
ATOM     18  C   UNL     1      -2.828  12.203  19.683  0.00  0.00    +0.000 A 
ATOM     19  C   UNL     1      -2.579  11.925  18.224  0.00  0.00    +0.000 C 
ATOM     20  C   UNL     1      -4.195  12.378  19.999  0.00  0.00    +0.000 A 
ENDBRANCH   9  17
ENDBRANCH   1   9
BRANCH   5  21
ATOM     21  C   UNL     1       2.430   5.792  20.514  0.00  0.00    +0.000 C 
BRANCH  21  22
ATOM     22  C   UNL     1       1.379   4.725  20.203  0.00  0.00    +0.000 C 
BRANCH  22  23
ATOM     23  C   UNL     1       1.916   3.735  19.173  0.00  0.00    +0.000 C 
BRANCH  23  24
ATOM     24  O   UNL     1       3.250   3.368  19.514  0.00  0.00    +0.000 OA
BRANCH  24  25
ATOM     25  C   UNL     1       4.209   3.769  18.624  0.00  0.00    +0.000 A 
ATOM     26  C   UNL     1       3.902   3.545  17.282  0.00  0.00    +0.000 A 
ATOM     27  C   UNL     1       4.814   3.897  16.286  0.00  0.00    +0.000 A 
ATOM     28  C   UNL     1       6.046   4.474  16.622  0.00  0.00    +0.000 A 
ATOM     29 CL   UNL     1       7.119   4.866  15.334  0.00  0.00    +0.000 Cl
ATOM     30  C   UNL     1       6.371   4.710  17.965  0.00  0.00    +0.000 A 
ATOM     31  C   UNL     1       7.663   5.316  18.432  0.00  0.00    +0.000 C 
ATOM     32  C   UNL     1       5.436   4.354  18.952  0.00  0.00    +0.000 A 
ENDBRANCH  24  25
ENDBRANCH  23  24
ENDBRANCH  22  23
ENDBRANCH  21  22
ENDBRANCH   5  21
TORSDOF 7
ENDMDL
MODEL 3
REMARK VINA RESULT:      -7.8      3.373     10.522
REMARK  Name = 
REMARK  11 active torsions:
REMARK  status: ('A' for Active; 'I' for Inactive)
REMARK    1  A    between atoms: C_1  and  C_2
REMARK    2  A    between atoms: C_4  and  C_5
REMARK    3  A    between atoms: C_6  and  S_7
REMARK    4  A    between atoms: S_7  and  N_10
REMARK    5  A    between atoms: C_14  and  C_16
REMARK    6  A    between atoms: C_16  and  C_17
REMARK    7  A    between atoms: C_17  and  C_18
REMARK    8  A    between atoms: C_18  and  O_19
REMARK    9  A    between atoms: O_19  and  C_20
REMARK   10  A    between atoms: C_25  and  C_26
REMARK   11  A    between atoms: C_30  and  C_31
REMARK                            x       y       z     vdW  Elec       q    Type
REMARK                         _______ _______ _______ _____ _____    ______ ____
ROOT
ATOM      1  N   UNL     1       3.266   5.839  18.787  0.00  0.00    +0.000 NA
ATOM      2  C   UNL     1       2.235   5.883  19.839  0.00  0.00    +0.000 C 
ATOM      3  C   UNL     1       2.138   7.302  20.391  0.00  0.00    +0.000 C 
ATOM      4  N   UNL     1       1.802   8.255  19.326  0.00  0.00    +0.000 N 
ATOM      5  C   UNL     1       0.962   9.304  19.663  0.00  0.00    +0.000 C 
ATOM      6  O   UNL     1       0.412   9.359  20.765  0.00  0.00    +0.000 OA
ATOM      7  C   UNL     1       2.700   8.223  18.163  0.00  0.00    +0.000 C 
ATOM      8  C   UNL     1       3.099   6.809  17.690  0.00  0.00    +0.000 C 
ENDROOT
BRANCH   1   9
ATOM      9  S   UNL     1       4.697   5.010  19.069  0.00  0.00    +0.000 S 
ATOM     10  O   UNL     1       4.289   3.761  19.683  0.00  0.00    +0.000 OA
ATOM     11  O   UNL     1       5.638   5.881  19.725  0.00  0.00    +0.000 OA
BRANCH   9  17
ATOM     12  C   UNL     1       6.839   4.174  13.343  0.00  0.00    +0.000 C 
ATOM     13  C   UNL     1       6.329   4.379  14.739  0.00  0.00    +0.000 A 
ATOM     14  C   UNL     1       7.071   5.060  15.698  0.00  0.00    +0.000 A 
ATOM     15  C   UNL     1       6.598   5.229  17.017  0.00  0.00    +0.000 A 
ATOM     16  C   UNL     1       7.515   5.967  17.953  0.00  0.00    +0.000 C 
ATOM     17  C   UNL     1       5.324   4.704  17.382  0.00  0.00    +0.000 A 
ATOM     18  C   UNL     1       4.595   3.952  16.430  0.00  0.00    +0.000 A 
ATOM     19  C   UNL     1       3.327   3.172  16.653  0.00  0.00    +0.000 C 
ATOM     20  C   UNL     1       5.099   3.844  15.113  0.00  0.00    +0.000 A 
ENDBRANCH   9  17
ENDBRANCH   1   9
BRANCH   5  21
ATOM     21  C   UNL     1       0.677  10.378  18.622  0.00  0.00    +0.000 C 
BRANCH  21  22
ATOM     22  C   UNL     1      -0.827  10.582  18.433  0.00  0.00    +0.000 C 
BRANCH  22  23
ATOM     23  C   UNL     1      -1.180  12.063  18.536  0.00  0.00    +0.000 C 
BRANCH  23  24
ATOM     24  O   UNL     1      -0.684  12.588  19.764  0.00  0.00    +0.000 OA
BRANCH  24  25
ATOM     25  C   UNL     1      -1.570  12.564  20.806  0.00  0.00    +0.000 A 
ATOM     26  C   UNL     1      -1.011  12.286  22.054  0.00  0.00    +0.000 A 
ATOM     27  C   UNL     1      -1.823  12.217  23.186  0.00  0.00    +0.000 A 
ATOM     28  C   UNL     1      -3.205  12.421  23.083  0.00  0.00    +0.000 A 
ATOM     29 CL   UNL     1      -4.137  12.305  24.527  0.00  0.00    +0.000 Cl
ATOM     30  C   UNL     1      -3.785  12.704  21.839  0.00  0.00    +0.000 A 
ATOM     31  C   UNL     1      -5.254  12.934  21.619  0.00  0.00    +0.000 C 
ATOM     32  C   UNL     1      -2.950  12.776  20.711  0.00  0.00    +0.000 A 
ENDBRANCH  24  25
ENDBRANCH  23  24
ENDBRANCH  22  23
ENDBRANCH  21  22
ENDBRANCH   5  21
TORSDOF 7
ENDMDL
MODEL 4
REMARK VINA RESULT:      -7.6      3.390     10.287
REMARK  Name = 
REMARK  11 active torsions:
REMARK  status: ('A' for Active; 'I' for Inactive)
REMARK    1  A    between atoms: C_1  and  C_2
REMARK    2  A    between atoms: C_4  and  C_5
REMARK    3  A    between atoms: C_6  and  S_7
REMARK    4  A    between atoms: S_7  and  N_10
REMARK    5  A    between atoms: C_14  and  C_16
REMARK    6  A    between atoms: C_16  and  C_17
REMARK    7  A    between atoms: C_17  and  C_18
REMARK    8  A    between atoms: C_18  and  O_19
REMARK    9  A    between atoms: O_19  and  C_20
REMARK   10  A    between atoms: C_25  and  C_26
REMARK   11  A    between atoms: C_30  and  C_31
REMARK                            x       y       z     vdW  Elec       q    Type
REMARK                         _______ _______ _______ _____ _____    ______ ____
ROOT
ATOM      1  N   UNL     1       3.542   5.440  18.975  0.00  0.00    +0.000 NA
ATOM      2  C   UNL     1       2.572   5.209  20.060  0.00  0.00    +0.000 C 
ATOM      3  C   UNL     1       2.378   6.501  20.846  0.00  0.00    +0.000 C 
ATOM      4  N   UNL     1       1.898   7.578  19.972  0.00  0.00    +0.000 N 
ATOM      5  C   UNL     1       0.985   8.470  20.513  0.00  0.00    +0.000 C 
ATOM      6  O   UNL     1       0.495   8.289  21.630  0.00  0.00    +0.000 OA
ATOM      7  C   UNL     1       2.728   7.827  18.785  0.00  0.00    +0.000 C 
ATOM      8  C   UNL     1       3.227   6.555  18.064  0.00  0.00    +0.000 C 
ENDROOT
BRANCH   1   9
ATOM      9  S   UNL     1       5.056   4.722  19.056  0.00  0.00    +0.000 S 
ATOM     10  O   UNL     1       4.809   3.389  19.570  0.00  0.00    +0.000 OA
ATOM     11  O   UNL     1       5.976   5.609  19.720  0.00  0.00    +0.000 OA
BRANCH   9  17
ATOM     12  C   UNL     1       6.754   4.224  13.145  0.00  0.00    +0.000 C 
ATOM     13  C   UNL     1       6.331   4.342  14.579  0.00  0.00    +0.000 A 
ATOM     14  C   UNL     1       5.217   3.672  15.073  0.00  0.00    +0.000 A 
ATOM     15  C   UNL     1       4.808   3.805  16.416  0.00  0.00    +0.000 A 
ATOM     16  C   UNL     1       3.573   3.038  16.805  0.00  0.00    +0.000 C 
ATOM     17  C   UNL     1       5.555   4.634  17.302  0.00  0.00    +0.000 A 
ATOM     18  C   UNL     1       6.650   5.372  16.790  0.00  0.00    +0.000 A 
ATOM     19  C   UNL     1       7.459   6.425  17.499  0.00  0.00    +0.000 C 
ATOM     20  C   UNL     1       7.038   5.173  15.445  0.00  0.00    +0.000 A 
ENDBRANCH   9  17
ENDBRANCH   1   9
BRANCH   5  21
ATOM     21  C   UNL     1       0.547   9.666  19.681  0.00  0.00    +0.000 C 
BRANCH  21  22
ATOM     22  C   UNL     1       0.549  10.951  20.512  0.00  0.00    +0.000 C 
BRANCH  22  23
ATOM     23  C   UNL     1       0.725  12.168  19.609  0.00  0.00    +0.000 C 
BRANCH  23  24
ATOM     24  O   UNL     1      -0.410  13.020  19.730  0.00  0.00    +0.000 OA
BRANCH  24  25
ATOM     25  C   UNL     1      -1.559  12.542  19.162  0.00  0.00    +0.000 A 
ATOM     26  C   UNL     1      -2.702  12.653  19.953  0.00  0.00    +0.000 A 
ATOM     27  C   UNL     1      -3.928  12.181  19.483  0.00  0.00    +0.000 A 
ATOM     28  C   UNL     1      -4.024  11.588  18.218  0.00  0.00    +0.000 A 
ATOM     29 CL   UNL     1      -5.572  11.020  17.720  0.00  0.00    +0.000 Cl
ATOM     30  C   UNL     1      -2.887  11.471  17.407  0.00  0.00    +0.000 A 
ATOM     31  C   UNL     1      -2.880  10.848  16.039  0.00  0.00    +0.000 C 
ATOM     32  C   UNL     1      -1.663  11.958  17.895  0.00  0.00    +0.000 A 
ENDBRANCH  24  25
ENDBRANCH  23  24
ENDBRANCH  22  23
ENDBRANCH  21  22
ENDBRANCH   5  21
TORSDOF 7
ENDMDL
MODEL 5
REMARK VINA RESULT:      -7.5      3.481     10.426
REMARK  Name = 
REMARK  11 active torsions:
REMARK  status: ('A' for Active; 'I' for Inactive)
REMARK    1  A    between atoms: C_1  and  C_2
REMARK    2  A    between atoms: C_4  and  C_5
REMARK    3  A    between atoms: C_6  and  S_7
REMARK    4  A    between atoms: S_7  and  N_10
REMARK    5  A    between atoms: C_14  and  C_16
REMARK    6  A    between atoms: C_16  and  C_17
REMARK    7  A    between atoms: C_17  and  C_18
REMARK    8  A    between atoms: C_18  and  O_19
REMARK    9  A    between atoms: O_19  and  C_20
REMARK   10  A    between atoms: C_25  and  C_26
REMARK   11  A    between atoms: C_30  and  C_31
REMARK                            x       y       z     vdW  Elec       q    Type
REMARK                         _______ _______ _______ _____ _____    ______ ____
ROOT
ATOM      1  N   UNL     1       3.293   5.571  18.962  0.00  0.00    +0.000 NA
ATOM      2  C   UNL     1       2.291   5.554  20.042  0.00  0.00    +0.000 C 
ATOM      3  C   UNL     1       2.191   6.945  20.660  0.00  0.00    +0.000 C 
ATOM      4  N   UNL     1       1.814   7.940  19.648  0.00  0.00    +0.000 N 
ATOM      5  C   UNL     1       0.969   8.962  20.054  0.00  0.00    +0.000 C 
ATOM      6  O   UNL     1       0.449   8.959  21.172  0.00  0.00    +0.000 OA
ATOM      7  C   UNL     1       2.680   7.973  18.461  0.00  0.00    +0.000 C 
ATOM      8  C   UNL     1       3.084   6.587  17.914  0.00  0.00    +0.000 C 
ENDROOT
BRANCH   1   9
ATOM      9  S   UNL     1       4.742   4.751  19.168  0.00  0.00    +0.000 S 
ATOM     10  O   UNL     1       4.371   3.488  19.777  0.00  0.00    +0.000 OA
ATOM     11  O   UNL     1       5.703   5.619  19.798  0.00  0.00    +0.000 OA
BRANCH   9  17
ATOM     12  C   UNL     1       6.660   4.027  13.348  0.00  0.00    +0.000 C 
ATOM     13  C   UNL     1       6.205   4.204  14.767  0.00  0.00    +0.000 A 
ATOM     14  C   UNL     1       7.024   4.774  15.734  0.00  0.00    +0.000 A 
ATOM     15  C   UNL     1       6.601   4.916  17.073  0.00  0.00    +0.000 A 
ATOM     16  C   UNL     1       7.599   5.531  18.015  0.00  0.00    +0.000 C 
ATOM     17  C   UNL     1       5.298   4.478  17.451  0.00  0.00    +0.000 A 
ATOM     18  C   UNL     1       4.485   3.835  16.486  0.00  0.00    +0.000 A 
ATOM     19  C   UNL     1       3.164   3.150  16.710  0.00  0.00    +0.000 C 
ATOM     20  C   UNL     1       4.945   3.752  15.151  0.00  0.00    +0.000 A 
ENDBRANCH   9  17
ENDBRANCH   1   9
BRANCH   5  21
ATOM     21  C   UNL     1       0.643  10.077  19.071  0.00  0.00    +0.000 C 
BRANCH  21  22
ATOM     22  C   UNL     1       0.928  11.452  19.678  0.00  0.00    +0.000 C 
BRANCH  22  23
ATOM     23  C   UNL     1      -0.029  12.494  19.107  0.00  0.00    +0.000 C 
BRANCH  23  24
ATOM     24  O   UNL     1      -1.152  12.636  19.973  0.00  0.00    +0.000 OA
BRANCH  24  25
ATOM     25  C   UNL     1      -2.361  12.330  19.411  0.00  0.00    +0.000 A 
ATOM     26  C   UNL     1      -3.474  12.639  20.194  0.00  0.00    +0.000 A 
ATOM     27  C   UNL     1      -4.758  12.354  19.730  0.00  0.00    +0.000 A 
ATOM     28  C   UNL     1      -4.945  11.752  18.479  0.00  0.00    +0.000 A 
ATOM     29 CL   UNL     1      -6.562  11.422  17.988  0.00  0.00    +0.000 Cl
ATOM     30  C   UNL     1      -3.840  11.437  17.677  0.00  0.00    +0.000 A 
ATOM     31  C   UNL     1      -3.930  10.786  16.325  0.00  0.00    +0.000 C 
ATOM     32  C   UNL     1      -2.555  11.738  18.159  0.00  0.00    +0.000 A 
ENDBRANCH  24  25
ENDBRANCH  23  24
ENDBRANCH  22  23
ENDBRANCH  21  22
ENDBRANCH   5  21
TORSDOF 7
ENDMDL
MODEL 6
REMARK VINA RESULT:      -7.5      1.027      1.882
REMARK  Name = 
REMARK  11 active torsions:
REMARK  status: ('A' for Active; 'I' for Inactive)
REMARK    1  A    between atoms: C_1  and  C_2
REMARK    2  A    between atoms: C_4  and  C_5
REMARK    3  A    between atoms: C_6  and  S_7
REMARK    4  A    between atoms: S_7  and  N_10
REMARK    5  A    between atoms: C_14  and  C_16
REMARK    6  A    between atoms: C_16  and  C_17
REMARK    7  A    between atoms: C_17  and  C_18
REMARK    8  A    between atoms: C_18  and  O_19
REMARK    9  A    between atoms: O_19  and  C_20
REMARK   10  A    between atoms: C_25  and  C_26
REMARK   11  A    between atoms: C_30  and  C_31
REMARK                            x       y       z     vdW  Elec       q    Type
REMARK                         _______ _______ _______ _____ _____    ______ ____
ROOT
ATOM      1  N   UNL     1      -0.576  10.817  19.772  0.00  0.00    +0.000 NA
ATOM      2  C   UNL     1      -0.201  10.214  18.481  0.00  0.00    +0.000 C 
ATOM      3  C   UNL     1       1.216   9.657  18.577  0.00  0.00    +0.000 C 
ATOM      4  N   UNL     1       1.311   8.650  19.642  0.00  0.00    +0.000 N 
ATOM      5  C   UNL     1       2.139   7.563  19.409  0.00  0.00    +0.000 C 
ATOM      6  O   UNL     1       2.663   7.379  18.308  0.00  0.00    +0.000 OA
ATOM      7  C   UNL     1       0.853   9.103  20.963  0.00  0.00    +0.000 C 
ATOM      8  C   UNL     1      -0.446   9.938  20.948  0.00  0.00    +0.000 C 
ENDROOT
BRANCH   1   9
ATOM      9  S   UNL     1      -0.747  12.482  19.886  0.00  0.00    +0.000 S 
ATOM     10  O   UNL     1      -0.894  12.935  18.516  0.00  0.00    +0.000 OA
ATOM     11  O   UNL     1       0.288  13.016  20.733  0.00  0.00    +0.000 OA
BRANCH   9  17
ATOM     12  C   UNL     1      -6.155  13.229  22.763  0.00  0.00    +0.000 C 
ATOM     13  C   UNL     1      -4.845  13.040  22.055  0.00  0.00    +0.000 A 
ATOM     14  C   UNL     1      -4.780  12.630  20.729  0.00  0.00    +0.000 A 
ATOM     15  C   UNL     1      -3.546  12.430  20.075  0.00  0.00    +0.000 A 
ATOM     16  C   UNL     1      -3.628  11.965  18.646  0.00  0.00    +0.000 C 
ATOM     17  C   UNL     1      -2.329  12.664  20.779  0.00  0.00    +0.000 A 
ATOM     18  C   UNL     1      -2.388  13.016  22.149  0.00  0.00    +0.000 A 
ATOM     19  C   UNL     1      -1.239  13.139  23.114  0.00  0.00    +0.000 C 
ATOM     20  C   UNL     1      -3.651  13.238  22.745  0.00  0.00    +0.000 A 
ENDBRANCH   9  17
ENDBRANCH   1   9
BRANCH   5  21
ATOM     21  C   UNL     1       2.355   6.554  20.527  0.00  0.00    +0.000 C 
BRANCH  21  22
ATOM     22  C   UNL     1       1.355   5.400  20.434  0.00  0.00    +0.000 C 
BRANCH  22  23
ATOM     23  C   UNL     1       2.089   4.068  20.319  0.00  0.00    +0.000 C 
BRANCH  23  24
ATOM     24  O   UNL     1       2.226   3.715  18.946  0.00  0.00    +0.000 OA
BRANCH  24  25
ATOM     25  C   UNL     1       3.468   3.929  18.412  0.00  0.00    +0.000 A 
ATOM     26  C   UNL     1       4.497   4.073  19.344  0.00  0.00    +0.000 A 
ATOM     27  C   UNL     1       5.803   4.314  18.914  0.00  0.00    +0.000 A 
ATOM     28  C   UNL     1       6.094   4.418  17.548  0.00  0.00    +0.000 A 
ATOM     29 CL   UNL     1       7.728   4.729  17.104  0.00  0.00    +0.000 Cl
ATOM     30  C   UNL     1       5.075   4.272  16.597  0.00  0.00    +0.000 A 
ATOM     31  C   UNL     1       5.278   4.371  15.112  0.00  0.00    +0.000 C 
ATOM     32  C   UNL     1       3.767   4.024  17.049  0.00  0.00    +0.000 A 
ENDBRANCH  24  25
ENDBRANCH  23  24
ENDBRANCH  22  23
ENDBRANCH  21  22
ENDBRANCH   5  21
TORSDOF 7
ENDMDL
MODEL 7
REMARK VINA RESULT:      -7.5      3.448     10.540
REMARK  Name = 
REMARK  11 active torsions:
REMARK  status: ('A' for Active; 'I' for Inactive)
REMARK    1  A    between atoms: C_1  and  C_2
REMARK    2  A    between atoms: C_4  and  C_5
REMARK    3  A    between atoms: C_6  and  S_7
REMARK    4  A    between atoms: S_7  and  N_10
REMARK    5  A    between atoms: C_14  and  C_16
REMARK    6  A    between atoms: C_16  and  C_17
REMARK    7  A    between atoms: C_17  and  C_18
REMARK    8  A    between atoms: C_18  and  O_19
REMARK    9  A    between atoms: O_19  and  C_20
REMARK   10  A    between atoms: C_25  and  C_26
REMARK   11  A    between atoms: C_30  and  C_31
REMARK                            x       y       z     vdW  Elec       q    Type
REMARK                         _______ _______ _______ _____ _____    ______ ____
ROOT
ATOM      1  N   UNL     1       3.430   5.541  18.893  0.00  0.00    +0.000 NA
ATOM      2  C   UNL     1       2.430   5.344  19.957  0.00  0.00    +0.000 C 
ATOM      3  C   UNL     1       2.238   6.653  20.717  0.00  0.00    +0.000 C 
ATOM      4  N   UNL     1       1.797   7.723  19.813  0.00  0.00    +0.000 N 
ATOM      5  C   UNL     1       0.887   8.638  20.317  0.00  0.00    +0.000 C 
ATOM      6  O   UNL     1       0.367   8.484  21.425  0.00  0.00    +0.000 OA
ATOM      7  C   UNL     1       2.660   7.937  18.643  0.00  0.00    +0.000 C 
ATOM      8  C   UNL     1       3.156   6.646  17.956  0.00  0.00    +0.000 C 
ENDROOT
BRANCH   1   9
ATOM      9  S   UNL     1       4.929   4.800  19.023  0.00  0.00    +0.000 S 
ATOM     10  O   UNL     1       4.645   3.473  19.535  0.00  0.00    +0.000 OA
ATOM     11  O   UNL     1       5.842   5.676  19.712  0.00  0.00    +0.000 OA
BRANCH   9  17
ATOM     12  C   UNL     1       6.800   4.251  13.169  0.00  0.00    +0.000 C 
ATOM     13  C   UNL     1       6.334   4.381  14.589  0.00  0.00    +0.000 A 
ATOM     14  C   UNL     1       5.198   3.728  15.051  0.00  0.00    +0.000 A 
ATOM     15  C   UNL     1       4.749   3.873  16.381  0.00  0.00    +0.000 A 
ATOM     16  C   UNL     1       3.493   3.124  16.736  0.00  0.00    +0.000 C 
ATOM     17  C   UNL     1       5.480   4.697  17.286  0.00  0.00    +0.000 A 
ATOM     18  C   UNL     1       6.599   5.418  16.804  0.00  0.00    +0.000 A 
ATOM     19  C   UNL     1       7.400   6.465  17.532  0.00  0.00    +0.000 C 
ATOM     20  C   UNL     1       7.026   5.208  15.472  0.00  0.00    +0.000 A 
ENDBRANCH   9  17
ENDBRANCH   1   9
BRANCH   5  21
ATOM     21  C   UNL     1       0.489   9.827  19.454  0.00  0.00    +0.000 C 
BRANCH  21  22
ATOM     22  C   UNL     1       0.976  11.143  20.065  0.00  0.00    +0.000 C 
BRANCH  22  23
ATOM     23  C   UNL     1      -0.201  12.082  20.309  0.00  0.00    +0.000 C 
BRANCH  23  24
ATOM     24  O   UNL     1      -0.775  12.463  19.062  0.00  0.00    +0.000 OA
BRANCH  24  25
ATOM     25  C   UNL     1      -2.108  12.184  18.927  0.00  0.00    +0.000 A 
ATOM     26  C   UNL     1      -2.459  11.522  17.750  0.00  0.00    +0.000 A 
ATOM     27  C   UNL     1      -3.793  11.203  17.496  0.00  0.00    +0.000 A 
ATOM     28  C   UNL     1      -4.793  11.547  18.415  0.00  0.00    +0.000 A 
ATOM     29 CL   UNL     1      -6.416  11.129  18.018  0.00  0.00    +0.000 Cl
ATOM     30  C   UNL     1      -4.460  12.209  19.604  0.00  0.00    +0.000 A 
ATOM     31  C   UNL     1      -5.454  12.627  20.651  0.00  0.00    +0.000 C 
ATOM     32  C   UNL     1      -3.110  12.516  19.845  0.00  0.00    +0.000 A 
ENDBRANCH  24  25
ENDBRANCH  23  24
ENDBRANCH  22  23
ENDBRANCH  21  22
ENDBRANCH   5  21
TORSDOF 7
ENDMDL
MODEL 8
REMARK VINA RESULT:      -7.5      3.627     10.896
REMARK  Name = 
REMARK  11 active torsions:
REMARK  status: ('A' for Active; 'I' for Inactive)
REMARK    1  A    between atoms: C_1  and  C_2
REMARK    2  A    between atoms: C_4  and  C_5
REMARK    3  A    between atoms: C_6  and  S_7
REMARK    4  A    between atoms: S_7  and  N_10
REMARK    5  A    between atoms: C_14  and  C_16
REMARK    6  A    between atoms: C_16  and  C_17
REMARK    7  A    between atoms: C_17  and  C_18
REMARK    8  A    between atoms: C_18  and  O_19
REMARK    9  A    between atoms: O_19  and  C_20
REMARK   10  A    between atoms: C_25  and  C_26
REMARK   11  A    between atoms: C_30  and  C_31
REMARK                            x       y       z     vdW  Elec       q    Type
REMARK                         _______ _______ _______ _____ _____    ______ ____
ROOT
ATOM      1  N   UNL     1       3.356   5.670  18.887  0.00  0.00    +0.000 NA
ATOM      2  C   UNL     1       2.352   5.548  19.959  0.00  0.00    +0.000 C 
ATOM      3  C   UNL     1       2.206   6.890  20.668  0.00  0.00    +0.000 C 
ATOM      4  N   UNL     1       1.800   7.939  19.725  0.00  0.00    +0.000 N 
ATOM      5  C   UNL     1       0.923   8.904  20.195  0.00  0.00    +0.000 C 
ATOM      6  O   UNL     1       0.400   8.809  21.308  0.00  0.00    +0.000 OA
ATOM      7  C   UNL     1       2.668   8.079  18.547  0.00  0.00    +0.000 C 
ATOM      8  C   UNL     1       3.117   6.747  17.909  0.00  0.00    +0.000 C 
ENDROOT
BRANCH   1   9
ATOM      9  S   UNL     1       4.829   4.884  19.044  0.00  0.00    +0.000 S 
ATOM     10  O   UNL     1       4.498   3.573  19.569  0.00  0.00    +0.000 OA
ATOM     11  O   UNL     1       5.762   5.739  19.731  0.00  0.00    +0.000 OA
BRANCH   9  17
ATOM     12  C   UNL     1       6.750   4.196  13.220  0.00  0.00    +0.000 C 
ATOM     13  C   UNL     1       6.272   4.360  14.633  0.00  0.00    +0.000 A 
ATOM     14  C   UNL     1       5.127   3.725  15.098  0.00  0.00    +0.000 A 
ATOM     15  C   UNL     1       4.667   3.901  16.421  0.00  0.00    +0.000 A 
ATOM     16  C   UNL     1       3.403   3.169  16.779  0.00  0.00    +0.000 C 
ATOM     17  C   UNL     1       5.395   4.739  17.314  0.00  0.00    +0.000 A 
ATOM     18  C   UNL     1       6.524   5.442  16.827  0.00  0.00    +0.000 A 
ATOM     19  C   UNL     1       7.325   6.499  17.540  0.00  0.00    +0.000 C 
ATOM     20  C   UNL     1       6.961   5.200  15.504  0.00  0.00    +0.000 A 
ENDBRANCH   9  17
ENDBRANCH   1   9
BRANCH   5  21
ATOM     21  C   UNL     1       0.564  10.072  19.288  0.00  0.00    +0.000 C 
BRANCH  21  22
ATOM     22  C   UNL     1      -0.874  10.537  19.527  0.00  0.00    +0.000 C 
BRANCH  22  23
ATOM     23  C   UNL     1      -1.010  12.024  19.211  0.00  0.00    +0.000 C 
BRANCH  23  24
ATOM     24  O   UNL     1      -1.106  12.763  20.425  0.00  0.00    +0.000 OA
BRANCH  24  25
ATOM     25  C   UNL     1      -2.338  12.745  21.021  0.00  0.00    +0.000 A 
ATOM     26  C   UNL     1      -3.418  12.900  20.153  0.00  0.00    +0.000 A 
ATOM     27  C   UNL     1      -4.721  12.916  20.651  0.00  0.00    +0.000 A 
ATOM     28  C   UNL     1      -4.958  12.783  22.026  0.00  0.00    +0.000 A 
ATOM     29 CL   UNL     1      -6.595  12.828  22.559  0.00  0.00    +0.000 Cl
ATOM     30  C   UNL     1      -3.886  12.624  22.914  0.00  0.00    +0.000 A 
ATOM     31  C   UNL     1      -4.030  12.479  24.402  0.00  0.00    +0.000 C 
ATOM     32  C   UNL     1      -2.581  12.603  22.391  0.00  0.00    +0.000 A 
ENDBRANCH  24  25
ENDBRANCH  23  24
ENDBRANCH  22  23
ENDBRANCH  21  22
ENDBRANCH   5  21
TORSDOF 7
ENDMDL
MODEL 9
REMARK VINA RESULT:      -7.5      3.608     10.658
REMARK  Name = 
REMARK  11 active torsions:
REMARK  status: ('A' for Active; 'I' for Inactive)
REMARK    1  A    between atoms: C_1  and  C_2
REMARK    2  A    between atoms: C_4  and  C_5
REMARK    3  A    between atoms: C_6  and  S_7
REMARK    4  A    between atoms: S_7  and  N_10
REMARK    5  A    between atoms: C_14  and  C_16
REMARK    6  A    between atoms: C_16  and  C_17
REMARK    7  A    between atoms: C_17  and  C_18
REMARK    8  A    between atoms: C_18  and  O_19
REMARK    9  A    between atoms: O_19  and  C_20
REMARK   10  A    between atoms: C_25  and  C_26
REMARK   11  A    between atoms: C_30  and  C_31
REMARK                            x       y       z     vdW  Elec       q    Type
REMARK                         _______ _______ _______ _____ _____    ______ ____
ROOT
ATOM      1  N   UNL     1       3.331   5.744  18.858  0.00  0.00    +0.000 NA
ATOM      2  C   UNL     1       2.329   5.727  19.939  0.00  0.00    +0.000 C 
ATOM      3  C   UNL     1       2.216   7.124  20.543  0.00  0.00    +0.000 C 
ATOM      4  N   UNL     1       1.829   8.105  19.522  0.00  0.00    +0.000 N 
ATOM      5  C   UNL     1       0.974   9.122  19.918  0.00  0.00    +0.000 C 
ATOM      6  O   UNL     1       0.455   9.126  21.036  0.00  0.00    +0.000 OA
ATOM      7  C   UNL     1       2.693   8.134  18.334  0.00  0.00    +0.000 C 
ATOM      8  C   UNL     1       3.111   6.747  17.801  0.00  0.00    +0.000 C 
ENDROOT
BRANCH   1   9
ATOM      9  S   UNL     1       4.788   4.940  19.072  0.00  0.00    +0.000 S 
ATOM     10  O   UNL     1       4.423   3.649  19.621  0.00  0.00    +0.000 OA
ATOM     11  O   UNL     1       5.716   5.799  19.760  0.00  0.00    +0.000 OA
BRANCH   9  17
ATOM     12  C   UNL     1       6.844   4.077  13.318  0.00  0.00    +0.000 C 
ATOM     13  C   UNL     1       6.334   4.283  14.714  0.00  0.00    +0.000 A 
ATOM     14  C   UNL     1       5.181   3.656  15.174  0.00  0.00    +0.000 A 
ATOM     15  C   UNL     1       4.691   3.872  16.479  0.00  0.00    +0.000 A 
ATOM     16  C   UNL     1       3.423   3.144  16.833  0.00  0.00    +0.000 C 
ATOM     17  C   UNL     1       5.394   4.744  17.361  0.00  0.00    +0.000 A 
ATOM     18  C   UNL     1       6.529   5.437  16.877  0.00  0.00    +0.000 A 
ATOM     19  C   UNL     1       7.308   6.522  17.574  0.00  0.00    +0.000 C 
ATOM     20  C   UNL     1       6.998   5.156  15.573  0.00  0.00    +0.000 A 
ENDBRANCH   9  17
ENDBRANCH   1   9
BRANCH   5  21
ATOM     21  C   UNL     1       0.636  10.224  18.924  0.00  0.00    +0.000 C 
BRANCH  21  22
ATOM     22  C   UNL     1       0.891  11.608  19.523  0.00  0.00    +0.000 C 
BRANCH  22  23
ATOM     23  C   UNL     1      -0.384  12.444  19.490  0.00  0.00    +0.000 C 
BRANCH  23  24
ATOM     24  O   UNL     1      -1.357  11.800  18.673  0.00  0.00    +0.000 OA
BRANCH  24  25
ATOM     25  C   UNL     1      -2.657  11.993  19.054  0.00  0.00    +0.000 A 
ATOM     26  C   UNL     1      -2.827  12.729  20.227  0.00  0.00    +0.000 A 
ATOM     27  C   UNL     1      -4.109  12.972  20.722  0.00  0.00    +0.000 A 
ATOM     28  C   UNL     1      -5.235  12.478  20.052  0.00  0.00    +0.000 A 
ATOM     29 CL   UNL     1      -6.780  12.812  20.737  0.00  0.00    +0.000 Cl
ATOM     30  C   UNL     1      -5.085  11.740  18.870  0.00  0.00    +0.000 A 
ATOM     31  C   UNL     1      -6.224  11.162  18.079  0.00  0.00    +0.000 C 
ATOM     32  C   UNL     1      -3.787  11.511  18.384  0.00  0.00    +0.000 A 
ENDBRANCH  24  25
ENDBRANCH  23  24
ENDBRANCH  22  23
ENDBRANCH  21  22
ENDBRANCH   5  21
TORSDOF 7
ENDMDL
