MODEL 1
REMARK VINA RESULT:      -7.9      0.000      0.000
REMARK  Name = 
REMARK  6 active torsions:
REMARK  status: ('A' for Active; 'I' for Inactive)
REMARK    1  A    between atoms: C_1  and  C_2
REMARK    2  A    between atoms: N_4  and  C_5
REMARK    3  A    between atoms: C_8  and  C_9
REMARK    4  A    between atoms: C_9  and  O_10
REMARK    5  A    between atoms: C_9  and  C_11
REMARK    6  A    between atoms: C_11  and  O_12
REMARK                            x       y       z     vdW  Elec       q    Type
REMARK                         _______ _______ _______ _____ _____    ______ ____
ROOT
ATOM      1  C   UNL     1       1.526   9.732  21.713  0.00  0.00    +0.000 C 
ATOM      2  C   UNL     1       0.629   9.149  20.609  0.00  0.00    +0.000 C 
ATOM      3  C   UNL     1      -0.852   9.586  20.819  0.00  0.00    +0.000 C 
ATOM      4  N   UNL     1      -0.994  10.998  20.457  0.00  0.00    +0.000 N 
ATOM      5  C   UNL     1      -0.596  11.335  19.090  0.00  0.00    +0.000 C 
ATOM      6  C   UNL     1       0.874  10.954  18.891  0.00  0.00    +0.000 C 
ATOM      7  N   UNL     1       1.123   9.546  19.258  0.00  0.00    +0.000 N 
ATOM      8  C   UNL     1       2.024   8.853  18.459  0.00  0.00    +0.000 C 
ATOM      9  O   UNL     1       2.601   9.431  17.538  0.00  0.00    +0.000 OA
ATOM     10  N   UNL     1       2.160   7.519  18.737  0.00  0.00    +0.000 N 
ATOM     11  C   UNL     1       3.051   6.753  18.029  0.00  0.00    +0.000 A 
ATOM     12  N   UNL     1       4.021   7.148  17.251  0.00  0.00    +0.000 NA
ATOM     13  C   UNL     1       4.679   6.060  16.723  0.00  0.00    +0.000 A 
ATOM     14  C   UNL     1       5.771   6.119  15.840  0.00  0.00    +0.000 A 
ATOM     15  C   UNL     1       6.352   4.932  15.410  0.00  0.00    +0.000 A 
ATOM     16  F   UNL     1       7.407   4.982  14.584  0.00  0.00    +0.000 F 
ATOM     17  C   UNL     1       5.870   3.698  15.822  0.00  0.00    +0.000 A 
ATOM     18  C   UNL     1       4.773   3.614  16.688  0.00  0.00    +0.000 A 
ATOM     19  C   UNL     1       4.193   4.814  17.133  0.00  0.00    +0.000 A 
ATOM     20  S   UNL     1       2.863   5.067  18.210  0.00  0.00    +0.000 S 
ATOM     21  H   UNL     1       1.442   7.028  19.235  0.00  0.00    +0.000 HD
ENDROOT
BRANCH   4  22
ATOM     22  C   UNL     1      -1.687  11.872  21.259  0.00  0.00    +0.000 A 
ATOM     23  N   UNL     1      -2.547  12.737  20.669  0.00  0.00    +0.000 NA
ATOM     24  C   UNL     1      -3.263  13.580  21.457  0.00  0.00    +0.000 A 
ATOM     25  C   UNL     1      -3.194  13.615  22.846  0.00  0.00    +0.000 A 
ATOM     26  C   UNL     1      -2.314  12.719  23.448  0.00  0.00    +0.000 A 
ATOM     27  C   UNL     1      -1.566  11.855  22.655  0.00  0.00    +0.000 A 
ATOM     28  F   UNL     1      -0.780  10.962  23.279  0.00  0.00    +0.000 F 
BRANCH  25  29
ATOM     29  C   UNL     1      -4.048  14.569  23.639  0.00  0.00    +0.000 C 
BRANCH  29  30
ATOM     30  O   UNL     1      -5.069  13.822  24.305  0.00  0.00    +0.000 OA
ATOM     31  H   UNL     1      -5.916  14.282  24.189  0.00  0.00    +0.000 HD
ENDBRANCH  29  30
BRANCH  29  32
ATOM     32  C   UNL     1      -3.246  15.403  24.656  0.00  0.00    +0.000 C 
BRANCH  32  33
ATOM     33  O   UNL     1      -3.199  14.788  25.940  0.00  0.00    +0.000 OA
ATOM     34  H   UNL     1      -2.822  15.431  26.566  0.00  0.00    +0.000 HD
ENDBRANCH  32  33
ENDBRANCH  29  32
ENDBRANCH  25  29
ENDBRANCH   4  22
TORSDOF 5
ENDMDL
MODEL 2
REMARK VINA RESULT:      -7.7      1.066      1.245
REMARK  Name = 
REMARK  6 active torsions:
REMARK  status: ('A' for Active; 'I' for Inactive)
REMARK    1  A    between atoms: C_1  and  C_2
REMARK    2  A    between atoms: N_4  and  C_5
REMARK    3  A    between atoms: C_8  and  C_9
REMARK    4  A    between atoms: C_9  and  O_10
REMARK    5  A    between atoms: C_9  and  C_11
REMARK    6  A    between atoms: C_11  and  O_12
REMARK                            x       y       z     vdW  Elec       q    Type
REMARK                         _______ _______ _______ _____ _____    ______ ____
ROOT
ATOM      1  C   UNL     1       1.467   9.767  21.887  0.00  0.00    +0.000 C 
ATOM      2  C   UNL     1       0.569   9.264  20.745  0.00  0.00    +0.000 C 
ATOM      3  C   UNL     1      -0.897   9.754  20.945  0.00  0.00    +0.000 C 
ATOM      4  N   UNL     1      -0.974  11.184  20.635  0.00  0.00    +0.000 N 
ATOM      5  C   UNL     1      -0.535  11.555  19.290  0.00  0.00    +0.000 C 
ATOM      6  C   UNL     1       0.922  11.122  19.103  0.00  0.00    +0.000 C 
ATOM      7  N   UNL     1       1.105   9.691  19.420  0.00  0.00    +0.000 N 
ATOM      8  C   UNL     1       1.993   8.992  18.611  0.00  0.00    +0.000 C 
ATOM      9  O   UNL     1       2.612   9.580  17.724  0.00  0.00    +0.000 OA
ATOM     10  N   UNL     1       2.069   7.645  18.840  0.00  0.00    +0.000 N 
ATOM     11  C   UNL     1       2.942   6.869  18.120  0.00  0.00    +0.000 A 
ATOM     12  N   UNL     1       3.942   7.253  17.375  0.00  0.00    +0.000 NA
ATOM     13  C   UNL     1       4.566   6.159  16.818  0.00  0.00    +0.000 A 
ATOM     14  C   UNL     1       5.678   6.206  15.957  0.00  0.00    +0.000 A 
ATOM     15  C   UNL     1       6.218   5.013  15.493  0.00  0.00    +0.000 A 
ATOM     16  F   UNL     1       7.290   5.051  14.689  0.00  0.00    +0.000 F 
ATOM     17  C   UNL     1       5.678   3.785  15.848  0.00  0.00    +0.000 A 
ATOM     18  C   UNL     1       4.562   3.715  16.690  0.00  0.00    +0.000 A 
ATOM     19  C   UNL     1       4.022   4.920  17.171  0.00  0.00    +0.000 A 
ATOM     20  S   UNL     1       2.682   5.187  18.232  0.00  0.00    +0.000 S 
ATOM     21  H   UNL     1       1.322   7.165  19.305  0.00  0.00    +0.000 HD
ENDROOT
BRANCH   4  22
ATOM     22  C   UNL     1      -1.647  12.055  21.457  0.00  0.00    +0.000 A 
ATOM     23  N   UNL     1      -1.028  12.476  22.586  0.00  0.00    +0.000 NA
ATOM     24  C   UNL     1      -1.671  13.365  23.386  0.00  0.00    +0.000 A 
ATOM     25  C   UNL     1      -2.929  13.898  23.125  0.00  0.00    +0.000 A 
ATOM     26  C   UNL     1      -3.558  13.468  21.960  0.00  0.00    +0.000 A 
ATOM     27  C   UNL     1      -2.918  12.550  21.133  0.00  0.00    +0.000 A 
ATOM     28  F   UNL     1      -3.529  12.213  19.986  0.00  0.00    +0.000 F 
BRANCH  25  29
ATOM     29  C   UNL     1      -3.554  14.901  24.060  0.00  0.00    +0.000 C 
BRANCH  29  30
ATOM     30  O   UNL     1      -4.887  14.480  24.355  0.00  0.00    +0.000 OA
ATOM     31  H   UNL     1      -5.141  14.839  25.222  0.00  0.00    +0.000 HD
ENDBRANCH  29  30
BRANCH  29  32
ATOM     32  C   UNL     1      -2.754  15.099  25.362  0.00  0.00    +0.000 C 
BRANCH  32  33
ATOM     33  O   UNL     1      -2.305  16.442  25.519  0.00  0.00    +0.000 OA
ATOM     34  H   UNL     1      -3.078  16.993  25.737  0.00  0.00    +0.000 HD
ENDBRANCH  32  33
ENDBRANCH  29  32
ENDBRANCH  25  29
ENDBRANCH   4  22
TORSDOF 5
ENDMDL
MODEL 3
REMARK VINA RESULT:      -7.6      3.235     11.235
REMARK  Name = 
REMARK  6 active torsions:
REMARK  status: ('A' for Active; 'I' for Inactive)
REMARK    1  A    between atoms: C_1  and  C_2
REMARK    2  A    between atoms: N_4  and  C_5
REMARK    3  A    between atoms: C_8  and  C_9
REMARK    4  A    between atoms: C_9  and  O_10
REMARK    5  A    between atoms: C_9  and  C_11
REMARK    6  A    between atoms: C_11  and  O_12
REMARK                            x       y       z     vdW  Elec       q    Type
REMARK                         _______ _______ _______ _____ _____    ______ ____
ROOT
ATOM      1  C   UNL     1       2.190  10.662  18.298  0.00  0.00    +0.000 C 
ATOM      2  C   UNL     1       0.965   9.809  18.665  0.00  0.00    +0.000 C 
ATOM      3  C   UNL     1       1.062   8.400  18.005  0.00  0.00    +0.000 C 
ATOM      4  N   UNL     1       2.069   7.605  18.711  0.00  0.00    +0.000 N 
ATOM      5  C   UNL     1       1.837   7.435  20.146  0.00  0.00    +0.000 C 
ATOM      6  C   UNL     1       1.791   8.814  20.810  0.00  0.00    +0.000 C 
ATOM      7  N   UNL     1       0.816   9.702  20.146  0.00  0.00    +0.000 N 
ATOM      8  C   UNL     1       0.088  10.545  20.976  0.00  0.00    +0.000 C 
ATOM      9  O   UNL     1       0.310  10.559  22.187  0.00  0.00    +0.000 OA
ATOM     10  N   UNL     1      -0.892  11.280  20.365  0.00  0.00    +0.000 N 
ATOM     11  C   UNL     1      -1.644  12.169  21.090  0.00  0.00    +0.000 A 
ATOM     12  N   UNL     1      -1.415  12.638  22.287  0.00  0.00    +0.000 NA
ATOM     13  C   UNL     1      -2.419  13.504  22.656  0.00  0.00    +0.000 A 
ATOM     14  C   UNL     1      -2.494  14.186  23.884  0.00  0.00    +0.000 A 
ATOM     15  C   UNL     1      -3.558  15.052  24.107  0.00  0.00    +0.000 A 
ATOM     16  F   UNL     1      -3.625  15.721  25.266  0.00  0.00    +0.000 F 
ATOM     17  C   UNL     1      -4.548  15.246  23.154  0.00  0.00    +0.000 A 
ATOM     18  C   UNL     1      -4.502  14.565  21.931  0.00  0.00    +0.000 A 
ATOM     19  C   UNL     1      -3.420  13.698  21.700  0.00  0.00    +0.000 A 
ATOM     20  S   UNL     1      -3.051  12.737  20.310  0.00  0.00    +0.000 S 
ATOM     21  H   UNL     1      -1.267  10.992  19.481  0.00  0.00    +0.000 HD
ENDROOT
BRANCH   4  22
ATOM     22  C   UNL     1       3.006   6.871  18.024  0.00  0.00    +0.000 A 
ATOM     23  N   UNL     1       4.087   7.518  17.528  0.00  0.00    +0.000 NA
ATOM     24  C   UNL     1       5.036   6.795  16.879  0.00  0.00    +0.000 A 
ATOM     25  C   UNL     1       4.991   5.416  16.695  0.00  0.00    +0.000 A 
ATOM     26  C   UNL     1       3.881   4.755  17.214  0.00  0.00    +0.000 A 
ATOM     27  C   UNL     1       2.896   5.482  17.873  0.00  0.00    +0.000 A 
ATOM     28  F   UNL     1       1.876   4.797  18.416  0.00  0.00    +0.000 F 
BRANCH  25  29
ATOM     29  C   UNL     1       6.106   4.695  15.983  0.00  0.00    +0.000 C 
BRANCH  29  30
ATOM     30  O   UNL     1       6.409   5.400  14.778  0.00  0.00    +0.000 OA
ATOM     31  H   UNL     1       6.235   6.345  14.919  0.00  0.00    +0.000 HD
ENDBRANCH  29  30
BRANCH  29  32
ATOM     32  C   UNL     1       7.374   4.534  16.843  0.00  0.00    +0.000 C 
BRANCH  32  33
ATOM     33  O   UNL     1       7.071   4.184  18.189  0.00  0.00    +0.000 OA
ATOM     34  H   UNL     1       7.907   3.958  18.635  0.00  0.00    +0.000 HD
ENDBRANCH  32  33
ENDBRANCH  29  32
ENDBRANCH  25  29
ENDBRANCH   4  22
TORSDOF 5
ENDMDL
MODEL 4
REMARK VINA RESULT:      -7.6      3.565     11.419
REMARK  Name = 
REMARK  6 active torsions:
REMARK  status: ('A' for Active; 'I' for Inactive)
REMARK    1  A    between atoms: C_1  and  C_2
REMARK    2  A    between atoms: N_4  and  C_5
REMARK    3  A    between atoms: C_8  and  C_9
REMARK    4  A    between atoms: C_9  and  O_10
REMARK    5  A    between atoms: C_9  and  C_11
REMARK    6  A    between atoms: C_11  and  O_12
REMARK                            x       y       z     vdW  Elec       q    Type
REMARK                         _______ _______ _______ _____ _____    ______ ____
ROOT
ATOM      1  C   UNL     1      -0.496   9.089  22.204  0.00  0.00    +0.000 C 
ATOM      2  C   UNL     1       0.115  10.397  21.677  0.00  0.00    +0.000 C 
ATOM      3  C   UNL     1       1.460  10.115  20.941  0.00  0.00    +0.000 C 
ATOM      4  N   UNL     1       1.179   9.497  19.643  0.00  0.00    +0.000 N 
ATOM      5  C   UNL     1       0.313  10.275  18.756  0.00  0.00    +0.000 C 
ATOM      6  C   UNL     1      -1.030  10.513  19.453  0.00  0.00    +0.000 C 
ATOM      7  N   UNL     1      -0.847  11.114  20.789  0.00  0.00    +0.000 N 
ATOM      8  C   UNL     1      -1.783  12.068  21.167  0.00  0.00    +0.000 C 
ATOM      9  O   UNL     1      -2.727  12.333  20.423  0.00  0.00    +0.000 OA
ATOM     10  N   UNL     1      -1.539  12.700  22.356  0.00  0.00    +0.000 N 
ATOM     11  C   UNL     1      -2.422  13.634  22.837  0.00  0.00    +0.000 A 
ATOM     12  N   UNL     1      -3.647  13.866  22.451  0.00  0.00    +0.000 NA
ATOM     13  C   UNL     1      -4.189  14.895  23.187  0.00  0.00    +0.000 A 
ATOM     14  C   UNL     1      -5.489  15.410  23.032  0.00  0.00    +0.000 A 
ATOM     15  C   UNL     1      -5.908  16.436  23.869  0.00  0.00    +0.000 A 
ATOM     16  F   UNL     1      -7.153  16.918  23.740  0.00  0.00    +0.000 F 
ATOM     17  C   UNL     1      -5.071  16.970  24.840  0.00  0.00    +0.000 A 
ATOM     18  C   UNL     1      -3.768  16.484  25.001  0.00  0.00    +0.000 A 
ATOM     19  C   UNL     1      -3.347  15.437  24.163  0.00  0.00    +0.000 A 
ATOM     20  S   UNL     1      -1.833  14.601  24.113  0.00  0.00    +0.000 S 
ATOM     21  H   UNL     1      -0.615  12.716  22.744  0.00  0.00    +0.000 HD
ENDROOT
BRANCH   4  22
ATOM     22  C   UNL     1       1.884   8.402  19.208  0.00  0.00    +0.000 A 
ATOM     23  N   UNL     1       2.542   8.491  18.028  0.00  0.00    +0.000 NA
ATOM     24  C   UNL     1       3.272   7.426  17.608  0.00  0.00    +0.000 A 
ATOM     25  C   UNL     1       3.413   6.236  18.315  0.00  0.00    +0.000 A 
ATOM     26  C   UNL     1       2.741   6.151  19.532  0.00  0.00    +0.000 A 
ATOM     27  C   UNL     1       1.981   7.230  19.972  0.00  0.00    +0.000 A 
ATOM     28  F   UNL     1       1.405   7.133  21.181  0.00  0.00    +0.000 F 
BRANCH  25  29
ATOM     29  C   UNL     1       4.267   5.115  17.781  0.00  0.00    +0.000 C 
BRANCH  29  30
ATOM     30  O   UNL     1       4.755   5.489  16.491  0.00  0.00    +0.000 OA
ATOM     31  H   UNL     1       4.130   5.171  15.818  0.00  0.00    +0.000 HD
ENDBRANCH  29  30
BRANCH  29  32
ATOM     32  C   UNL     1       5.439   4.747  18.711  0.00  0.00    +0.000 C 
BRANCH  32  33
ATOM     33  O   UNL     1       5.366   3.398  19.160  0.00  0.00    +0.000 OA
ATOM     34  H   UNL     1       4.529   3.288  19.644  0.00  0.00    +0.000 HD
ENDBRANCH  32  33
ENDBRANCH  29  32
ENDBRANCH  25  29
ENDBRANCH   4  22
TORSDOF 5
ENDMDL
MODEL 5
REMARK VINA RESULT:      -7.6      3.732     11.468
REMARK  Name = 
REMARK  6 active torsions:
REMARK  status: ('A' for Active; 'I' for Inactive)
REMARK    1  A    between atoms: C_1  and  C_2
REMARK    2  A    between atoms: N_4  and  C_5
REMARK    3  A    between atoms: C_8  and  C_9
REMARK    4  A    between atoms: C_9  and  O_10
REMARK    5  A    between atoms: C_9  and  C_11
REMARK    6  A    between atoms: C_11  and  O_12
REMARK                            x       y       z     vdW  Elec       q    Type
REMARK                         _______ _______ _______ _____ _____    ______ ____
ROOT
ATOM      1  C   UNL     1      -0.494   8.990  22.469  0.00  0.00    +0.000 C 
ATOM      2  C   UNL     1       0.157  10.260  21.898  0.00  0.00    +0.000 C 
ATOM      3  C   UNL     1       1.484   9.910  21.160  0.00  0.00    +0.000 C 
ATOM      4  N   UNL     1       1.170   9.264  19.884  0.00  0.00    +0.000 N 
ATOM      5  C   UNL     1       0.324  10.044  18.981  0.00  0.00    +0.000 C 
ATOM      6  C   UNL     1      -1.004  10.350  19.681  0.00  0.00    +0.000 C 
ATOM      7  N   UNL     1      -0.788  10.983  20.997  0.00  0.00    +0.000 N 
ATOM      8  C   UNL     1      -1.686  11.980  21.355  0.00  0.00    +0.000 C 
ATOM      9  O   UNL     1      -2.628  12.256  20.610  0.00  0.00    +0.000 OA
ATOM     10  N   UNL     1      -1.410  12.638  22.522  0.00  0.00    +0.000 N 
ATOM     11  C   UNL     1      -2.256  13.616  22.982  0.00  0.00    +0.000 A 
ATOM     12  N   UNL     1      -3.475  13.879  22.599  0.00  0.00    +0.000 NA
ATOM     13  C   UNL     1      -3.975  14.948  23.308  0.00  0.00    +0.000 A 
ATOM     14  C   UNL     1      -5.257  15.503  23.148  0.00  0.00    +0.000 A 
ATOM     15  C   UNL     1      -5.633  16.568  23.958  0.00  0.00    +0.000 A 
ATOM     16  F   UNL     1      -6.861  17.088  23.825  0.00  0.00    +0.000 F 
ATOM     17  C   UNL     1      -4.770  17.100  24.905  0.00  0.00    +0.000 A 
ATOM     18  C   UNL     1      -3.483  16.574  25.070  0.00  0.00    +0.000 A 
ATOM     19  C   UNL     1      -3.106  15.489  24.261  0.00  0.00    +0.000 A 
ATOM     20  S   UNL     1      -1.623  14.600  24.224  0.00  0.00    +0.000 S 
ATOM     21  H   UNL     1      -0.483  12.633  22.902  0.00  0.00    +0.000 HD
ENDROOT
BRANCH   4  22
ATOM     22  C   UNL     1       1.834   8.132  19.477  0.00  0.00    +0.000 A 
ATOM     23  N   UNL     1       1.812   7.050  20.291  0.00  0.00    +0.000 NA
ATOM     24  C   UNL     1       2.434   5.915  19.881  0.00  0.00    +0.000 A 
ATOM     25  C   UNL     1       3.090   5.769  18.662  0.00  0.00    +0.000 A 
ATOM     26  C   UNL     1       3.103   6.881  17.825  0.00  0.00    +0.000 A 
ATOM     27  C   UNL     1       2.478   8.055  18.234  0.00  0.00    +0.000 A 
ATOM     28  F   UNL     1       2.456   9.082  17.369  0.00  0.00    +0.000 F 
BRANCH  25  29
ATOM     29  C   UNL     1       3.731   4.460  18.281  0.00  0.00    +0.000 C 
BRANCH  29  30
ATOM     30  O   UNL     1       4.959   4.735  17.603  0.00  0.00    +0.000 OA
ATOM     31  H   UNL     1       5.157   3.993  17.007  0.00  0.00    +0.000 HD
ENDBRANCH  29  30
BRANCH  29  32
ATOM     32  C   UNL     1       3.981   3.531  19.484  0.00  0.00    +0.000 C 
BRANCH  32  33
ATOM     33  O   UNL     1       5.208   2.819  19.370  0.00  0.00    +0.000 OA
ATOM     34  H   UNL     1       5.632   3.084  18.535  0.00  0.00    +0.000 HD
ENDBRANCH  32  33
ENDBRANCH  29  32
ENDBRANCH  25  29
ENDBRANCH   4  22
TORSDOF 5
ENDMDL
MODEL 6
REMARK VINA RESULT:      -7.6      1.116      1.478
REMARK  Name = 
REMARK  6 active torsions:
REMARK  status: ('A' for Active; 'I' for Inactive)
REMARK    1  A    between atoms: C_1  and  C_2
REMARK    2  A    between atoms: N_4  and  C_5
REMARK    3  A    between atoms: C_8  and  C_9
REMARK    4  A    between atoms: C_9  and  O_10
REMARK    5  A    between atoms: C_9  and  C_11
REMARK    6  A    between atoms: C_11  and  O_12
REMARK                            x       y       z     vdW  Elec       q    Type
REMARK                         _______ _______ _______ _____ _____    ______ ____
ROOT
ATOM      1  C   UNL     1       1.498   9.776  21.842  0.00  0.00    +0.000 C 
ATOM      2  C   UNL     1       0.597   9.263  20.707  0.00  0.00    +0.000 C 
ATOM      3  C   UNL     1      -0.868   9.753  20.907  0.00  0.00    +0.000 C 
ATOM      4  N   UNL     1      -0.948  11.181  20.587  0.00  0.00    +0.000 N 
ATOM      5  C   UNL     1      -0.513  11.542  19.237  0.00  0.00    +0.000 C 
ATOM      6  C   UNL     1       0.944  11.108  19.049  0.00  0.00    +0.000 C 
ATOM      7  N   UNL     1       1.130   9.680  19.376  0.00  0.00    +0.000 N 
ATOM      8  C   UNL     1       2.015   8.975  18.571  0.00  0.00    +0.000 C 
ATOM      9  O   UNL     1       2.631   9.557  17.678  0.00  0.00    +0.000 OA
ATOM     10  N   UNL     1       2.093   7.630  18.810  0.00  0.00    +0.000 N 
ATOM     11  C   UNL     1       2.965   6.850  18.093  0.00  0.00    +0.000 A 
ATOM     12  N   UNL     1       3.962   7.228  17.342  0.00  0.00    +0.000 NA
ATOM     13  C   UNL     1       4.585   6.131  16.792  0.00  0.00    +0.000 A 
ATOM     14  C   UNL     1       5.694   6.173  15.927  0.00  0.00    +0.000 A 
ATOM     15  C   UNL     1       6.234   4.976  15.471  0.00  0.00    +0.000 A 
ATOM     16  F   UNL     1       7.303   5.008  14.663  0.00  0.00    +0.000 F 
ATOM     17  C   UNL     1       5.696   3.750  15.837  0.00  0.00    +0.000 A 
ATOM     18  C   UNL     1       4.582   3.686  16.683  0.00  0.00    +0.000 A 
ATOM     19  C   UNL     1       4.043   4.894  17.156  0.00  0.00    +0.000 A 
ATOM     20  S   UNL     1       2.706   5.168  18.218  0.00  0.00    +0.000 S 
ATOM     21  H   UNL     1       1.348   7.153  19.281  0.00  0.00    +0.000 HD
ENDROOT
BRANCH   4  22
ATOM     22  C   UNL     1      -1.618  12.057  21.404  0.00  0.00    +0.000 A 
ATOM     23  N   UNL     1      -0.983  12.516  22.509  0.00  0.00    +0.000 NA
ATOM     24  C   UNL     1      -1.625  13.411  23.303  0.00  0.00    +0.000 A 
ATOM     25  C   UNL     1      -2.899  13.914  23.059  0.00  0.00    +0.000 A 
ATOM     26  C   UNL     1      -3.545  13.445  21.918  0.00  0.00    +0.000 A 
ATOM     27  C   UNL     1      -2.906  12.521  21.098  0.00  0.00    +0.000 A 
ATOM     28  F   UNL     1      -3.536  12.146  19.973  0.00  0.00    +0.000 F 
BRANCH  25  29
ATOM     29  C   UNL     1      -3.522  14.926  23.985  0.00  0.00    +0.000 C 
BRANCH  29  30
ATOM     30  O   UNL     1      -2.603  16.006  24.164  0.00  0.00    +0.000 OA
ATOM     31  H   UNL     1      -1.729  15.726  23.847  0.00  0.00    +0.000 HD
ENDBRANCH  29  30
BRANCH  29  32
ATOM     32  C   UNL     1      -4.879  15.455  23.484  0.00  0.00    +0.000 C 
BRANCH  32  33
ATOM     33  O   UNL     1      -5.962  15.011  24.295  0.00  0.00    +0.000 OA
ATOM     34  H   UNL     1      -5.932  15.506  25.133  0.00  0.00    +0.000 HD
ENDBRANCH  32  33
ENDBRANCH  29  32
ENDBRANCH  25  29
ENDBRANCH   4  22
TORSDOF 5
ENDMDL
MODEL 7
REMARK VINA RESULT:      -7.5      3.535     11.477
REMARK  Name = 
REMARK  6 active torsions:
REMARK  status: ('A' for Active; 'I' for Inactive)
REMARK    1  A    between atoms: C_1  and  C_2
REMARK    2  A    between atoms: N_4  and  C_5
REMARK    3  A    between atoms: C_8  and  C_9
REMARK    4  A    between atoms: C_9  and  O_10
REMARK    5  A    between atoms: C_9  and  C_11
REMARK    6  A    between atoms: C_11  and  O_12
REMARK                            x       y       z     vdW  Elec       q    Type
REMARK                         _______ _______ _______ _____ _____    ______ ____
ROOT
ATOM      1  C   UNL     1       1.023  11.909  19.333  0.00  0.00    +0.000 C 
ATOM      2  C   UNL     1      -0.207  11.081  19.738  0.00  0.00    +0.000 C 
ATOM      3  C   UNL     1      -0.093   9.627  19.189  0.00  0.00    +0.000 C 
ATOM      4  N   UNL     1       0.901   8.891  19.974  0.00  0.00    +0.000 N 
ATOM      5  C   UNL     1       0.639   8.830  21.412  0.00  0.00    +0.000 C 
ATOM      6  C   UNL     1       0.576  10.255  21.969  0.00  0.00    +0.000 C 
ATOM      7  N   UNL     1      -0.387  11.087  21.219  0.00  0.00    +0.000 N 
ATOM      8  C   UNL     1      -1.135  11.987  21.967  0.00  0.00    +0.000 C 
ATOM      9  O   UNL     1      -0.939  12.093  23.178  0.00  0.00    +0.000 OA
ATOM     10  N   UNL     1      -2.103  12.669  21.282  0.00  0.00    +0.000 N 
ATOM     11  C   UNL     1      -2.872  13.608  21.921  0.00  0.00    +0.000 A 
ATOM     12  N   UNL     1      -2.670  14.167  23.083  0.00  0.00    +0.000 NA
ATOM     13  C   UNL     1      -3.684  15.055  23.365  0.00  0.00    +0.000 A 
ATOM     14  C   UNL     1      -3.787  15.828  24.536  0.00  0.00    +0.000 A 
ATOM     15  C   UNL     1      -4.857  16.704  24.669  0.00  0.00    +0.000 A 
ATOM     16  F   UNL     1      -4.950  17.458  25.774  0.00  0.00    +0.000 F 
ATOM     17  C   UNL     1      -5.827  16.821  23.684  0.00  0.00    +0.000 A 
ATOM     18  C   UNL     1      -5.754  16.049  22.517  0.00  0.00    +0.000 A 
ATOM     19  C   UNL     1      -4.665  15.172  22.376  0.00  0.00    +0.000 A 
ATOM     20  S   UNL     1      -4.264  14.109  21.071  0.00  0.00    +0.000 S 
ATOM     21  H   UNL     1      -2.458  12.314  20.415  0.00  0.00    +0.000 HD
ENDROOT
BRANCH   4  22
ATOM     22  C   UNL     1       1.854   8.111  19.365  0.00  0.00    +0.000 A 
ATOM     23  N   UNL     1       2.222   6.959  19.974  0.00  0.00    +0.000 NA
ATOM     24  C   UNL     1       3.136   6.164  19.361  0.00  0.00    +0.000 A 
ATOM     25  C   UNL     1       3.722   6.436  18.129  0.00  0.00    +0.000 A 
ATOM     26  C   UNL     1       3.335   7.618  17.503  0.00  0.00    +0.000 A 
ATOM     27  C   UNL     1       2.406   8.449  18.121  0.00  0.00    +0.000 A 
ATOM     28  F   UNL     1       2.009   9.544  17.453  0.00  0.00    +0.000 F 
BRANCH  25  29
ATOM     29  C   UNL     1       4.710   5.479  17.514  0.00  0.00    +0.000 C 
BRANCH  29  30
ATOM     30  O   UNL     1       5.302   6.106  16.374  0.00  0.00    +0.000 OA
ATOM     31  H   UNL     1       5.636   6.979  16.638  0.00  0.00    +0.000 HD
ENDBRANCH  29  30
BRANCH  29  32
ATOM     32  C   UNL     1       5.802   5.016  18.497  0.00  0.00    +0.000 C 
BRANCH  32  33
ATOM     33  O   UNL     1       5.636   3.655  18.884  0.00  0.00    +0.000 OA
ATOM     34  H   UNL     1       5.017   3.239  18.258  0.00  0.00    +0.000 HD
ENDBRANCH  32  33
ENDBRANCH  29  32
ENDBRANCH  25  29
ENDBRANCH   4  22
TORSDOF 5
ENDMDL
MODEL 8
REMARK VINA RESULT:      -7.5      1.082      1.300
REMARK  Name = 
REMARK  6 active torsions:
REMARK  status: ('A' for Active; 'I' for Inactive)
REMARK    1  A    between atoms: C_1  and  C_2
REMARK    2  A    between atoms: N_4  and  C_5
REMARK    3  A    between atoms: C_8  and  C_9
REMARK    4  A    between atoms: C_9  and  O_10
REMARK    5  A    between atoms: C_9  and  C_11
REMARK    6  A    between atoms: C_11  and  O_12
REMARK                            x       y       z     vdW  Elec       q    Type
REMARK                         _______ _______ _______ _____ _____    ______ ____
ROOT
ATOM      1  C   UNL     1       1.720   9.870  22.188  0.00  0.00    +0.000 C 
ATOM      2  C   UNL     1       0.717   9.325  21.159  0.00  0.00    +0.000 C 
ATOM      3  C   UNL     1      -0.728   9.802  21.497  0.00  0.00    +0.000 C 
ATOM      4  N   UNL     1      -0.858  11.222  21.159  0.00  0.00    +0.000 N 
ATOM      5  C   UNL     1      -0.566  11.561  19.766  0.00  0.00    +0.000 C 
ATOM      6  C   UNL     1       0.871  11.140  19.441  0.00  0.00    +0.000 C 
ATOM      7  N   UNL     1       1.107   9.722  19.775  0.00  0.00    +0.000 N 
ATOM      8  C   UNL     1       1.917   9.011  18.898  0.00  0.00    +0.000 C 
ATOM      9  O   UNL     1       2.433   9.582  17.936  0.00  0.00    +0.000 OA
ATOM     10  N   UNL     1       2.037   7.671  19.152  0.00  0.00    +0.000 N 
ATOM     11  C   UNL     1       2.843   6.887  18.367  0.00  0.00    +0.000 A 
ATOM     12  N   UNL     1       3.755   7.262  17.513  0.00  0.00    +0.000 NA
ATOM     13  C   UNL     1       4.334   6.161  16.923  0.00  0.00    +0.000 A 
ATOM     14  C   UNL     1       5.350   6.198  15.951  0.00  0.00    +0.000 A 
ATOM     15  C   UNL     1       5.858   4.999  15.465  0.00  0.00    +0.000 A 
ATOM     16  F   UNL     1       6.840   5.027  14.554  0.00  0.00    +0.000 F 
ATOM     17  C   UNL     1       5.376   3.775  15.906  0.00  0.00    +0.000 A 
ATOM     18  C   UNL     1       4.353   3.714  16.861  0.00  0.00    +0.000 A 
ATOM     19  C   UNL     1       3.848   4.926  17.363  0.00  0.00    +0.000 A 
ATOM     20  S   UNL     1       2.620   5.205  18.549  0.00  0.00    +0.000 S 
ATOM     21  H   UNL     1       1.349   7.196  19.705  0.00  0.00    +0.000 HD
ENDROOT
BRANCH   4  22
ATOM     22  C   UNL     1      -1.455  12.107  22.023  0.00  0.00    +0.000 A 
ATOM     23  N   UNL     1      -2.706  11.828  22.461  0.00  0.00    +0.000 NA
ATOM     24  C   UNL     1      -3.290  12.678  23.344  0.00  0.00    +0.000 A 
ATOM     25  C   UNL     1      -2.689  13.825  23.854  0.00  0.00    +0.000 A 
ATOM     26  C   UNL     1      -1.401  14.104  23.405  0.00  0.00    +0.000 A 
ATOM     27  C   UNL     1      -0.791  13.248  22.494  0.00  0.00    +0.000 A 
ATOM     28  F   UNL     1       0.476  13.517  22.140  0.00  0.00    +0.000 F 
BRANCH  25  29
ATOM     29  C   UNL     1      -3.407  14.696  24.851  0.00  0.00    +0.000 C 
BRANCH  29  30
ATOM     30  O   UNL     1      -2.472  15.116  25.846  0.00  0.00    +0.000 OA
ATOM     31  H   UNL     1      -2.048  15.938  25.548  0.00  0.00    +0.000 HD
ENDBRANCH  29  30
BRANCH  29  32
ATOM     32  C   UNL     1      -4.091  15.919  24.210  0.00  0.00    +0.000 C 
BRANCH  32  33
ATOM     33  O   UNL     1      -5.292  16.280  24.885  0.00  0.00    +0.000 OA
ATOM     34  H   UNL     1      -6.032  16.159  24.264  0.00  0.00    +0.000 HD
ENDBRANCH  32  33
ENDBRANCH  29  32
ENDBRANCH  25  29
ENDBRANCH   4  22
TORSDOF 5
ENDMDL
MODEL 9
REMARK VINA RESULT:      -7.5      0.979      1.171
REMARK  Name = 
REMARK  6 active torsions:
REMARK  status: ('A' for Active; 'I' for Inactive)
REMARK    1  A    between atoms: C_1  and  C_2
REMARK    2  A    between atoms: N_4  and  C_5
REMARK    3  A    between atoms: C_8  and  C_9
REMARK    4  A    between atoms: C_9  and  O_10
REMARK    5  A    between atoms: C_9  and  C_11
REMARK    6  A    between atoms: C_11  and  O_12
REMARK                            x       y       z     vdW  Elec       q    Type
REMARK                         _______ _______ _______ _____ _____    ______ ____
ROOT
ATOM      1  C   UNL     1       1.120  10.145  21.567  0.00  0.00    +0.000 C 
ATOM      2  C   UNL     1       0.304   9.604  20.382  0.00  0.00    +0.000 C 
ATOM      3  C   UNL     1      -1.161  10.134  20.439  0.00  0.00    +0.000 C 
ATOM      4  N   UNL     1      -1.178  11.548  20.056  0.00  0.00    +0.000 N 
ATOM      5  C   UNL     1      -0.625  11.842  18.734  0.00  0.00    +0.000 C 
ATOM      6  C   UNL     1       0.831  11.370  18.686  0.00  0.00    +0.000 C 
ATOM      7  N   UNL     1       0.954   9.954  19.085  0.00  0.00    +0.000 N 
ATOM      8  C   UNL     1       1.886   9.197  18.385  0.00  0.00    +0.000 C 
ATOM      9  O   UNL     1       2.587   9.727  17.524  0.00  0.00    +0.000 OA
ATOM     10  N   UNL     1       1.910   7.861  18.684  0.00  0.00    +0.000 N 
ATOM     11  C   UNL     1       2.819   7.033  18.075  0.00  0.00    +0.000 A 
ATOM     12  N   UNL     1       3.884   7.359  17.395  0.00  0.00    +0.000 NA
ATOM     13  C   UNL     1       4.523   6.226  16.943  0.00  0.00    +0.000 A 
ATOM     14  C   UNL     1       5.700   6.207  16.174  0.00  0.00    +0.000 A 
ATOM     15  C   UNL     1       6.246   4.982  15.812  0.00  0.00    +0.000 A 
ATOM     16  F   UNL     1       7.379   4.957  15.096  0.00  0.00    +0.000 F 
ATOM     17  C   UNL     1       5.650   3.784  16.181  0.00  0.00    +0.000 A 
ATOM     18  C   UNL     1       4.468   3.779  16.933  0.00  0.00    +0.000 A 
ATOM     19  C   UNL     1       3.922   5.018  17.310  0.00  0.00    +0.000 A 
ATOM     20  S   UNL     1       2.509   5.364  18.245  0.00  0.00    +0.000 S 
ATOM     21  H   UNL     1       1.117   7.421  19.110  0.00  0.00    +0.000 HD
ENDROOT
BRANCH   4  22
ATOM     22  C   UNL     1      -1.893  12.472  20.778  0.00  0.00    +0.000 A 
ATOM     23  N   UNL     1      -3.192  12.672  20.454  0.00  0.00    +0.000 NA
ATOM     24  C   UNL     1      -3.916  13.557  21.186  0.00  0.00    +0.000 A 
ATOM     25  C   UNL     1      -3.424  14.276  22.271  0.00  0.00    +0.000 A 
ATOM     26  C   UNL     1      -2.089  14.062  22.605  0.00  0.00    +0.000 A 
ATOM     27  C   UNL     1      -1.331  13.165  21.860  0.00  0.00    +0.000 A 
ATOM     28  F   UNL     1      -0.068  12.937  22.257  0.00  0.00    +0.000 F 
BRANCH  25  29
ATOM     29  C   UNL     1      -4.311  15.219  23.041  0.00  0.00    +0.000 C 
BRANCH  29  30
ATOM     30  O   UNL     1      -4.810  16.211  22.142  0.00  0.00    +0.000 OA
ATOM     31  H   UNL     1      -4.524  17.086  22.454  0.00  0.00    +0.000 HD
ENDBRANCH  29  30
BRANCH  29  32
ATOM     32  C   UNL     1      -5.476  14.510  23.758  0.00  0.00    +0.000 C 
BRANCH  32  33
ATOM     33  O   UNL     1      -5.034  13.411  24.547  0.00  0.00    +0.000 OA
ATOM     34  H   UNL     1      -4.070  13.330  24.436  0.00  0.00    +0.000 HD
ENDBRANCH  32  33
ENDBRANCH  29  32
ENDBRANCH  25  29
ENDBRANCH   4  22
TORSDOF 5
ENDMDL
