MODEL 1
REMARK VINA RESULT:      -7.4      0.000      0.000
REMARK  Name = 
REMARK  10 active torsions:
REMARK  status: ('A' for Active; 'I' for Inactive)
REMARK    1  A    between atoms: C_1  and  C_2
REMARK    2  A    between atoms: C_2  and  O_3
REMARK    3  A    between atoms: O_3  and  C_4
REMARK    4  A    between atoms: C_4  and  C_6
REMARK    5  A    between atoms: C_15  and  O_16
REMARK    6  A    between atoms: O_16  and  C_17
REMARK    7  A    between atoms: N_20  and  C_21
REMARK    8  A    between atoms: N_25  and  S_26
REMARK    9  A    between atoms: S_26  and  C_29
REMARK   10  A    between atoms: C_32  and  C_33
REMARK                            x       y       z     vdW  Elec       q    Type
REMARK                         _______ _______ _______ _____ _____    ______ ____
ROOT
ATOM      1  C   UNL     1      -0.859  11.599  19.287  0.00  0.00    +0.000 C 
ATOM      2  C   UNL     1       0.173  12.133  18.547  0.00  0.00    +0.000 C 
ATOM      3  C   UNL     1       1.493  12.551  19.160  0.00  0.00    +0.000 C 
ATOM      4  C   UNL     1       1.373  12.287  20.667  0.00  0.00    +0.000 C 
ATOM      5  C   UNL     1       0.477  13.504  21.317  0.00  0.00    +0.000 A 
ATOM      6  C   UNL     1      -0.619  13.272  22.134  0.00  0.00    +0.000 A 
ATOM      7  C   UNL     1      -0.765  14.381  22.956  0.00  0.00    +0.000 A 
ATOM      8  C   UNL     1      -1.321  14.611  24.218  0.00  0.00    +0.000 A 
ATOM      9  C   UNL     1      -2.007  15.801  24.434  0.00  0.00    +0.000 A 
ATOM     10  C   UNL     1      -2.198  16.699  23.387  0.00  0.00    +0.000 A 
ATOM     11  C   UNL     1      -1.542  16.527  22.146  0.00  0.00    +0.000 A 
ATOM     12  C   UNL     1      -0.733  15.372  21.981  0.00  0.00    +0.000 A 
ATOM     13  N   UNL     1       0.049  14.821  20.923  0.00  0.00    +0.000 N 
ATOM     14  C   UNL     1      -0.070  15.352  19.575  0.00  0.00    +0.000 C 
ATOM     15  C   UNL     1      -1.476  12.124  21.860  0.00  0.00    +0.000 C 
ATOM     16  O   UNL     1      -2.401  11.788  22.595  0.00  0.00    +0.000 OA
ATOM     17  C   UNL     1      -0.847  11.211  20.790  0.00  0.00    +0.000 C 
ATOM     18  N   UNL     1       0.599  10.873  20.701  0.00  0.00    +0.000 NA
ENDROOT
BRANCH  18  19
ATOM     19  S   UNL     1       0.750   9.360  21.513  0.00  0.00    +0.000 S 
ATOM     20  O   UNL     1       1.696   9.492  22.588  0.00  0.00    +0.000 OA
ATOM     21  O   UNL     1      -0.563   8.777  21.752  0.00  0.00    +0.000 OA
BRANCH  19  22
ATOM     22  C   UNL     1       1.514   8.358  20.176  0.00  0.00    +0.000 A 
ATOM     23  C   UNL     1       1.901   7.073  20.544  0.00  0.00    +0.000 A 
ATOM     24  C   UNL     1       2.608   6.259  19.656  0.00  0.00    +0.000 A 
ATOM     25  C   UNL     1       2.939   6.706  18.373  0.00  0.00    +0.000 A 
ATOM     26  C   UNL     1       3.722   5.801  17.455  0.00  0.00    +0.000 C 
ATOM     27  C   UNL     1       2.539   7.994  17.991  0.00  0.00    +0.000 A 
ATOM     28  C   UNL     1       1.822   8.831  18.882  0.00  0.00    +0.000 A 
ENDBRANCH  19  22
ENDBRANCH  18  19
BRANCH   1  29
ATOM     29  C   UNL     1      -1.670  10.747  18.380  0.00  0.00    +0.000 C 
ATOM     30  O   UNL     1      -1.190   9.963  17.576  0.00  0.00    +0.000 OA
BRANCH  29  31
ATOM     31  O   UNL     1      -3.019  11.052  18.484  0.00  0.00    +0.000 OA
BRANCH  31  33
ATOM     32  C   UNL     1      -4.842  11.795  17.076  0.00  0.00    +0.000 C 
ATOM     33  C   UNL     1      -3.695  10.808  17.274  0.00  0.00    +0.000 C 
ENDBRANCH  31  33
ENDBRANCH  29  31
ENDBRANCH   1  29
BRANCH  10  34
ATOM     34  O   UNL     1      -3.015  17.752  23.707  0.00  0.00    +0.000 OA
ATOM     35  C   UNL     1      -3.362  17.879  25.081  0.00  0.00    +0.000 C 
ENDBRANCH  10  34
TORSDOF 6
ENDMDL
MODEL 2
REMARK VINA RESULT:      -7.1      0.974      1.140
REMARK  Name = 
REMARK  10 active torsions:
REMARK  status: ('A' for Active; 'I' for Inactive)
REMARK    1  A    between atoms: C_1  and  C_2
REMARK    2  A    between atoms: C_2  and  O_3
REMARK    3  A    between atoms: O_3  and  C_4
REMARK    4  A    between atoms: C_4  and  C_6
REMARK    5  A    between atoms: C_15  and  O_16
REMARK    6  A    between atoms: O_16  and  C_17
REMARK    7  A    between atoms: N_20  and  C_21
REMARK    8  A    between atoms: N_25  and  S_26
REMARK    9  A    between atoms: S_26  and  C_29
REMARK   10  A    between atoms: C_32  and  C_33
REMARK                            x       y       z     vdW  Elec       q    Type
REMARK                         _______ _______ _______ _____ _____    ______ ____
ROOT
ATOM      1  C   UNL     1      -1.544  12.233  19.594  0.00  0.00    +0.000 C 
ATOM      2  C   UNL     1      -0.601  12.812  18.774  0.00  0.00    +0.000 C 
ATOM      3  C   UNL     1       0.791  13.170  19.249  0.00  0.00    +0.000 C 
ATOM      4  C   UNL     1       0.851  12.796  20.735  0.00  0.00    +0.000 C 
ATOM      5  C   UNL     1       0.064  13.970  21.578  0.00  0.00    +0.000 A 
ATOM      6  C   UNL     1      -0.929  13.688  22.505  0.00  0.00    +0.000 A 
ATOM      7  C   UNL     1      -0.953  14.733  23.416  0.00  0.00    +0.000 A 
ATOM      8  C   UNL     1      -1.347  14.874  24.751  0.00  0.00    +0.000 A 
ATOM      9  C   UNL     1      -1.979  16.051  25.135  0.00  0.00    +0.000 A 
ATOM     10  C   UNL     1      -2.280  17.026  24.188  0.00  0.00    +0.000 A 
ATOM     11  C   UNL     1      -1.783  16.941  22.867  0.00  0.00    +0.000 A 
ATOM     12  C   UNL     1      -1.022  15.795  22.520  0.00  0.00    +0.000 A 
ATOM     13  N   UNL     1      -0.385  15.316  21.336  0.00  0.00    +0.000 N 
ATOM     14  C   UNL     1      -0.658  15.947  20.055  0.00  0.00    +0.000 C 
ATOM     15  C   UNL     1      -1.834  12.571  22.255  0.00  0.00    +0.000 C 
ATOM     16  O   UNL     1      -2.668  12.190  23.071  0.00  0.00    +0.000 OA
ATOM     17  C   UNL     1      -1.356  11.735  21.052  0.00  0.00    +0.000 C 
ATOM     18  N   UNL     1       0.061  11.391  20.762  0.00  0.00    +0.000 NA
ENDROOT
BRANCH  18  19
ATOM     19  S   UNL     1       0.283   9.820  21.437  0.00  0.00    +0.000 S 
ATOM     20  O   UNL     1       1.173   9.910  22.563  0.00  0.00    +0.000 OA
ATOM     21  O   UNL     1      -0.995   9.133  21.558  0.00  0.00    +0.000 OA
BRANCH  19  22
ATOM     22  C   UNL     1       1.168   9.002  20.051  0.00  0.00    +0.000 A 
ATOM     23  C   UNL     1       1.753   7.778  20.360  0.00  0.00    +0.000 A 
ATOM     24  C   UNL     1       2.562   7.118  19.432  0.00  0.00    +0.000 A 
ATOM     25  C   UNL     1       2.799   7.661  18.164  0.00  0.00    +0.000 A 
ATOM     26  C   UNL     1       3.695   6.926  17.201  0.00  0.00    +0.000 C 
ATOM     27  C   UNL     1       2.199   8.887  17.841  0.00  0.00    +0.000 A 
ATOM     28  C   UNL     1       1.378   9.568  18.775  0.00  0.00    +0.000 A 
ENDBRANCH  19  22
ENDBRANCH  18  19
BRANCH   1  29
ATOM     29  C   UNL     1      -2.476  11.459  18.735  0.00  0.00    +0.000 C 
ATOM     30  O   UNL     1      -3.691  11.551  18.797  0.00  0.00    +0.000 OA
BRANCH  29  31
ATOM     31  O   UNL     1      -1.788  10.542  17.954  0.00  0.00    +0.000 OA
BRANCH  31  33
ATOM     32  C   UNL     1      -2.641  10.292  15.703  0.00  0.00    +0.000 C 
ATOM     33  C   UNL     1      -2.665   9.796  17.144  0.00  0.00    +0.000 C 
ENDBRANCH  31  33
ENDBRANCH  29  31
ENDBRANCH   1  29
BRANCH  10  34
ATOM     34  O   UNL     1      -3.033  18.060  24.682  0.00  0.00    +0.000 OA
ATOM     35  C   UNL     1      -4.441  17.859  24.694  0.00  0.00    +0.000 C 
ENDBRANCH  10  34
TORSDOF 6
ENDMDL
MODEL 3
REMARK VINA RESULT:      -6.9      3.091      6.680
REMARK  Name = 
REMARK  10 active torsions:
REMARK  status: ('A' for Active; 'I' for Inactive)
REMARK    1  A    between atoms: C_1  and  C_2
REMARK    2  A    between atoms: C_2  and  O_3
REMARK    3  A    between atoms: O_3  and  C_4
REMARK    4  A    between atoms: C_4  and  C_6
REMARK    5  A    between atoms: C_15  and  O_16
REMARK    6  A    between atoms: O_16  and  C_17
REMARK    7  A    between atoms: N_20  and  C_21
REMARK    8  A    between atoms: N_25  and  S_26
REMARK    9  A    between atoms: S_26  and  C_29
REMARK   10  A    between atoms: C_32  and  C_33
REMARK                            x       y       z     vdW  Elec       q    Type
REMARK                         _______ _______ _______ _____ _____    ______ ____
ROOT
ATOM      1  C   UNL     1      -3.208  15.311  20.693  0.00  0.00    +0.000 C 
ATOM      2  C   UNL     1      -4.427  15.131  21.309  0.00  0.00    +0.000 C 
ATOM      3  C   UNL     1      -4.835  13.826  21.959  0.00  0.00    +0.000 C 
ATOM      4  C   UNL     1      -3.672  12.850  21.736  0.00  0.00    +0.000 C 
ATOM      5  C   UNL     1      -3.759  12.315  20.183  0.00  0.00    +0.000 A 
ATOM      6  C   UNL     1      -2.674  12.345  19.319  0.00  0.00    +0.000 A 
ATOM      7  C   UNL     1      -2.867  11.344  18.378  0.00  0.00    +0.000 A 
ATOM      8  C   UNL     1      -2.027  10.573  17.567  0.00  0.00    +0.000 A 
ATOM      9  C   UNL     1      -2.446  10.273  16.276  0.00  0.00    +0.000 A 
ATOM     10  C   UNL     1      -3.639  10.800  15.785  0.00  0.00    +0.000 A 
ATOM     11  C   UNL     1      -4.543  11.479  16.635  0.00  0.00    +0.000 A 
ATOM     12  C   UNL     1      -4.164  11.664  17.990  0.00  0.00    +0.000 A 
ATOM     13  N   UNL     1      -4.742  12.295  19.131  0.00  0.00    +0.000 N 
ATOM     14  C   UNL     1      -5.898  13.163  18.976  0.00  0.00    +0.000 C 
ATOM     15  C   UNL     1      -1.733  13.456  19.404  0.00  0.00    +0.000 C 
ATOM     16  O   UNL     1      -0.693  13.504  18.752  0.00  0.00    +0.000 OA
ATOM     17  C   UNL     1      -2.013  14.321  20.648  0.00  0.00    +0.000 C 
ATOM     18  N   UNL     1      -2.388  13.792  21.987  0.00  0.00    +0.000 NA
ENDROOT
BRANCH  18  19
ATOM     19  S   UNL     1      -0.905  13.716  22.863  0.00  0.00    +0.000 S 
ATOM     20  O   UNL     1       0.060  14.578  22.235  0.00  0.00    +0.000 OA
ATOM     21  O   UNL     1      -1.155  13.805  24.295  0.00  0.00    +0.000 OA
BRANCH  19  22
ATOM     22  C   UNL     1      -0.435  11.970  22.538  0.00  0.00    +0.000 A 
ATOM     23  C   UNL     1       0.449  11.781  21.481  0.00  0.00    +0.000 A 
ATOM     24  C   UNL     1       0.783  10.494  21.051  0.00  0.00    +0.000 A 
ATOM     25  C   UNL     1       0.248   9.362  21.675  0.00  0.00    +0.000 A 
ATOM     26  C   UNL     1       0.620   7.993  21.164  0.00  0.00    +0.000 C 
ATOM     27  C   UNL     1      -0.631   9.546  22.751  0.00  0.00    +0.000 A 
ATOM     28  C   UNL     1      -0.980  10.846  23.196  0.00  0.00    +0.000 A 
ENDBRANCH  19  22
ENDBRANCH  18  19
BRANCH   1  29
ATOM     29  C   UNL     1      -2.879  16.758  20.755  0.00  0.00    +0.000 C 
ATOM     30  O   UNL     1      -3.665  17.617  21.124  0.00  0.00    +0.000 OA
BRANCH  29  31
ATOM     31  O   UNL     1      -1.621  17.006  20.228  0.00  0.00    +0.000 OA
BRANCH  31  33
ATOM     32  C   UNL     1      -0.521  17.207  18.082  0.00  0.00    +0.000 C 
ATOM     33  C   UNL     1      -1.706  17.603  18.956  0.00  0.00    +0.000 C 
ENDBRANCH  31  33
ENDBRANCH  29  31
ENDBRANCH   1  29
BRANCH  10  34
ATOM     34  O   UNL     1      -3.849  10.542  14.455  0.00  0.00    +0.000 OA
ATOM     35  C   UNL     1      -2.853   9.762  13.805  0.00  0.00    +0.000 C 
ENDBRANCH  10  34
TORSDOF 6
ENDMDL
MODEL 4
REMARK VINA RESULT:      -6.9      3.936      8.543
REMARK  Name = 
REMARK  10 active torsions:
REMARK  status: ('A' for Active; 'I' for Inactive)
REMARK    1  A    between atoms: C_1  and  C_2
REMARK    2  A    between atoms: C_2  and  O_3
REMARK    3  A    between atoms: O_3  and  C_4
REMARK    4  A    between atoms: C_4  and  C_6
REMARK    5  A    between atoms: C_15  and  O_16
REMARK    6  A    between atoms: O_16  and  C_17
REMARK    7  A    between atoms: N_20  and  C_21
REMARK    8  A    between atoms: N_25  and  S_26
REMARK    9  A    between atoms: S_26  and  C_29
REMARK   10  A    between atoms: C_32  and  C_33
REMARK                            x       y       z     vdW  Elec       q    Type
REMARK                         _______ _______ _______ _____ _____    ______ ____
ROOT
ATOM      1  C   UNL     1      -4.564  14.711  20.658  0.00  0.00    +0.000 C 
ATOM      2  C   UNL     1      -5.941  14.706  20.629  0.00  0.00    +0.000 C 
ATOM      3  C   UNL     1      -6.763  13.454  20.849  0.00  0.00    +0.000 C 
ATOM      4  C   UNL     1      -5.762  12.309  21.050  0.00  0.00    +0.000 C 
ATOM      5  C   UNL     1      -5.181  11.887  19.569  0.00  0.00    +0.000 A 
ATOM      6  C   UNL     1      -3.824  11.783  19.300  0.00  0.00    +0.000 A 
ATOM      7  C   UNL     1      -3.679  10.885  18.251  0.00  0.00    +0.000 A 
ATOM      8  C   UNL     1      -2.661  10.032  17.813  0.00  0.00    +0.000 A 
ATOM      9  C   UNL     1      -2.464   9.883  16.445  0.00  0.00    +0.000 A 
ATOM     10  C   UNL     1      -3.215  10.633  15.543  0.00  0.00    +0.000 A 
ATOM     11  C   UNL     1      -4.319  11.405  15.974  0.00  0.00    +0.000 A 
ATOM     12  C   UNL     1      -4.595  11.444  17.366  0.00  0.00    +0.000 A 
ATOM     13  N   UNL     1      -5.555  12.097  18.195  0.00  0.00    +0.000 N 
ATOM     14  C   UNL     1      -6.388  13.156  17.650  0.00  0.00    +0.000 C 
ATOM     15  C   UNL     1      -2.901  12.710  19.944  0.00  0.00    +0.000 C 
ATOM     16  O   UNL     1      -1.681  12.619  19.843  0.00  0.00    +0.000 OA
ATOM     17  C   UNL     1      -3.619  13.536  21.029  0.00  0.00    +0.000 C 
ATOM     18  N   UNL     1      -4.636  13.002  21.973  0.00  0.00    +0.000 NA
ENDROOT
BRANCH  18  19
ATOM     19  S   UNL     1      -3.755  12.623  23.405  0.00  0.00    +0.000 S 
ATOM     20  O   UNL     1      -4.643  12.014  24.359  0.00  0.00    +0.000 OA
ATOM     21  O   UNL     1      -2.485  11.995  23.071  0.00  0.00    +0.000 OA
BRANCH  19  22
ATOM     22  C   UNL     1      -3.345  14.319  23.982  0.00  0.00    +0.000 A 
ATOM     23  C   UNL     1      -1.988  14.577  24.149  0.00  0.00    +0.000 A 
ATOM     24  C   UNL     1      -1.554  15.783  24.704  0.00  0.00    +0.000 A 
ATOM     25  C   UNL     1      -2.467  16.767  25.098  0.00  0.00    +0.000 A 
ATOM     26  C   UNL     1      -1.955  18.045  25.712  0.00  0.00    +0.000 C 
ATOM     27  C   UNL     1      -3.835  16.519  24.918  0.00  0.00    +0.000 A 
ATOM     28  C   UNL     1      -4.289  15.299  24.358  0.00  0.00    +0.000 A 
ENDBRANCH  19  22
ENDBRANCH  18  19
BRANCH   1  29
ATOM     29  C   UNL     1      -4.126  16.075  21.050  0.00  0.00    +0.000 C 
ATOM     30  O   UNL     1      -4.892  17.009  21.227  0.00  0.00    +0.000 OA
BRANCH  29  31
ATOM     31  O   UNL     1      -2.743  16.168  21.065  0.00  0.00    +0.000 OA
BRANCH  31  33
ATOM     32  C   UNL     1      -0.801  17.540  21.521  0.00  0.00    +0.000 C 
ATOM     33  C   UNL     1      -2.319  17.469  21.399  0.00  0.00    +0.000 C 
ENDBRANCH  31  33
ENDBRANCH  29  31
ENDBRANCH   1  29
BRANCH  10  34
ATOM     34  O   UNL     1      -2.812  10.492  14.240  0.00  0.00    +0.000 OA
ATOM     35  C   UNL     1      -3.781   9.974  13.337  0.00  0.00    +0.000 C 
ENDBRANCH  10  34
TORSDOF 6
ENDMDL
MODEL 5
REMARK VINA RESULT:      -6.8      2.855      6.787
REMARK  Name = 
REMARK  10 active torsions:
REMARK  status: ('A' for Active; 'I' for Inactive)
REMARK    1  A    between atoms: C_1  and  C_2
REMARK    2  A    between atoms: C_2  and  O_3
REMARK    3  A    between atoms: O_3  and  C_4
REMARK    4  A    between atoms: C_4  and  C_6
REMARK    5  A    between atoms: C_15  and  O_16
REMARK    6  A    between atoms: O_16  and  C_17
REMARK    7  A    between atoms: N_20  and  C_21
REMARK    8  A    between atoms: N_25  and  S_26
REMARK    9  A    between atoms: S_26  and  C_29
REMARK   10  A    between atoms: C_32  and  C_33
REMARK                            x       y       z     vdW  Elec       q    Type
REMARK                         _______ _______ _______ _____ _____    ______ ____
ROOT
ATOM      1  C   UNL     1      -3.113  15.294  20.503  0.00  0.00    +0.000 C 
ATOM      2  C   UNL     1      -4.320  15.178  21.155  0.00  0.00    +0.000 C 
ATOM      3  C   UNL     1      -4.743  13.920  21.883  0.00  0.00    +0.000 C 
ATOM      4  C   UNL     1      -3.610  12.905  21.687  0.00  0.00    +0.000 C 
ATOM      5  C   UNL     1      -3.746  12.290  20.167  0.00  0.00    +0.000 A 
ATOM      6  C   UNL     1      -2.682  12.247  19.278  0.00  0.00    +0.000 A 
ATOM      7  C   UNL     1      -2.921  11.202  18.397  0.00  0.00    +0.000 A 
ATOM      8  C   UNL     1      -2.120  10.369  17.609  0.00  0.00    +0.000 A 
ATOM      9  C   UNL     1      -2.576  10.011  16.347  0.00  0.00    +0.000 A 
ATOM     10  C   UNL     1      -3.768  10.540  15.855  0.00  0.00    +0.000 A 
ATOM     11  C   UNL     1      -4.635  11.286  16.687  0.00  0.00    +0.000 A 
ATOM     12  C   UNL     1      -4.219  11.534  18.022  0.00  0.00    +0.000 A 
ATOM     13  N   UNL     1      -4.754  12.239  19.140  0.00  0.00    +0.000 N 
ATOM     14  C   UNL     1      -5.893  13.126  18.965  0.00  0.00    +0.000 C 
ATOM     15  C   UNL     1      -1.713  13.337  19.282  0.00  0.00    +0.000 C 
ATOM     16  O   UNL     1      -0.689  13.324  18.605  0.00  0.00    +0.000 OA
ATOM     17  C   UNL     1      -1.943  14.274  20.484  0.00  0.00    +0.000 C 
ATOM     18  N   UNL     1      -2.298  13.826  21.857  0.00  0.00    +0.000 NA
ENDROOT
BRANCH  18  19
ATOM     19  S   UNL     1      -0.797  13.759  22.703  0.00  0.00    +0.000 S 
ATOM     20  O   UNL     1       0.166  14.585  22.023  0.00  0.00    +0.000 OA
ATOM     21  O   UNL     1      -1.013  13.903  24.135  0.00  0.00    +0.000 OA
BRANCH  19  22
ATOM     22  C   UNL     1      -0.358  11.996  22.429  0.00  0.00    +0.000 A 
ATOM     23  C   UNL     1       0.527  11.761  21.382  0.00  0.00    +0.000 A 
ATOM     24  C   UNL     1       0.839  10.457  20.991  0.00  0.00    +0.000 A 
ATOM     25  C   UNL     1       0.280   9.353  21.644  0.00  0.00    +0.000 A 
ATOM     26  C   UNL     1       0.628   7.963  21.175  0.00  0.00    +0.000 C 
ATOM     27  C   UNL     1      -0.600   9.584  22.710  0.00  0.00    +0.000 A 
ATOM     28  C   UNL     1      -0.927  10.902  23.116  0.00  0.00    +0.000 A 
ENDBRANCH  19  22
ENDBRANCH  18  19
BRANCH   1  29
ATOM     29  C   UNL     1      -2.748  16.734  20.480  0.00  0.00    +0.000 C 
ATOM     30  O   UNL     1      -1.976  17.225  19.671  0.00  0.00    +0.000 OA
BRANCH  29  31
ATOM     31  O   UNL     1      -3.300  17.404  21.561  0.00  0.00    +0.000 OA
BRANCH  31  33
ATOM     32  C   UNL     1      -2.247  17.186  23.730  0.00  0.00    +0.000 C 
ATOM     33  C   UNL     1      -2.301  17.933  22.401  0.00  0.00    +0.000 C 
ENDBRANCH  31  33
ENDBRANCH  29  31
ENDBRANCH   1  29
BRANCH  10  34
ATOM     34  O   UNL     1      -4.016  10.218  14.546  0.00  0.00    +0.000 OA
ATOM     35  C   UNL     1      -2.885   9.835  13.772  0.00  0.00    +0.000 C 
ENDBRANCH  10  34
TORSDOF 6
ENDMDL
MODEL 6
REMARK VINA RESULT:      -6.7      3.106      6.671
REMARK  Name = 
REMARK  10 active torsions:
REMARK  status: ('A' for Active; 'I' for Inactive)
REMARK    1  A    between atoms: C_1  and  C_2
REMARK    2  A    between atoms: C_2  and  O_3
REMARK    3  A    between atoms: O_3  and  C_4
REMARK    4  A    between atoms: C_4  and  C_6
REMARK    5  A    between atoms: C_15  and  O_16
REMARK    6  A    between atoms: O_16  and  C_17
REMARK    7  A    between atoms: N_20  and  C_21
REMARK    8  A    between atoms: N_25  and  S_26
REMARK    9  A    between atoms: S_26  and  C_29
REMARK   10  A    between atoms: C_32  and  C_33
REMARK                            x       y       z     vdW  Elec       q    Type
REMARK                         _______ _______ _______ _____ _____    ______ ____
ROOT
ATOM      1  C   UNL     1      -3.210  15.294  20.624  0.00  0.00    +0.000 C 
ATOM      2  C   UNL     1      -4.415  15.125  21.269  0.00  0.00    +0.000 C 
ATOM      3  C   UNL     1      -4.807  13.833  21.954  0.00  0.00    +0.000 C 
ATOM      4  C   UNL     1      -3.647  12.855  21.729  0.00  0.00    +0.000 C 
ATOM      5  C   UNL     1      -3.765  12.287  20.189  0.00  0.00    +0.000 A 
ATOM      6  C   UNL     1      -2.698  12.301  19.303  0.00  0.00    +0.000 A 
ATOM      7  C   UNL     1      -2.908  11.279  18.387  0.00  0.00    +0.000 A 
ATOM      8  C   UNL     1      -2.084  10.493  17.575  0.00  0.00    +0.000 A 
ATOM      9  C   UNL     1      -2.528  10.165  16.300  0.00  0.00    +0.000 A 
ATOM     10  C   UNL     1      -3.732  10.679  15.823  0.00  0.00    +0.000 A 
ATOM     11  C   UNL     1      -4.620  11.374  16.676  0.00  0.00    +0.000 A 
ATOM     12  C   UNL     1      -4.213  11.589  18.019  0.00  0.00    +0.000 A 
ATOM     13  N   UNL     1      -4.769  12.243  19.158  0.00  0.00    +0.000 N 
ATOM     14  C   UNL     1      -5.930  13.106  19.009  0.00  0.00    +0.000 C 
ATOM     15  C   UNL     1      -1.757  13.414  19.344  0.00  0.00    +0.000 C 
ATOM     16  O   UNL     1      -0.732  13.450  18.670  0.00  0.00    +0.000 OA
ATOM     17  C   UNL     1      -2.014  14.305  20.576  0.00  0.00    +0.000 C 
ATOM     18  N   UNL     1      -2.360  13.804  21.933  0.00  0.00    +0.000 NA
ENDROOT
BRANCH  18  19
ATOM     19  S   UNL     1      -0.860  13.748  22.780  0.00  0.00    +0.000 S 
ATOM     20  O   UNL     1       0.092  14.595  22.111  0.00  0.00    +0.000 OA
ATOM     21  O   UNL     1      -1.079  13.872  24.214  0.00  0.00    +0.000 OA
BRANCH  19  22
ATOM     22  C   UNL     1      -0.396  11.995  22.487  0.00  0.00    +0.000 A 
ATOM     23  C   UNL     1       0.501  11.784  21.444  0.00  0.00    +0.000 A 
ATOM     24  C   UNL     1       0.833  10.490  21.039  0.00  0.00    +0.000 A 
ATOM     25  C   UNL     1       0.283   9.370  21.673  0.00  0.00    +0.000 A 
ATOM     26  C   UNL     1       0.653   7.992  21.189  0.00  0.00    +0.000 C 
ATOM     27  C   UNL     1      -0.609   9.576  22.734  0.00  0.00    +0.000 A 
ATOM     28  C   UNL     1      -0.956  10.885  23.155  0.00  0.00    +0.000 A 
ENDBRANCH  19  22
ENDBRANCH  18  19
BRANCH   1  29
ATOM     29  C   UNL     1      -2.883  16.742  20.649  0.00  0.00    +0.000 C 
ATOM     30  O   UNL     1      -1.788  17.185  20.957  0.00  0.00    +0.000 OA
BRANCH  29  31
ATOM     31  O   UNL     1      -4.009  17.511  20.401  0.00  0.00    +0.000 OA
BRANCH  31  33
ATOM     32  C   UNL     1      -5.376  18.243  18.541  0.00  0.00    +0.000 C 
ATOM     33  C   UNL     1      -3.971  18.076  19.111  0.00  0.00    +0.000 C 
ENDBRANCH  31  33
ENDBRANCH  29  31
ENDBRANCH   1  29
BRANCH  10  34
ATOM     34  O   UNL     1      -3.969  10.393  14.503  0.00  0.00    +0.000 OA
ATOM     35  C   UNL     1      -2.892   9.795  13.790  0.00  0.00    +0.000 C 
ENDBRANCH  10  34
TORSDOF 6
ENDMDL
MODEL 7
REMARK VINA RESULT:      -6.7      3.795      8.402
REMARK  Name = 
REMARK  10 active torsions:
REMARK  status: ('A' for Active; 'I' for Inactive)
REMARK    1  A    between atoms: C_1  and  C_2
REMARK    2  A    between atoms: C_2  and  O_3
REMARK    3  A    between atoms: O_3  and  C_4
REMARK    4  A    between atoms: C_4  and  C_6
REMARK    5  A    between atoms: C_15  and  O_16
REMARK    6  A    between atoms: O_16  and  C_17
REMARK    7  A    between atoms: N_20  and  C_21
REMARK    8  A    between atoms: N_25  and  S_26
REMARK    9  A    between atoms: S_26  and  C_29
REMARK   10  A    between atoms: C_32  and  C_33
REMARK                            x       y       z     vdW  Elec       q    Type
REMARK                         _______ _______ _______ _____ _____    ______ ____
ROOT
ATOM      1  C   UNL     1      -4.036  14.723  20.703  0.00  0.00    +0.000 C 
ATOM      2  C   UNL     1      -5.409  14.837  20.731  0.00  0.00    +0.000 C 
ATOM      3  C   UNL     1      -6.326  13.656  20.967  0.00  0.00    +0.000 C 
ATOM      4  C   UNL     1      -5.421  12.426  21.109  0.00  0.00    +0.000 C 
ATOM      5  C   UNL     1      -4.939  11.983  19.600  0.00  0.00    +0.000 A 
ATOM      6  C   UNL     1      -3.608  11.767  19.273  0.00  0.00    +0.000 A 
ATOM      7  C   UNL     1      -3.584  10.879  18.207  0.00  0.00    +0.000 A 
ATOM      8  C   UNL     1      -2.662   9.949  17.714  0.00  0.00    +0.000 A 
ATOM      9  C   UNL     1      -2.534   9.808  16.337  0.00  0.00    +0.000 A 
ATOM     10  C   UNL     1      -3.253  10.636  15.478  0.00  0.00    +0.000 A 
ATOM     11  C   UNL     1      -4.267  11.492  15.965  0.00  0.00    +0.000 A 
ATOM     12  C   UNL     1      -4.482  11.530  17.368  0.00  0.00    +0.000 A 
ATOM     13  N   UNL     1      -5.348  12.248  18.246  0.00  0.00    +0.000 N 
ATOM     14  C   UNL     1      -6.107  13.385  17.751  0.00  0.00    +0.000 C 
ATOM     15  C   UNL     1      -2.583  12.600  19.891  0.00  0.00    +0.000 C 
ATOM     16  O   UNL     1      -1.380  12.406  19.738  0.00  0.00    +0.000 OA
ATOM     17  C   UNL     1      -3.182  13.465  21.017  0.00  0.00    +0.000 C 
ATOM     18  N   UNL     1      -4.203  13.004  21.995  0.00  0.00    +0.000 NA
ENDROOT
BRANCH  18  19
ATOM     19  S   UNL     1      -3.301  12.525  23.384  0.00  0.00    +0.000 S 
ATOM     20  O   UNL     1      -4.163  11.802  24.281  0.00  0.00    +0.000 OA
ATOM     21  O   UNL     1      -2.014  11.971  22.989  0.00  0.00    +0.000 OA
BRANCH  19  22
ATOM     22  C   UNL     1      -2.943  14.173  24.112  0.00  0.00    +0.000 A 
ATOM     23  C   UNL     1      -4.061  14.928  24.451  0.00  0.00    +0.000 A 
ATOM     24  C   UNL     1      -3.926  16.246  24.893  0.00  0.00    +0.000 A 
ATOM     25  C   UNL     1      -2.666  16.841  25.016  0.00  0.00    +0.000 A 
ATOM     26  C   UNL     1      -2.568  18.273  25.477  0.00  0.00    +0.000 C 
ATOM     27  C   UNL     1      -1.534  16.081  24.690  0.00  0.00    +0.000 A 
ATOM     28  C   UNL     1      -1.658  14.743  24.238  0.00  0.00    +0.000 A 
ENDBRANCH  19  22
ENDBRANCH  18  19
BRANCH   1  29
ATOM     29  C   UNL     1      -3.466  16.037  21.096  0.00  0.00    +0.000 C 
ATOM     30  O   UNL     1      -4.142  17.024  21.338  0.00  0.00    +0.000 OA
BRANCH  29  31
ATOM     31  O   UNL     1      -2.081  16.019  21.027  0.00  0.00    +0.000 OA
BRANCH  31  33
ATOM     32  C   UNL     1      -1.495  17.974  19.725  0.00  0.00    +0.000 C 
ATOM     33  C   UNL     1      -1.623  16.455  19.769  0.00  0.00    +0.000 C 
ENDBRANCH  31  33
ENDBRANCH  29  31
ENDBRANCH   1  29
BRANCH  10  34
ATOM     34  O   UNL     1      -2.916  10.485  14.158  0.00  0.00    +0.000 OA
ATOM     35  C   UNL     1      -3.912   9.911  13.319  0.00  0.00    +0.000 C 
ENDBRANCH  10  34
TORSDOF 6
ENDMDL
MODEL 8
REMARK VINA RESULT:      -6.6      2.790      6.539
REMARK  Name = 
REMARK  10 active torsions:
REMARK  status: ('A' for Active; 'I' for Inactive)
REMARK    1  A    between atoms: C_1  and  C_2
REMARK    2  A    between atoms: C_2  and  O_3
REMARK    3  A    between atoms: O_3  and  C_4
REMARK    4  A    between atoms: C_4  and  C_6
REMARK    5  A    between atoms: C_15  and  O_16
REMARK    6  A    between atoms: O_16  and  C_17
REMARK    7  A    between atoms: N_20  and  C_21
REMARK    8  A    between atoms: N_25  and  S_26
REMARK    9  A    between atoms: S_26  and  C_29
REMARK   10  A    between atoms: C_32  and  C_33
REMARK                            x       y       z     vdW  Elec       q    Type
REMARK                         _______ _______ _______ _____ _____    ______ ____
ROOT
ATOM      1  C   UNL     1       0.073  10.457  20.412  0.00  0.00    +0.000 C 
ATOM      2  C   UNL     1       0.382  10.131  19.110  0.00  0.00    +0.000 C 
ATOM      3  C   UNL     1       0.252  11.112  17.965  0.00  0.00    +0.000 C 
ATOM      4  C   UNL     1      -0.296  12.412  18.568  0.00  0.00    +0.000 C 
ATOM      5  C   UNL     1      -1.910  12.206  18.816  0.00  0.00    +0.000 A 
ATOM      6  C   UNL     1      -2.521  12.479  20.031  0.00  0.00    +0.000 A 
ATOM      7  C   UNL     1      -3.849  12.783  19.766  0.00  0.00    +0.000 A 
ATOM      8  C   UNL     1      -4.838  13.537  20.406  0.00  0.00    +0.000 A 
ATOM      9  C   UNL     1      -6.145  13.064  20.391  0.00  0.00    +0.000 A 
ATOM     10  C   UNL     1      -6.437  11.828  19.819  0.00  0.00    +0.000 A 
ATOM     11  C   UNL     1      -5.468  11.120  19.073  0.00  0.00    +0.000 A 
ATOM     12  C   UNL     1      -4.166  11.680  18.981  0.00  0.00    +0.000 A 
ATOM     13  N   UNL     1      -2.933  11.294  18.376  0.00  0.00    +0.000 N 
ATOM     14  C   UNL     1      -2.763   9.944  17.865  0.00  0.00    +0.000 C 
ATOM     15  C   UNL     1      -1.796  12.205  21.266  0.00  0.00    +0.000 C 
ATOM     16  O   UNL     1      -2.220  12.516  22.375  0.00  0.00    +0.000 OA
ATOM     17  C   UNL     1      -0.325  11.848  20.973  0.00  0.00    +0.000 C 
ATOM     18  N   UNL     1       0.526  12.515  19.951  0.00  0.00    +0.000 NA
ENDROOT
BRANCH  18  19
ATOM     19  S   UNL     1       1.405  13.715  20.822  0.00  0.00    +0.000 S 
ATOM     20  O   UNL     1       0.882  13.806  22.160  0.00  0.00    +0.000 OA
ATOM     21  O   UNL     1       2.836  13.562  20.597  0.00  0.00    +0.000 OA
BRANCH  19  22
ATOM     22  C   UNL     1       0.902  15.215  19.889  0.00  0.00    +0.000 A 
ATOM     23  C   UNL     1      -0.437  15.573  20.019  0.00  0.00    +0.000 A 
ATOM     24  C   UNL     1      -0.973  16.616  19.261  0.00  0.00    +0.000 A 
ATOM     25  C   UNL     1      -0.181  17.336  18.360  0.00  0.00    +0.000 A 
ATOM     26  C   UNL     1      -0.807  18.441  17.547  0.00  0.00    +0.000 C 
ATOM     27  C   UNL     1       1.171  16.991  18.236  0.00  0.00    +0.000 A 
ATOM     28  C   UNL     1       1.728  15.932  18.998  0.00  0.00    +0.000 A 
ENDBRANCH  19  22
ENDBRANCH  18  19
BRANCH   1  29
ATOM     29  C   UNL     1       0.879   9.581  21.300  0.00  0.00    +0.000 C 
ATOM     30  O   UNL     1       1.076   9.811  22.483  0.00  0.00    +0.000 OA
BRANCH  29  31
ATOM     31  O   UNL     1       1.469   8.551  20.583  0.00  0.00    +0.000 OA
BRANCH  31  33
ATOM     32  C   UNL     1       1.878   6.172  20.397  0.00  0.00    +0.000 C 
ATOM     33  C   UNL     1       1.298   7.311  21.229  0.00  0.00    +0.000 C 
ENDBRANCH  31  33
ENDBRANCH  29  31
ENDBRANCH   1  29
BRANCH  10  34
ATOM     34  O   UNL     1      -7.734  11.427  20.009  0.00  0.00    +0.000 OA
ATOM     35  C   UNL     1      -7.916  10.239  20.771  0.00  0.00    +0.000 C 
ENDBRANCH  10  34
TORSDOF 6
ENDMDL
MODEL 9
REMARK VINA RESULT:      -6.6      2.797      7.255
REMARK  Name = 
REMARK  10 active torsions:
REMARK  status: ('A' for Active; 'I' for Inactive)
REMARK    1  A    between atoms: C_1  and  C_2
REMARK    2  A    between atoms: C_2  and  O_3
REMARK    3  A    between atoms: O_3  and  C_4
REMARK    4  A    between atoms: C_4  and  C_6
REMARK    5  A    between atoms: C_15  and  O_16
REMARK    6  A    between atoms: O_16  and  C_17
REMARK    7  A    between atoms: N_20  and  C_21
REMARK    8  A    between atoms: N_25  and  S_26
REMARK    9  A    between atoms: S_26  and  C_29
REMARK   10  A    between atoms: C_32  and  C_33
REMARK                            x       y       z     vdW  Elec       q    Type
REMARK                         _______ _______ _______ _____ _____    ______ ____
ROOT
ATOM      1  C   UNL     1      -3.123  12.699  21.538  0.00  0.00    +0.000 C 
ATOM      2  C   UNL     1      -2.901  12.353  22.852  0.00  0.00    +0.000 C 
ATOM      3  C   UNL     1      -1.622  12.693  23.587  0.00  0.00    +0.000 C 
ATOM      4  C   UNL     1      -0.720  13.411  22.575  0.00  0.00    +0.000 C 
ATOM      5  C   UNL     1      -0.065  12.269  21.590  0.00  0.00    +0.000 A 
ATOM      6  C   UNL     1      -0.110  12.359  20.206  0.00  0.00    +0.000 A 
ATOM      7  C   UNL     1       0.971  11.643  19.710  0.00  0.00    +0.000 A 
ATOM      8  C   UNL     1       1.736  11.691  18.540  0.00  0.00    +0.000 A 
ATOM      9  C   UNL     1       2.162  10.494  17.978  0.00  0.00    +0.000 A 
ATOM     10  C   UNL     1       1.762   9.278  18.529  0.00  0.00    +0.000 A 
ATOM     11  C   UNL     1       1.089   9.225  19.771  0.00  0.00    +0.000 A 
ATOM     12  C   UNL     1       0.776  10.455  20.406  0.00  0.00    +0.000 A 
ATOM     13  N   UNL     1       0.105  10.839  21.605  0.00  0.00    +0.000 N 
ATOM     14  C   UNL     1      -0.662   9.859  22.357  0.00  0.00    +0.000 C 
ATOM     15  C   UNL     1      -1.289  12.936  19.572  0.00  0.00    +0.000 C 
ATOM     16  O   UNL     1      -1.365  13.149  18.366  0.00  0.00    +0.000 OA
ATOM     17  C   UNL     1      -2.222  13.571  20.622  0.00  0.00    +0.000 C 
ATOM     18  N   UNL     1      -1.769  14.358  21.800  0.00  0.00    +0.000 NA
ENDROOT
BRANCH  18  19
ATOM     19  S   UNL     1      -1.867  16.004  21.296  0.00  0.00    +0.000 S 
ATOM     20  O   UNL     1      -2.965  16.153  20.379  0.00  0.00    +0.000 OA
ATOM     21  O   UNL     1      -1.734  16.895  22.440  0.00  0.00    +0.000 OA
BRANCH  19  22
ATOM     22  C   UNL     1      -0.293  16.143  20.359  0.00  0.00    +0.000 A 
ATOM     23  C   UNL     1      -0.427  16.517  19.026  0.00  0.00    +0.000 A 
ATOM     24  C   UNL     1       0.680  16.533  18.174  0.00  0.00    +0.000 A 
ATOM     25  C   UNL     1       1.953  16.184  18.637  0.00  0.00    +0.000 A 
ATOM     26  C   UNL     1       3.116  16.194  17.678  0.00  0.00    +0.000 C 
ATOM     27  C   UNL     1       2.097  15.821  19.983  0.00  0.00    +0.000 A 
ATOM     28  C   UNL     1       0.982  15.798  20.858  0.00  0.00    +0.000 A 
ENDBRANCH  19  22
ENDBRANCH  18  19
BRANCH   1  29
ATOM     29  C   UNL     1      -4.591  12.814  21.342  0.00  0.00    +0.000 C 
ATOM     30  O   UNL     1      -5.106  13.382  20.392  0.00  0.00    +0.000 OA
BRANCH  29  31
ATOM     31  O   UNL     1      -5.280  12.306  22.433  0.00  0.00    +0.000 OA
BRANCH  31  33
ATOM     32  C   UNL     1      -7.004  12.920  24.017  0.00  0.00    +0.000 C 
ATOM     33  C   UNL     1      -6.549  12.902  22.561  0.00  0.00    +0.000 C 
ENDBRANCH  31  33
ENDBRANCH  29  31
ENDBRANCH   1  29
BRANCH  10  34
ATOM     34  O   UNL     1       2.133   8.188  17.785  0.00  0.00    +0.000 OA
ATOM     35  C   UNL     1       2.576   7.052  18.519  0.00  0.00    +0.000 C 
ENDBRANCH  10  34
TORSDOF 6
ENDMDL
