MODEL 1
REMARK VINA RESULT:      -7.6      0.000      0.000
REMARK  Name = 
REMARK  2 active torsions:
REMARK  status: ('A' for Active; 'I' for Inactive)
REMARK    1  A    between atoms: N_7  and  C_8
REMARK    2  A    between atoms: C_8  and  C_9
REMARK                            x       y       z     vdW  Elec       q    Type
REMARK                         _______ _______ _______ _____ _____    ______ ____
ROOT
ATOM      1  O   UNL     1       8.677   5.979  13.193  0.00  0.00    +0.000 OA
ATOM      2  C   UNL     1       7.744   5.215  13.360  0.00  0.00    +0.000 C 
ATOM      3  N   UNL     1       7.140   4.447  12.365  0.00  0.00    +0.000 N 
ATOM      4  C   UNL     1       6.213   3.505  12.951  0.00  0.00    +0.000 C 
ATOM      5  C   UNL     1       5.879   4.179  14.273  0.00  0.00    +0.000 C 
ATOM      6  C   UNL     1       5.499   3.285  15.457  0.00  0.00    +0.000 C 
ATOM      7  N   UNL     1       5.416   4.043  16.741  0.00  0.00    +0.000 NA
ATOM      8  C   UNL     1       6.729   4.693  16.994  0.00  0.00    +0.000 C 
ATOM      9  C   UNL     1       7.317   5.539  15.838  0.00  0.00    +0.000 C 
ATOM     10  N   UNL     1       7.094   4.918  14.545  0.00  0.00    +0.000 N 
ATOM     11  H   UNL     1       7.573   4.383  11.453  0.00  0.00    +0.000 HD
ENDROOT
BRANCH   7  12
ATOM     12  C   UNL     1       4.297   4.995  16.700  0.00  0.00    +0.000 C 
BRANCH  12  13
ATOM     13  C   UNL     1       3.534   5.230  17.990  0.00  0.00    +0.000 A 
ATOM     14  C   UNL     1       3.546   6.526  18.525  0.00  0.00    +0.000 A 
ATOM     15  C   UNL     1       2.705   6.819  19.578  0.00  0.00    +0.000 A 
ATOM     16  N   UNL     1       1.851   5.932  20.118  0.00  0.00    +0.000 NA
ATOM     17  C   UNL     1       1.846   4.679  19.630  0.00  0.00    +0.000 A 
ATOM     18  C   UNL     1       0.935   3.778  20.162  0.00  0.00    +0.000 A 
ATOM     19  C   UNL     1       0.870   2.451  19.729  0.00  0.00    +0.000 A 
ATOM     20  C   UNL     1       1.750   2.006  18.755  0.00  0.00    +0.000 A 
ATOM     21  C   UNL     1       2.651   2.900  18.182  0.00  0.00    +0.000 A 
ATOM     22  C   UNL     1       2.702   4.256  18.585  0.00  0.00    +0.000 A 
ENDBRANCH  12  13
ENDBRANCH   7  12
TORSDOF 2
ENDMDL
MODEL 2
REMARK VINA RESULT:      -7.5      2.898      6.944
REMARK  Name = 
REMARK  2 active torsions:
REMARK  status: ('A' for Active; 'I' for Inactive)
REMARK    1  A    between atoms: N_7  and  C_8
REMARK    2  A    between atoms: C_8  and  C_9
REMARK                            x       y       z     vdW  Elec       q    Type
REMARK                         _______ _______ _______ _____ _____    ______ ____
ROOT
ATOM      1  O   UNL     1       2.207   3.555  22.321  0.00  0.00    +0.000 OA
ATOM      2  C   UNL     1       1.859   3.364  21.171  0.00  0.00    +0.000 C 
ATOM      3  N   UNL     1       0.913   2.427  20.757  0.00  0.00    +0.000 N 
ATOM      4  C   UNL     1       0.595   2.617  19.360  0.00  0.00    +0.000 C 
ATOM      5  C   UNL     1       1.842   3.325  18.850  0.00  0.00    +0.000 C 
ATOM      6  C   UNL     1       1.687   4.282  17.664  0.00  0.00    +0.000 C 
ATOM      7  N   UNL     1       2.926   5.076  17.408  0.00  0.00    +0.000 NA
ATOM      8  C   UNL     1       3.263   5.839  18.638  0.00  0.00    +0.000 C 
ATOM      9  C   UNL     1       3.335   5.030  19.956  0.00  0.00    +0.000 C 
ATOM     10  N   UNL     1       2.289   4.028  20.034  0.00  0.00    +0.000 N 
ATOM     11  H   UNL     1       0.348   1.951  21.447  0.00  0.00    +0.000 HD
ENDROOT
BRANCH   7  12
ATOM     12  C   UNL     1       4.013   4.195  16.956  0.00  0.00    +0.000 C 
BRANCH  12  13
ATOM     13  C   UNL     1       5.232   4.853  16.338  0.00  0.00    +0.000 A 
ATOM     14  C   UNL     1       6.043   5.631  17.176  0.00  0.00    +0.000 A 
ATOM     15  C   UNL     1       7.259   6.075  16.699  0.00  0.00    +0.000 A 
ATOM     16  N   UNL     1       7.727   5.789  15.471  0.00  0.00    +0.000 NA
ATOM     17  C   UNL     1       6.948   5.064  14.650  0.00  0.00    +0.000 A 
ATOM     18  C   UNL     1       7.451   4.736  13.398  0.00  0.00    +0.000 A 
ATOM     19  C   UNL     1       6.706   4.000  12.473  0.00  0.00    +0.000 A 
ATOM     20  C   UNL     1       5.419   3.599  12.795  0.00  0.00    +0.000 A 
ATOM     21  C   UNL     1       4.905   3.887  14.057  0.00  0.00    +0.000 A 
ATOM     22  C   UNL     1       5.663   4.599  15.017  0.00  0.00    +0.000 A 
ENDBRANCH  12  13
ENDBRANCH   7  12
TORSDOF 2
ENDMDL
MODEL 3
REMARK VINA RESULT:      -7.5      2.072      3.390
REMARK  Name = 
REMARK  2 active torsions:
REMARK  status: ('A' for Active; 'I' for Inactive)
REMARK    1  A    between atoms: N_7  and  C_8
REMARK    2  A    between atoms: C_8  and  C_9
REMARK                            x       y       z     vdW  Elec       q    Type
REMARK                         _______ _______ _______ _____ _____    ______ ____
ROOT
ATOM      1  O   UNL     1       7.744   6.827  18.397  0.00  0.00    +0.000 OA
ATOM      2  C   UNL     1       7.259   6.174  17.491  0.00  0.00    +0.000 C 
ATOM      3  N   UNL     1       7.570   6.310  16.139  0.00  0.00    +0.000 N 
ATOM      4  C   UNL     1       6.970   5.240  15.375  0.00  0.00    +0.000 C 
ATOM      5  C   UNL     1       5.814   4.827  16.273  0.00  0.00    +0.000 C 
ATOM      6  C   UNL     1       5.344   3.371  16.211  0.00  0.00    +0.000 C 
ATOM      7  N   UNL     1       4.366   3.041  17.291  0.00  0.00    +0.000 NA
ATOM      8  C   UNL     1       5.001   3.316  18.606  0.00  0.00    +0.000 C 
ATOM      9  C   UNL     1       5.640   4.715  18.787  0.00  0.00    +0.000 C 
ATOM     10  N   UNL     1       6.326   5.156  17.587  0.00  0.00    +0.000 N 
ATOM     11  H   UNL     1       8.357   6.883  15.864  0.00  0.00    +0.000 HD
ENDROOT
BRANCH   7  12
ATOM     12  C   UNL     1       3.112   3.780  17.086  0.00  0.00    +0.000 C 
BRANCH  12  13
ATOM     13  C   UNL     1       2.232   4.008  18.300  0.00  0.00    +0.000 A 
ATOM     14  C   UNL     1       1.691   2.878  18.931  0.00  0.00    +0.000 A 
ATOM     15  C   UNL     1       1.057   3.034  20.145  0.00  0.00    +0.000 A 
ATOM     16  N   UNL     1       0.939   4.214  20.779  0.00  0.00    +0.000 NA
ATOM     17  C   UNL     1       1.432   5.309  20.174  0.00  0.00    +0.000 A 
ATOM     18  C   UNL     1       1.346   6.519  20.848  0.00  0.00    +0.000 A 
ATOM     19  C   UNL     1       1.815   7.711  20.290  0.00  0.00    +0.000 A 
ATOM     20  C   UNL     1       2.367   7.699  19.019  0.00  0.00    +0.000 A 
ATOM     21  C   UNL     1       2.495   6.492  18.335  0.00  0.00    +0.000 A 
ATOM     22  C   UNL     1       2.058   5.273  18.905  0.00  0.00    +0.000 A 
ENDBRANCH  12  13
ENDBRANCH   7  12
TORSDOF 2
ENDMDL
MODEL 4
REMARK VINA RESULT:      -7.4      1.575      3.155
REMARK  Name = 
REMARK  2 active torsions:
REMARK  status: ('A' for Active; 'I' for Inactive)
REMARK    1  A    between atoms: N_7  and  C_8
REMARK    2  A    between atoms: C_8  and  C_9
REMARK                            x       y       z     vdW  Elec       q    Type
REMARK                         _______ _______ _______ _____ _____    ______ ____
ROOT
ATOM      1  O   UNL     1       8.466   5.749  13.759  0.00  0.00    +0.000 OA
ATOM      2  C   UNL     1       7.439   5.162  14.048  0.00  0.00    +0.000 C 
ATOM      3  N   UNL     1       6.704   4.348  13.187  0.00  0.00    +0.000 N 
ATOM      4  C   UNL     1       5.670   3.649  13.918  0.00  0.00    +0.000 C 
ATOM      5  C   UNL     1       5.474   4.557  15.123  0.00  0.00    +0.000 C 
ATOM      6  C   UNL     1       5.006   3.916  16.433  0.00  0.00    +0.000 C 
ATOM      7  N   UNL     1       5.068   4.864  17.586  0.00  0.00    +0.000 NA
ATOM      8  C   UNL     1       6.467   5.348  17.726  0.00  0.00    +0.000 C 
ATOM      9  C   UNL     1       7.134   5.915  16.449  0.00  0.00    +0.000 C 
ATOM     10  N   UNL     1       6.788   5.145  15.270  0.00  0.00    +0.000 N 
ATOM     11  H   UNL     1       7.096   4.085  12.293  0.00  0.00    +0.000 HD
ENDROOT
BRANCH   7  12
ATOM     12  C   UNL     1       4.094   5.950  17.407  0.00  0.00    +0.000 C 
BRANCH  12  13
ATOM     13  C   UNL     1       3.082   6.168  18.515  0.00  0.00    +0.000 A 
ATOM     14  C   UNL     1       2.926   5.145  19.461  0.00  0.00    +0.000 A 
ATOM     15  C   UNL     1       2.167   5.390  20.586  0.00  0.00    +0.000 A 
ATOM     16  N   UNL     1       1.575   6.570  20.843  0.00  0.00    +0.000 NA
ATOM     17  C   UNL     1       1.698   7.551  19.933  0.00  0.00    +0.000 A 
ATOM     18  C   UNL     1       1.121   8.781  20.221  0.00  0.00    +0.000 A 
ATOM     19  C   UNL     1       1.182   9.852  19.326  0.00  0.00    +0.000 A 
ATOM     20  C   UNL     1       1.818   9.689  18.105  0.00  0.00    +0.000 A 
ATOM     21  C   UNL     1       2.433   8.475  17.808  0.00  0.00    +0.000 A 
ATOM     22  C   UNL     1       2.410   7.394  18.721  0.00  0.00    +0.000 A 
ENDBRANCH  12  13
ENDBRANCH   7  12
TORSDOF 2
ENDMDL
MODEL 5
REMARK VINA RESULT:      -7.4      3.833      6.145
REMARK  Name = 
REMARK  2 active torsions:
REMARK  status: ('A' for Active; 'I' for Inactive)
REMARK    1  A    between atoms: N_7  and  C_8
REMARK    2  A    between atoms: C_8  and  C_9
REMARK                            x       y       z     vdW  Elec       q    Type
REMARK                         _______ _______ _______ _____ _____    ______ ____
ROOT
ATOM      1  O   UNL     1       4.104   2.059  19.603  0.00  0.00    +0.000 OA
ATOM      2  C   UNL     1       4.454   3.178  19.278  0.00  0.00    +0.000 C 
ATOM      3  N   UNL     1       5.774   3.616  19.176  0.00  0.00    +0.000 N 
ATOM      4  C   UNL     1       5.824   4.925  18.566  0.00  0.00    +0.000 C 
ATOM      5  C   UNL     1       4.434   5.463  18.869  0.00  0.00    +0.000 C 
ATOM      6  C   UNL     1       3.827   6.471  17.888  0.00  0.00    +0.000 C 
ATOM      7  N   UNL     1       2.386   6.746  18.172  0.00  0.00    +0.000 NA
ATOM      8  C   UNL     1       1.638   5.463  18.113  0.00  0.00    +0.000 C 
ATOM      9  C   UNL     1       2.200   4.294  18.958  0.00  0.00    +0.000 C 
ATOM     10  N   UNL     1       3.650   4.247  18.920  0.00  0.00    +0.000 N 
ATOM     11  H   UNL     1       6.527   2.943  19.229  0.00  0.00    +0.000 HD
ENDROOT
BRANCH   7  12
ATOM     12  C   UNL     1       2.244   7.442  19.459  0.00  0.00    +0.000 C 
BRANCH  12  13
ATOM     13  C   UNL     1       1.493   8.759  19.459  0.00  0.00    +0.000 A 
ATOM     14  C   UNL     1       1.278   9.384  18.223  0.00  0.00    +0.000 A 
ATOM     15  C   UNL     1       0.432  10.471  18.165  0.00  0.00    +0.000 A 
ATOM     16  N   UNL     1      -0.221  10.965  19.233  0.00  0.00    +0.000 NA
ATOM     17  C   UNL     1      -0.006  10.389  20.428  0.00  0.00    +0.000 A 
ATOM     18  C   UNL     1      -0.712  10.874  21.520  0.00  0.00    +0.000 A 
ATOM     19  C   UNL     1      -0.539  10.350  22.804  0.00  0.00    +0.000 A 
ATOM     20  C   UNL     1       0.377   9.330  23.008  0.00  0.00    +0.000 A 
ATOM     21  C   UNL     1       1.074   8.804  21.923  0.00  0.00    +0.000 A 
ATOM     22  C   UNL     1       0.880   9.301  20.611  0.00  0.00    +0.000 A 
ENDBRANCH  12  13
ENDBRANCH   7  12
TORSDOF 2
ENDMDL
MODEL 6
REMARK VINA RESULT:      -7.4      0.891      2.282
REMARK  Name = 
REMARK  2 active torsions:
REMARK  status: ('A' for Active; 'I' for Inactive)
REMARK    1  A    between atoms: N_7  and  C_8
REMARK    2  A    between atoms: C_8  and  C_9
REMARK                            x       y       z     vdW  Elec       q    Type
REMARK                         _______ _______ _______ _____ _____    ______ ____
ROOT
ATOM      1  O   UNL     1       8.639   6.058  13.115  0.00  0.00    +0.000 OA
ATOM      2  C   UNL     1       7.746   5.245  13.268  0.00  0.00    +0.000 C 
ATOM      3  N   UNL     1       7.150   4.497  12.254  0.00  0.00    +0.000 N 
ATOM      4  C   UNL     1       6.283   3.487  12.817  0.00  0.00    +0.000 C 
ATOM      5  C   UNL     1       5.954   4.084  14.178  0.00  0.00    +0.000 C 
ATOM      6  C   UNL     1       5.647   3.118  15.327  0.00  0.00    +0.000 C 
ATOM      7  N   UNL     1       5.565   3.812  16.648  0.00  0.00    +0.000 NA
ATOM      8  C   UNL     1       6.854   4.509  16.898  0.00  0.00    +0.000 C 
ATOM      9  C   UNL     1       7.372   5.433  15.769  0.00  0.00    +0.000 C 
ATOM     10  N   UNL     1       7.142   4.864  14.455  0.00  0.00    +0.000 N 
ATOM     11  H   UNL     1       7.560   4.495  11.330  0.00  0.00    +0.000 HD
ENDROOT
BRANCH   7  12
ATOM     12  C   UNL     1       4.404   4.713  16.680  0.00  0.00    +0.000 C 
BRANCH  12  13
ATOM     13  C   UNL     1       3.224   4.297  17.537  0.00  0.00    +0.000 A 
ATOM     14  C   UNL     1       2.787   2.968  17.440  0.00  0.00    +0.000 A 
ATOM     15  C   UNL     1       1.855   2.507  18.346  0.00  0.00    +0.000 A 
ATOM     16  N   UNL     1       1.345   3.258  19.338  0.00  0.00    +0.000 NA
ATOM     17  C   UNL     1       1.738   4.540  19.428  0.00  0.00    +0.000 A 
ATOM     18  C   UNL     1       1.242   5.300  20.478  0.00  0.00    +0.000 A 
ATOM     19  C   UNL     1       1.581   6.646  20.640  0.00  0.00    +0.000 A 
ATOM     20  C   UNL     1       2.420   7.255  19.721  0.00  0.00    +0.000 A 
ATOM     21  C   UNL     1       2.957   6.505  18.677  0.00  0.00    +0.000 A 
ATOM     22  C   UNL     1       2.651   5.131  18.523  0.00  0.00    +0.000 A 
ENDBRANCH  12  13
ENDBRANCH   7  12
TORSDOF 2
ENDMDL
MODEL 7
REMARK VINA RESULT:      -7.3      2.713      5.966
REMARK  Name = 
REMARK  2 active torsions:
REMARK  status: ('A' for Active; 'I' for Inactive)
REMARK    1  A    between atoms: N_7  and  C_8
REMARK    2  A    between atoms: C_8  and  C_9
REMARK                            x       y       z     vdW  Elec       q    Type
REMARK                         _______ _______ _______ _____ _____    ______ ____
ROOT
ATOM      1  O   UNL     1       3.910   0.838  18.566  0.00  0.00    +0.000 OA
ATOM      2  C   UNL     1       3.127   1.770  18.587  0.00  0.00    +0.000 C 
ATOM      3  N   UNL     1       1.744   1.669  18.442  0.00  0.00    +0.000 N 
ATOM      4  C   UNL     1       1.114   2.938  18.729  0.00  0.00    +0.000 C 
ATOM      5  C   UNL     1       2.250   3.915  18.466  0.00  0.00    +0.000 C 
ATOM      6  C   UNL     1       2.258   5.230  19.253  0.00  0.00    +0.000 C 
ATOM      7  N   UNL     1       3.530   5.993  19.073  0.00  0.00    +0.000 NA
ATOM      8  C   UNL     1       4.664   5.133  19.504  0.00  0.00    +0.000 C 
ATOM      9  C   UNL     1       4.728   3.713  18.890  0.00  0.00    +0.000 C 
ATOM     10  N   UNL     1       3.412   3.112  18.779  0.00  0.00    +0.000 N 
ATOM     11  H   UNL     1       1.307   0.757  18.461  0.00  0.00    +0.000 HD
ENDROOT
BRANCH   7  12
ATOM     12  C   UNL     1       3.653   6.461  17.685  0.00  0.00    +0.000 C 
BRANCH  12  13
ATOM     13  C   UNL     1       5.049   6.555  17.102  0.00  0.00    +0.000 A 
ATOM     14  C   UNL     1       5.963   7.406  17.740  0.00  0.00    +0.000 A 
ATOM     15  C   UNL     1       7.288   7.363  17.361  0.00  0.00    +0.000 A 
ATOM     16  N   UNL     1       7.767   6.532  16.419  0.00  0.00    +0.000 NA
ATOM     17  C   UNL     1       6.898   5.727  15.783  0.00  0.00    +0.000 A 
ATOM     18  C   UNL     1       7.402   4.842  14.840  0.00  0.00    +0.000 A 
ATOM     19  C   UNL     1       6.571   3.981  14.118  0.00  0.00    +0.000 A 
ATOM     20  C   UNL     1       5.202   4.018  14.326  0.00  0.00    +0.000 A 
ATOM     21  C   UNL     1       4.676   4.874  15.291  0.00  0.00    +0.000 A 
ATOM     22  C   UNL     1       5.510   5.724  16.056  0.00  0.00    +0.000 A 
ENDBRANCH  12  13
ENDBRANCH   7  12
TORSDOF 2
ENDMDL
MODEL 8
REMARK VINA RESULT:      -7.3      3.779      6.316
REMARK  Name = 
REMARK  2 active torsions:
REMARK  status: ('A' for Active; 'I' for Inactive)
REMARK    1  A    between atoms: N_7  and  C_8
REMARK    2  A    between atoms: C_8  and  C_9
REMARK                            x       y       z     vdW  Elec       q    Type
REMARK                         _______ _______ _______ _____ _____    ______ ____
ROOT
ATOM      1  O   UNL     1       4.819   2.003  20.539  0.00  0.00    +0.000 OA
ATOM      2  C   UNL     1       4.533   2.857  19.721  0.00  0.00    +0.000 C 
ATOM      3  N   UNL     1       5.196   3.076  18.514  0.00  0.00    +0.000 N 
ATOM      4  C   UNL     1       4.464   4.022  17.703  0.00  0.00    +0.000 C 
ATOM      5  C   UNL     1       3.666   4.780  18.753  0.00  0.00    +0.000 C 
ATOM      6  C   UNL     1       2.318   5.375  18.336  0.00  0.00    +0.000 C 
ATOM      7  N   UNL     1       1.538   5.892  19.501  0.00  0.00    +0.000 NA
ATOM      8  C   UNL     1       1.329   4.779  20.463  0.00  0.00    +0.000 C 
ATOM      9  C   UNL     1       2.589   3.988  20.892  0.00  0.00    +0.000 C 
ATOM     10  N   UNL     1       3.498   3.775  19.782  0.00  0.00    +0.000 N 
ATOM     11  H   UNL     1       5.879   2.403  18.192  0.00  0.00    +0.000 HD
ENDROOT
BRANCH   7  12
ATOM     12  C   UNL     1       2.218   7.052  20.096  0.00  0.00    +0.000 C 
BRANCH  12  13
ATOM     13  C   UNL     1       1.614   8.419  19.842  0.00  0.00    +0.000 A 
ATOM     14  C   UNL     1       1.636   8.904  18.526  0.00  0.00    +0.000 A 
ATOM     15  C   UNL     1       0.922  10.045  18.226  0.00  0.00    +0.000 A 
ATOM     16  N   UNL     1       0.183  10.720  19.124  0.00  0.00    +0.000 NA
ATOM     17  C   UNL     1       0.171  10.279  20.393  0.00  0.00    +0.000 A 
ATOM     18  C   UNL     1      -0.625  10.953  21.309  0.00  0.00    +0.000 A 
ATOM     19  C   UNL     1      -0.685  10.577  22.653  0.00  0.00    +0.000 A 
ATOM     20  C   UNL     1       0.084   9.514  23.101  0.00  0.00    +0.000 A 
ATOM     21  C   UNL     1       0.866   8.801  22.195  0.00  0.00    +0.000 A 
ATOM     22  C   UNL     1       0.907   9.149  20.823  0.00  0.00    +0.000 A 
ENDBRANCH  12  13
ENDBRANCH   7  12
TORSDOF 2
ENDMDL
MODEL 9
REMARK VINA RESULT:      -7.2      1.047      1.047
REMARK  Name = 
REMARK  2 active torsions:
REMARK  status: ('A' for Active; 'I' for Inactive)
REMARK    1  A    between atoms: N_7  and  C_8
REMARK    2  A    between atoms: C_8  and  C_9
REMARK                            x       y       z     vdW  Elec       q    Type
REMARK                         _______ _______ _______ _____ _____    ______ ____
ROOT
ATOM      1  O   UNL     1       8.609   5.862  13.464  0.00  0.00    +0.000 OA
ATOM      2  C   UNL     1       7.632   5.169  13.679  0.00  0.00    +0.000 C 
ATOM      3  N   UNL     1       6.955   4.407  12.727  0.00  0.00    +0.000 N 
ATOM      4  C   UNL     1       5.982   3.551  13.368  0.00  0.00    +0.000 C 
ATOM      5  C   UNL     1       5.724   4.294  14.671  0.00  0.00    +0.000 C 
ATOM      6  C   UNL     1       5.315   3.470  15.895  0.00  0.00    +0.000 C 
ATOM      7  N   UNL     1       5.313   4.278  17.152  0.00  0.00    +0.000 NA
ATOM      8  C   UNL     1       6.671   4.847  17.351  0.00  0.00    +0.000 C 
ATOM      9  C   UNL     1       7.285   5.610  16.152  0.00  0.00    +0.000 C 
ATOM     10  N   UNL     1       6.992   4.959  14.889  0.00  0.00    +0.000 N 
ATOM     11  H   UNL     1       7.360   4.282  11.810  0.00  0.00    +0.000 HD
ENDROOT
BRANCH   7  12
ATOM     12  C   UNL     1       4.258   5.300  17.099  0.00  0.00    +0.000 C 
BRANCH  12  13
ATOM     13  C   UNL     1       3.530   5.618  18.391  0.00  0.00    +0.000 A 
ATOM     14  C   UNL     1       2.955   6.890  18.516  0.00  0.00    +0.000 A 
ATOM     15  C   UNL     1       2.120   7.141  19.585  0.00  0.00    +0.000 A 
ATOM     16  N   UNL     1       1.807   6.224  20.517  0.00  0.00    +0.000 NA
ATOM     17  C   UNL     1       2.371   5.007  20.422  0.00  0.00    +0.000 A 
ATOM     18  C   UNL     1       2.014   4.050  21.362  0.00  0.00    +0.000 A 
ATOM     19  C   UNL     1       2.563   2.765  21.352  0.00  0.00    +0.000 A 
ATOM     20  C   UNL     1       3.506   2.431  20.393  0.00  0.00    +0.000 A 
ATOM     21  C   UNL     1       3.856   3.364  19.419  0.00  0.00    +0.000 A 
ATOM     22  C   UNL     1       3.280   4.657  19.395  0.00  0.00    +0.000 A 
ENDBRANCH  12  13
ENDBRANCH   7  12
TORSDOF 2
ENDMDL
