MODEL 1
REMARK VINA RESULT:      -8.1      0.000      0.000
REMARK  Name = 
REMARK  11 active torsions:
REMARK  status: ('A' for Active; 'I' for Inactive)
REMARK    1  A    between atoms: C_1  and  O_2
REMARK    2  A    between atoms: O_2  and  C_3
REMARK    3  A    between atoms: C_6  and  C_7
REMARK    4  A    between atoms: C_7  and  C_9
REMARK    5  A    between atoms: C_10  and  N_11
REMARK    6  A    between atoms: N_11  and  C_12
REMARK    7  A    between atoms: C_15  and  S_16
REMARK    8  A    between atoms: S_16  and  N_19
REMARK    9  A    between atoms: N_19  and  C_20
REMARK   10  A    between atoms: C_23  and  C_24
REMARK   11  A    between atoms: C_25  and  C_26
REMARK                            x       y       z     vdW  Elec       q    Type
REMARK                         _______ _______ _______ _____ _____    ______ ____
ROOT
ATOM      1  C   UNL     1       2.536   6.681  19.708  0.00  0.00    +0.000 A 
ATOM      2  C   UNL     1       2.895   7.148  18.437  0.00  0.00    +0.000 A 
ATOM      3  C   UNL     1       3.656   6.363  17.567  0.00  0.00    +0.000 A 
ATOM      4  C   UNL     1       4.051   5.085  17.956  0.00  0.00    +0.000 A 
ATOM      5  C   UNL     1       3.658   4.569  19.192  0.00  0.00    +0.000 A 
ATOM      6  C   UNL     1       2.908   5.372  20.061  0.00  0.00    +0.000 A 
ENDROOT
BRANCH   4   7
ATOM      7  S   UNL     1       4.992   4.095  16.825  0.00  0.00    +0.000 S 
ATOM      8  O   UNL     1       4.603   2.710  17.004  0.00  0.00    +0.000 OA
ATOM      9  O   UNL     1       4.941   4.717  15.520  0.00  0.00    +0.000 OA
BRANCH   7  10
ATOM     10  N   UNL     1       6.554   4.195  17.493  0.00  0.00    +0.000 N 
ATOM     11  H   UNL     1       7.116   3.554  16.931  0.00  0.00    +0.000 HD
BRANCH  10  12
ATOM     12  C   UNL     1       7.061   5.523  17.482  0.00  0.00    +0.000 A 
ATOM     13  O   UNL     1       7.025   6.341  16.398  0.00  0.00    +0.000 OA
ATOM     14  N   UNL     1       7.535   7.582  16.736  0.00  0.00    +0.000 NA
ATOM     15  C   UNL     1       7.908   7.482  18.018  0.00  0.00    +0.000 A 
ATOM     16  C   UNL     1       8.552   8.631  18.697  0.00  0.00    +0.000 C 
ATOM     17  C   UNL     1       7.621   6.193  18.549  0.00  0.00    +0.000 A 
ATOM     18  C   UNL     1       7.920   5.673  19.901  0.00  0.00    +0.000 C 
ENDBRANCH  10  12
ENDBRANCH   7  10
ENDBRANCH   4   7
BRANCH   1  19
ATOM     19  N   UNL     1       1.750   7.433  20.600  0.00  0.00    +0.000 N 
ATOM     20  H   UNL     1       1.510   6.963  21.467  0.00  0.00    +0.000 HD
BRANCH  19  22
ATOM     21  C   UNL     1       0.306   9.328  21.060  0.00  0.00    +0.000 C 
ATOM     22  C   UNL     1       1.369   8.748  20.485  0.00  0.00    +0.000 C 
BRANCH  21  23
ATOM     23  C   UNL     1      -0.010  10.752  20.751  0.00  0.00    +0.000 C 
ATOM     24  O   UNL     1       0.638  11.675  21.229  0.00  0.00    +0.000 OA
BRANCH  23  28
ATOM     25  C   UNL     1      -3.153  11.523  17.916  0.00  0.00    +0.000 A 
ATOM     26  C   UNL     1      -2.105  10.652  17.614  0.00  0.00    +0.000 A 
ATOM     27  C   UNL     1      -1.095  10.406  18.549  0.00  0.00    +0.000 A 
ATOM     28  C   UNL     1      -1.119  11.039  19.799  0.00  0.00    +0.000 A 
ATOM     29  C   UNL     1      -2.153  11.935  20.088  0.00  0.00    +0.000 A 
ATOM     30  C   UNL     1      -3.167  12.172  19.151  0.00  0.00    +0.000 A 
BRANCH  25  32
ATOM     31  C   UNL     1      -5.425  11.835  17.340  0.00  0.00    +0.000 C 
ATOM     32  O   UNL     1      -4.071  11.703  16.920  0.00  0.00    +0.000 OA
ENDBRANCH  25  32
ENDBRANCH  23  28
ENDBRANCH  21  23
ENDBRANCH  19  22
ENDBRANCH   1  19
TORSDOF 8
ENDMDL
MODEL 2
REMARK VINA RESULT:      -8.1      1.003      1.385
REMARK  Name = 
REMARK  11 active torsions:
REMARK  status: ('A' for Active; 'I' for Inactive)
REMARK    1  A    between atoms: C_1  and  O_2
REMARK    2  A    between atoms: O_2  and  C_3
REMARK    3  A    between atoms: C_6  and  C_7
REMARK    4  A    between atoms: C_7  and  C_9
REMARK    5  A    between atoms: C_10  and  N_11
REMARK    6  A    between atoms: N_11  and  C_12
REMARK    7  A    between atoms: C_15  and  S_16
REMARK    8  A    between atoms: S_16  and  N_19
REMARK    9  A    between atoms: N_19  and  C_20
REMARK   10  A    between atoms: C_23  and  C_24
REMARK   11  A    between atoms: C_25  and  C_26
REMARK                            x       y       z     vdW  Elec       q    Type
REMARK                         _______ _______ _______ _____ _____    ______ ____
ROOT
ATOM      1  C   UNL     1       2.042   6.506  20.422  0.00  0.00    +0.000 A 
ATOM      2  C   UNL     1       2.223   5.174  20.821  0.00  0.00    +0.000 A 
ATOM      3  C   UNL     1       2.848   4.248  19.982  0.00  0.00    +0.000 A 
ATOM      4  C   UNL     1       3.318   4.653  18.734  0.00  0.00    +0.000 A 
ATOM      5  C   UNL     1       3.206   5.985  18.334  0.00  0.00    +0.000 A 
ATOM      6  C   UNL     1       2.564   6.901  19.179  0.00  0.00    +0.000 A 
ENDROOT
BRANCH   4   7
ATOM      7  S   UNL     1       4.133   3.467  17.698  0.00  0.00    +0.000 S 
ATOM      8  O   UNL     1       3.813   2.141  18.190  0.00  0.00    +0.000 OA
ATOM      9  O   UNL     1       3.894   3.823  16.317  0.00  0.00    +0.000 OA
BRANCH   7  10
ATOM     10  N   UNL     1       5.765   3.702  18.120  0.00  0.00    +0.000 N 
ATOM     11  H   UNL     1       6.254   2.903  17.715  0.00  0.00    +0.000 HD
BRANCH  10  12
ATOM     12  C   UNL     1       6.268   4.947  17.655  0.00  0.00    +0.000 A 
ATOM     13  O   UNL     1       6.027   5.448  16.415  0.00  0.00    +0.000 OA
ATOM     14  N   UNL     1       6.600   6.702  16.302  0.00  0.00    +0.000 NA
ATOM     15  C   UNL     1       7.216   6.925  17.470  0.00  0.00    +0.000 A 
ATOM     16  C   UNL     1       7.987   8.173  17.678  0.00  0.00    +0.000 C 
ATOM     17  C   UNL     1       7.030   5.842  18.375  0.00  0.00    +0.000 A 
ATOM     18  C   UNL     1       7.584   5.684  19.737  0.00  0.00    +0.000 C 
ENDBRANCH  10  12
ENDBRANCH   7  10
ENDBRANCH   4   7
BRANCH   1  19
ATOM     19  N   UNL     1       1.440   7.471  21.251  0.00  0.00    +0.000 N 
ATOM     20  H   UNL     1       1.473   7.269  22.244  0.00  0.00    +0.000 HD
BRANCH  19  22
ATOM     21  C   UNL     1       1.089   9.313  19.712  0.00  0.00    +0.000 C 
ATOM     22  C   UNL     1       0.918   8.688  20.885  0.00  0.00    +0.000 C 
BRANCH  21  23
ATOM     23  C   UNL     1       0.521  10.678  19.518  0.00  0.00    +0.000 C 
ATOM     24  O   UNL     1       1.129  11.685  19.858  0.00  0.00    +0.000 OA
BRANCH  23  28
ATOM     25  C   UNL     1      -3.267  10.967  17.497  0.00  0.00    +0.000 A 
ATOM     26  C   UNL     1      -2.284  10.075  17.066  0.00  0.00    +0.000 A 
ATOM     27  C   UNL     1      -1.061   9.988  17.738  0.00  0.00    +0.000 A 
ATOM     28  C   UNL     1      -0.805  10.802  18.848  0.00  0.00    +0.000 A 
ATOM     29  C   UNL     1      -1.779  11.718  19.260  0.00  0.00    +0.000 A 
ATOM     30  C   UNL     1      -3.006  11.796  18.588  0.00  0.00    +0.000 A 
BRANCH  25  32
ATOM     31  C   UNL     1      -5.456  11.822  17.234  0.00  0.00    +0.000 C 
ATOM     32  O   UNL     1      -4.413  10.982  16.752  0.00  0.00    +0.000 OA
ENDBRANCH  25  32
ENDBRANCH  23  28
ENDBRANCH  21  23
ENDBRANCH  19  22
ENDBRANCH   1  19
TORSDOF 8
ENDMDL
MODEL 3
REMARK VINA RESULT:      -8.0      5.198      7.698
REMARK  Name = 
REMARK  11 active torsions:
REMARK  status: ('A' for Active; 'I' for Inactive)
REMARK    1  A    between atoms: C_1  and  O_2
REMARK    2  A    between atoms: O_2  and  C_3
REMARK    3  A    between atoms: C_6  and  C_7
REMARK    4  A    between atoms: C_7  and  C_9
REMARK    5  A    between atoms: C_10  and  N_11
REMARK    6  A    between atoms: N_11  and  C_12
REMARK    7  A    between atoms: C_15  and  S_16
REMARK    8  A    between atoms: S_16  and  N_19
REMARK    9  A    between atoms: N_19  and  C_20
REMARK   10  A    between atoms: C_23  and  C_24
REMARK   11  A    between atoms: C_25  and  C_26
REMARK                            x       y       z     vdW  Elec       q    Type
REMARK                         _______ _______ _______ _____ _____    ______ ____
ROOT
ATOM      1  C   UNL     1       8.293   8.138  18.568  0.00  0.00    +0.000 A 
ATOM      2  C   UNL     1       8.405   6.863  19.138  0.00  0.00    +0.000 A 
ATOM      3  C   UNL     1       7.656   5.787  18.656  0.00  0.00    +0.000 A 
ATOM      4  C   UNL     1       6.795   5.973  17.576  0.00  0.00    +0.000 A 
ATOM      5  C   UNL     1       6.707   7.217  16.949  0.00  0.00    +0.000 A 
ATOM      6  C   UNL     1       7.452   8.291  17.452  0.00  0.00    +0.000 A 
ENDROOT
BRANCH   4   7
ATOM      7  S   UNL     1       5.876   4.587  16.962  0.00  0.00    +0.000 S 
ATOM      8  O   UNL     1       4.532   5.035  16.656  0.00  0.00    +0.000 OA
ATOM      9  O   UNL     1       6.677   3.911  15.965  0.00  0.00    +0.000 OA
BRANCH   7  10
ATOM     10  N   UNL     1       5.706   3.635  18.363  0.00  0.00    +0.000 N 
ATOM     11  H   UNL     1       6.525   3.860  18.928  0.00  0.00    +0.000 HD
BRANCH  10  12
ATOM     12  C   UNL     1       4.484   3.890  19.042  0.00  0.00    +0.000 A 
ATOM     13  O   UNL     1       4.223   5.029  19.735  0.00  0.00    +0.000 OA
ATOM     14  N   UNL     1       2.927   4.992  20.218  0.00  0.00    +0.000 NA
ATOM     15  C   UNL     1       2.434   3.807  19.838  0.00  0.00    +0.000 A 
ATOM     16  C   UNL     1       1.063   3.410  20.237  0.00  0.00    +0.000 C 
ATOM     17  C   UNL     1       3.380   3.065  19.077  0.00  0.00    +0.000 A 
ATOM     18  C   UNL     1       3.238   1.703  18.519  0.00  0.00    +0.000 C 
ENDBRANCH  10  12
ENDBRANCH   7  10
ENDBRANCH   4   7
BRANCH   1  19
ATOM     19  N   UNL     1       9.049   9.238  19.012  0.00  0.00    +0.000 N 
ATOM     20  H   UNL     1       9.717   9.034  19.747  0.00  0.00    +0.000 HD
BRANCH  19  22
ATOM     21  C   UNL     1      10.150  11.243  18.204  0.00  0.00    +0.000 C 
ATOM     22  C   UNL     1       9.066  10.512  18.498  0.00  0.00    +0.000 C 
BRANCH  21  23
ATOM     23  C   UNL     1       9.983  12.649  17.736  0.00  0.00    +0.000 C 
ATOM     24  O   UNL     1      10.745  13.153  16.920  0.00  0.00    +0.000 OA
BRANCH  23  28
ATOM     25  C   UNL     1       6.589  14.908  19.113  0.00  0.00    +0.000 A 
ATOM     26  C   UNL     1       6.615  14.350  17.833  0.00  0.00    +0.000 A 
ATOM     27  C   UNL     1       7.722  13.612  17.403  0.00  0.00    +0.000 A 
ATOM     28  C   UNL     1       8.824  13.432  18.250  0.00  0.00    +0.000 A 
ATOM     29  C   UNL     1       8.809  14.018  19.520  0.00  0.00    +0.000 A 
ATOM     30  C   UNL     1       7.694  14.750  19.949  0.00  0.00    +0.000 A 
BRANCH  25  32
ATOM     31  C   UNL     1       4.483  14.943  20.187  0.00  0.00    +0.000 C 
ATOM     32  O   UNL     1       5.467  15.625  19.416  0.00  0.00    +0.000 OA
ENDBRANCH  25  32
ENDBRANCH  23  28
ENDBRANCH  21  23
ENDBRANCH  19  22
ENDBRANCH   1  19
TORSDOF 8
ENDMDL
MODEL 4
REMARK VINA RESULT:      -8.0      1.155      1.750
REMARK  Name = 
REMARK  11 active torsions:
REMARK  status: ('A' for Active; 'I' for Inactive)
REMARK    1  A    between atoms: C_1  and  O_2
REMARK    2  A    between atoms: O_2  and  C_3
REMARK    3  A    between atoms: C_6  and  C_7
REMARK    4  A    between atoms: C_7  and  C_9
REMARK    5  A    between atoms: C_10  and  N_11
REMARK    6  A    between atoms: N_11  and  C_12
REMARK    7  A    between atoms: C_15  and  S_16
REMARK    8  A    between atoms: S_16  and  N_19
REMARK    9  A    between atoms: N_19  and  C_20
REMARK   10  A    between atoms: C_23  and  C_24
REMARK   11  A    between atoms: C_25  and  C_26
REMARK                            x       y       z     vdW  Elec       q    Type
REMARK                         _______ _______ _______ _____ _____    ______ ____
ROOT
ATOM      1  C   UNL     1       1.943   6.352  20.528  0.00  0.00    +0.000 A 
ATOM      2  C   UNL     1       2.272   5.046  20.916  0.00  0.00    +0.000 A 
ATOM      3  C   UNL     1       2.935   4.178  20.045  0.00  0.00    +0.000 A 
ATOM      4  C   UNL     1       3.297   4.619  18.774  0.00  0.00    +0.000 A 
ATOM      5  C   UNL     1       3.038   5.932  18.380  0.00  0.00    +0.000 A 
ATOM      6  C   UNL     1       2.359   6.788  19.258  0.00  0.00    +0.000 A 
ENDROOT
BRANCH   4   7
ATOM      7  S   UNL     1       4.165   3.510  17.696  0.00  0.00    +0.000 S 
ATOM      8  O   UNL     1       3.883   2.153  18.122  0.00  0.00    +0.000 OA
ATOM      9  O   UNL     1       3.932   3.922  16.330  0.00  0.00    +0.000 OA
BRANCH   7  10
ATOM     10  N   UNL     1       5.783   3.778  18.152  0.00  0.00    +0.000 N 
ATOM     11  H   UNL     1       6.295   2.987  17.759  0.00  0.00    +0.000 HD
BRANCH  10  12
ATOM     12  C   UNL     1       6.271   5.031  17.694  0.00  0.00    +0.000 A 
ATOM     13  O   UNL     1       5.970   5.566  16.481  0.00  0.00    +0.000 OA
ATOM     14  N   UNL     1       6.547   6.819  16.372  0.00  0.00    +0.000 NA
ATOM     15  C   UNL     1       7.223   7.007  17.512  0.00  0.00    +0.000 A 
ATOM     16  C   UNL     1       8.013   8.245  17.713  0.00  0.00    +0.000 C 
ATOM     17  C   UNL     1       7.075   5.902  18.397  0.00  0.00    +0.000 A 
ATOM     18  C   UNL     1       7.697   5.705  19.724  0.00  0.00    +0.000 C 
ENDBRANCH  10  12
ENDBRANCH   7  10
ENDBRANCH   4   7
BRANCH   1  19
ATOM     19  N   UNL     1       1.298   7.260  21.386  0.00  0.00    +0.000 N 
ATOM     20  H   UNL     1       1.301   7.003  22.368  0.00  0.00    +0.000 HD
BRANCH  19  22
ATOM     21  C   UNL     1       1.318   9.685  21.321  0.00  0.00    +0.000 C 
ATOM     22  C   UNL     1       0.769   8.488  21.071  0.00  0.00    +0.000 C 
BRANCH  21  23
ATOM     23  C   UNL     1       0.560  10.925  20.989  0.00  0.00    +0.000 C 
ATOM     24  O   UNL     1       0.698  11.958  21.631  0.00  0.00    +0.000 OA
BRANCH  23  28
ATOM     25  C   UNL     1      -2.159  10.905  17.654  0.00  0.00    +0.000 A 
ATOM     26  C   UNL     1      -2.453  11.610  18.822  0.00  0.00    +0.000 A 
ATOM     27  C   UNL     1      -1.556  11.613  19.894  0.00  0.00    +0.000 A 
ATOM     28  C   UNL     1      -0.353  10.900  19.811  0.00  0.00    +0.000 A 
ATOM     29  C   UNL     1      -0.074  10.168  18.652  0.00  0.00    +0.000 A 
ATOM     30  C   UNL     1      -0.973  10.175  17.577  0.00  0.00    +0.000 A 
BRANCH  25  32
ATOM     31  C   UNL     1      -2.845  10.208  15.501  0.00  0.00    +0.000 C 
ATOM     32  O   UNL     1      -3.117  10.956  16.681  0.00  0.00    +0.000 OA
ENDBRANCH  25  32
ENDBRANCH  23  28
ENDBRANCH  21  23
ENDBRANCH  19  22
ENDBRANCH   1  19
TORSDOF 8
ENDMDL
MODEL 5
REMARK VINA RESULT:      -8.0      1.779      2.280
REMARK  Name = 
REMARK  11 active torsions:
REMARK  status: ('A' for Active; 'I' for Inactive)
REMARK    1  A    between atoms: C_1  and  O_2
REMARK    2  A    between atoms: O_2  and  C_3
REMARK    3  A    between atoms: C_6  and  C_7
REMARK    4  A    between atoms: C_7  and  C_9
REMARK    5  A    between atoms: C_10  and  N_11
REMARK    6  A    between atoms: N_11  and  C_12
REMARK    7  A    between atoms: C_15  and  S_16
REMARK    8  A    between atoms: S_16  and  N_19
REMARK    9  A    between atoms: N_19  and  C_20
REMARK   10  A    between atoms: C_23  and  C_24
REMARK   11  A    between atoms: C_25  and  C_26
REMARK                            x       y       z     vdW  Elec       q    Type
REMARK                         _______ _______ _______ _____ _____    ______ ____
ROOT
ATOM      1  C   UNL     1       2.078   6.642  20.240  0.00  0.00    +0.000 A 
ATOM      2  C   UNL     1       2.326   6.625  18.860  0.00  0.00    +0.000 A 
ATOM      3  C   UNL     1       2.706   5.449  18.209  0.00  0.00    +0.000 A 
ATOM      4  C   UNL     1       2.825   4.265  18.934  0.00  0.00    +0.000 A 
ATOM      5  C   UNL     1       2.526   4.237  20.297  0.00  0.00    +0.000 A 
ATOM      6  C   UNL     1       2.160   5.427  20.941  0.00  0.00    +0.000 A 
ENDROOT
BRANCH   4   7
ATOM      7  S   UNL     1       3.280   2.778  18.081  0.00  0.00    +0.000 S 
ATOM      8  O   UNL     1       3.934   1.896  19.029  0.00  0.00    +0.000 OA
ATOM      9  O   UNL     1       2.145   2.326  17.309  0.00  0.00    +0.000 OA
BRANCH   7  10
ATOM     10  N   UNL     1       4.533   3.329  17.069  0.00  0.00    +0.000 N 
ATOM     11  H   UNL     1       4.055   3.817  16.311  0.00  0.00    +0.000 HD
BRANCH  10  12
ATOM     12  C   UNL     1       5.457   4.159  17.759  0.00  0.00    +0.000 A 
ATOM     13  O   UNL     1       5.892   3.924  19.025  0.00  0.00    +0.000 OA
ATOM     14  N   UNL     1       6.832   4.876  19.378  0.00  0.00    +0.000 NA
ATOM     15  C   UNL     1       6.924   5.699  18.326  0.00  0.00    +0.000 A 
ATOM     16  C   UNL     1       7.817   6.881  18.383  0.00  0.00    +0.000 C 
ATOM     17  C   UNL     1       6.076   5.286  17.261  0.00  0.00    +0.000 A 
ATOM     18  C   UNL     1       5.856   5.949  15.957  0.00  0.00    +0.000 C 
ENDBRANCH  10  12
ENDBRANCH   7  10
ENDBRANCH   4   7
BRANCH   1  19
ATOM     19  N   UNL     1       1.670   7.802  20.924  0.00  0.00    +0.000 N 
ATOM     20  H   UNL     1       1.856   7.803  21.921  0.00  0.00    +0.000 HD
BRANCH  19  22
ATOM     21  C   UNL     1       1.272   9.376  19.122  0.00  0.00    +0.000 C 
ATOM     22  C   UNL     1       1.156   8.959  20.390  0.00  0.00    +0.000 C 
BRANCH  21  23
ATOM     23  C   UNL     1       0.726  10.708  18.734  0.00  0.00    +0.000 C 
ATOM     24  O   UNL     1       1.453  11.677  18.557  0.00  0.00    +0.000 OA
BRANCH  23  28
ATOM     25  C   UNL     1      -3.521  11.140  18.199  0.00  0.00    +0.000 A 
ATOM     26  C   UNL     1      -2.826  11.920  19.126  0.00  0.00    +0.000 A 
ATOM     27  C   UNL     1      -1.445  11.772  19.283  0.00  0.00    +0.000 A 
ATOM     28  C   UNL     1      -0.743  10.833  18.516  0.00  0.00    +0.000 A 
ATOM     29  C   UNL     1      -1.445  10.031  17.610  0.00  0.00    +0.000 A 
ATOM     30  C   UNL     1      -2.828  10.188  17.452  0.00  0.00    +0.000 A 
BRANCH  25  32
ATOM     31  C   UNL     1      -5.347  12.026  16.986  0.00  0.00    +0.000 C 
ATOM     32  O   UNL     1      -4.870  11.354  18.147  0.00  0.00    +0.000 OA
ENDBRANCH  25  32
ENDBRANCH  23  28
ENDBRANCH  21  23
ENDBRANCH  19  22
ENDBRANCH   1  19
TORSDOF 8
ENDMDL
MODEL 6
REMARK VINA RESULT:      -7.9      5.449      7.697
REMARK  Name = 
REMARK  11 active torsions:
REMARK  status: ('A' for Active; 'I' for Inactive)
REMARK    1  A    between atoms: C_1  and  O_2
REMARK    2  A    between atoms: O_2  and  C_3
REMARK    3  A    between atoms: C_6  and  C_7
REMARK    4  A    between atoms: C_7  and  C_9
REMARK    5  A    between atoms: C_10  and  N_11
REMARK    6  A    between atoms: N_11  and  C_12
REMARK    7  A    between atoms: C_15  and  S_16
REMARK    8  A    between atoms: S_16  and  N_19
REMARK    9  A    between atoms: N_19  and  C_20
REMARK   10  A    between atoms: C_23  and  C_24
REMARK   11  A    between atoms: C_25  and  C_26
REMARK                            x       y       z     vdW  Elec       q    Type
REMARK                         _______ _______ _______ _____ _____    ______ ____
ROOT
ATOM      1  C   UNL     1       8.161   7.942  18.345  0.00  0.00    +0.000 A 
ATOM      2  C   UNL     1       7.194   8.096  17.343  0.00  0.00    +0.000 A 
ATOM      3  C   UNL     1       6.430   7.013  16.902  0.00  0.00    +0.000 A 
ATOM      4  C   UNL     1       6.614   5.758  17.480  0.00  0.00    +0.000 A 
ATOM      5  C   UNL     1       7.526   5.585  18.522  0.00  0.00    +0.000 A 
ATOM      6  C   UNL     1       8.297   6.677  18.943  0.00  0.00    +0.000 A 
ENDROOT
BRANCH   4   7
ATOM      7  S   UNL     1       5.612   4.403  16.926  0.00  0.00    +0.000 S 
ATOM      8  O   UNL     1       4.281   4.908  16.652  0.00  0.00    +0.000 OA
ATOM      9  O   UNL     1       6.349   3.669  15.921  0.00  0.00    +0.000 OA
BRANCH   7  10
ATOM     10  N   UNL     1       5.442   3.491  18.353  0.00  0.00    +0.000 N 
ATOM     11  H   UNL     1       6.296   3.677  18.880  0.00  0.00    +0.000 HD
BRANCH  10  12
ATOM     12  C   UNL     1       4.267   3.833  19.074  0.00  0.00    +0.000 A 
ATOM     13  O   UNL     1       4.125   4.974  19.800  0.00  0.00    +0.000 OA
ATOM     14  N   UNL     1       2.845   5.036  20.321  0.00  0.00    +0.000 NA
ATOM     15  C   UNL     1       2.241   3.907  19.931  0.00  0.00    +0.000 A 
ATOM     16  C   UNL     1       0.852   3.619  20.363  0.00  0.00    +0.000 C 
ATOM     17  C   UNL     1       3.097   3.105  19.125  0.00  0.00    +0.000 A 
ATOM     18  C   UNL     1       2.823   1.774  18.543  0.00  0.00    +0.000 C 
ENDBRANCH  10  12
ENDBRANCH   7  10
ENDBRANCH   4   7
BRANCH   1  19
ATOM     19  N   UNL     1       8.931   9.015  18.830  0.00  0.00    +0.000 N 
ATOM     20  H   UNL     1       9.554   8.787  19.598  0.00  0.00    +0.000 HD
BRANCH  19  22
ATOM     21  C   UNL     1       9.776  11.288  18.790  0.00  0.00    +0.000 C 
ATOM     22  C   UNL     1       9.017  10.288  18.321  0.00  0.00    +0.000 C 
BRANCH  21  23
ATOM     23  C   UNL     1       9.677  12.639  18.166  0.00  0.00    +0.000 C 
ATOM     24  O   UNL     1      10.444  12.999  17.282  0.00  0.00    +0.000 OA
BRANCH  23  28
ATOM     25  C   UNL     1       6.541  15.231  19.564  0.00  0.00    +0.000 A 
ATOM     26  C   UNL     1       7.494  14.712  20.442  0.00  0.00    +0.000 A 
ATOM     27  C   UNL     1       8.511  13.876  19.970  0.00  0.00    +0.000 A 
ATOM     28  C   UNL     1       8.581  13.545  18.611  0.00  0.00    +0.000 A 
ATOM     29  C   UNL     1       7.607  14.041  17.738  0.00  0.00    +0.000 A 
ATOM     30  C   UNL     1       6.594  14.884  18.214  0.00  0.00    +0.000 A 
BRANCH  25  32
ATOM     31  C   UNL     1       5.509  17.357  19.660  0.00  0.00    +0.000 C 
ATOM     32  O   UNL     1       5.582  16.018  20.139  0.00  0.00    +0.000 OA
ENDBRANCH  25  32
ENDBRANCH  23  28
ENDBRANCH  21  23
ENDBRANCH  19  22
ENDBRANCH   1  19
TORSDOF 8
ENDMDL
MODEL 7
REMARK VINA RESULT:      -7.9      4.032     10.819
REMARK  Name = 
REMARK  11 active torsions:
REMARK  status: ('A' for Active; 'I' for Inactive)
REMARK    1  A    between atoms: C_1  and  O_2
REMARK    2  A    between atoms: O_2  and  C_3
REMARK    3  A    between atoms: C_6  and  C_7
REMARK    4  A    between atoms: C_7  and  C_9
REMARK    5  A    between atoms: C_10  and  N_11
REMARK    6  A    between atoms: N_11  and  C_12
REMARK    7  A    between atoms: C_15  and  S_16
REMARK    8  A    between atoms: S_16  and  N_19
REMARK    9  A    between atoms: N_19  and  C_20
REMARK   10  A    between atoms: C_23  and  C_24
REMARK   11  A    between atoms: C_25  and  C_26
REMARK                            x       y       z     vdW  Elec       q    Type
REMARK                         _______ _______ _______ _____ _____    ______ ____
ROOT
ATOM      1  C   UNL     1       1.079   8.778  21.352  0.00  0.00    +0.000 A 
ATOM      2  C   UNL     1       0.503   9.238  22.543  0.00  0.00    +0.000 A 
ATOM      3  C   UNL     1      -0.242  10.420  22.578  0.00  0.00    +0.000 A 
ATOM      4  C   UNL     1      -0.434  11.149  21.406  0.00  0.00    +0.000 A 
ATOM      5  C   UNL     1       0.076  10.685  20.192  0.00  0.00    +0.000 A 
ATOM      6  C   UNL     1       0.833   9.506  20.175  0.00  0.00    +0.000 A 
ENDROOT
BRANCH   4   7
ATOM      7  S   UNL     1      -1.407  12.631  21.467  0.00  0.00    +0.000 S 
ATOM      8  O   UNL     1      -0.548  13.749  21.131  0.00  0.00    +0.000 OA
ATOM      9  O   UNL     1      -2.640  12.400  20.747  0.00  0.00    +0.000 OA
BRANCH   7  10
ATOM     10  N   UNL     1      -1.690  12.791  23.138  0.00  0.00    +0.000 N 
ATOM     11  H   UNL     1      -1.187  13.637  23.404  0.00  0.00    +0.000 HD
BRANCH  10  12
ATOM     12  C   UNL     1      -3.076  12.856  23.445  0.00  0.00    +0.000 A 
ATOM     13  O   UNL     1      -3.796  11.812  23.932  0.00  0.00    +0.000 OA
ATOM     14  N   UNL     1      -5.093  12.222  24.186  0.00  0.00    +0.000 NA
ATOM     15  C   UNL     1      -5.147  13.506  23.810  0.00  0.00    +0.000 A 
ATOM     16  C   UNL     1      -6.423  14.254  23.899  0.00  0.00    +0.000 C 
ATOM     17  C   UNL     1      -3.886  13.966  23.337  0.00  0.00    +0.000 A 
ATOM     18  C   UNL     1      -3.545  15.298  22.792  0.00  0.00    +0.000 C 
ENDBRANCH  10  12
ENDBRANCH   7  10
ENDBRANCH   4   7
BRANCH   1  19
ATOM     19  N   UNL     1       1.813   7.581  21.275  0.00  0.00    +0.000 N 
ATOM     20  H   UNL     1       2.322   7.332  22.117  0.00  0.00    +0.000 HD
BRANCH  19  22
ATOM     21  C   UNL     1       2.873   5.915  19.866  0.00  0.00    +0.000 C 
ATOM     22  C   UNL     1       1.833   6.668  20.249  0.00  0.00    +0.000 C 
BRANCH  21  23
ATOM     23  C   UNL     1       2.744   5.038  18.667  0.00  0.00    +0.000 C 
ATOM     24  O   UNL     1       1.820   4.243  18.545  0.00  0.00    +0.000 OA
BRANCH  23  28
ATOM     25  C   UNL     1       5.667   5.330  15.523  0.00  0.00    +0.000 A 
ATOM     26  C   UNL     1       5.215   4.089  15.977  0.00  0.00    +0.000 A 
ATOM     27  C   UNL     1       4.259   4.012  16.995  0.00  0.00    +0.000 A 
ATOM     28  C   UNL     1       3.749   5.180  17.577  0.00  0.00    +0.000 A 
ATOM     29  C   UNL     1       4.226   6.421  17.142  0.00  0.00    +0.000 A 
ATOM     30  C   UNL     1       5.178   6.494  16.117  0.00  0.00    +0.000 A 
BRANCH  25  32
ATOM     31  C   UNL     1       6.490   4.219  13.605  0.00  0.00    +0.000 C 
ATOM     32  O   UNL     1       6.616   5.285  14.541  0.00  0.00    +0.000 OA
ENDBRANCH  25  32
ENDBRANCH  23  28
ENDBRANCH  21  23
ENDBRANCH  19  22
ENDBRANCH   1  19
TORSDOF 8
ENDMDL
MODEL 8
REMARK VINA RESULT:      -7.8      2.441      3.248
REMARK  Name = 
REMARK  11 active torsions:
REMARK  status: ('A' for Active; 'I' for Inactive)
REMARK    1  A    between atoms: C_1  and  O_2
REMARK    2  A    between atoms: O_2  and  C_3
REMARK    3  A    between atoms: C_6  and  C_7
REMARK    4  A    between atoms: C_7  and  C_9
REMARK    5  A    between atoms: C_10  and  N_11
REMARK    6  A    between atoms: N_11  and  C_12
REMARK    7  A    between atoms: C_15  and  S_16
REMARK    8  A    between atoms: S_16  and  N_19
REMARK    9  A    between atoms: N_19  and  C_20
REMARK   10  A    between atoms: C_23  and  C_24
REMARK   11  A    between atoms: C_25  and  C_26
REMARK                            x       y       z     vdW  Elec       q    Type
REMARK                         _______ _______ _______ _____ _____    ______ ____
ROOT
ATOM      1  C   UNL     1       1.872   6.644  20.393  0.00  0.00    +0.000 A 
ATOM      2  C   UNL     1       1.719   5.345  20.896  0.00  0.00    +0.000 A 
ATOM      3  C   UNL     1       1.935   4.226  20.087  0.00  0.00    +0.000 A 
ATOM      4  C   UNL     1       2.329   4.398  18.762  0.00  0.00    +0.000 A 
ATOM      5  C   UNL     1       2.548   5.678  18.250  0.00  0.00    +0.000 A 
ATOM      6  C   UNL     1       2.314   6.791  19.067  0.00  0.00    +0.000 A 
ENDROOT
BRANCH   4   7
ATOM      7  S   UNL     1       2.626   2.964  17.762  0.00  0.00    +0.000 S 
ATOM      8  O   UNL     1       1.780   1.892  18.248  0.00  0.00    +0.000 OA
ATOM      9  O   UNL     1       2.595   3.361  16.371  0.00  0.00    +0.000 OA
BRANCH   7  10
ATOM     10  N   UNL     1       4.199   2.526  18.242  0.00  0.00    +0.000 N 
ATOM     11  H   UNL     1       4.532   1.910  17.501  0.00  0.00    +0.000 HD
BRANCH  10  12
ATOM     12  C   UNL     1       5.037   3.657  18.436  0.00  0.00    +0.000 A 
ATOM     13  O   UNL     1       5.321   4.194  19.651  0.00  0.00    +0.000 OA
ATOM     14  N   UNL     1       6.215   5.239  19.500  0.00  0.00    +0.000 NA
ATOM     15  C   UNL     1       6.430   5.342  18.183  0.00  0.00    +0.000 A 
ATOM     16  C   UNL     1       7.312   6.410  17.655  0.00  0.00    +0.000 C 
ATOM     17  C   UNL     1       5.711   4.353  17.455  0.00  0.00    +0.000 A 
ATOM     18  C   UNL     1       5.647   4.163  15.990  0.00  0.00    +0.000 C 
ENDBRANCH  10  12
ENDBRANCH   7  10
ENDBRANCH   4   7
BRANCH   1  19
ATOM     19  N   UNL     1       1.687   7.792  21.186  0.00  0.00    +0.000 N 
ATOM     20  H   UNL     1       2.024   7.717  22.139  0.00  0.00    +0.000 HD
BRANCH  19  22
ATOM     21  C   UNL     1       0.949  10.068  21.585  0.00  0.00    +0.000 C 
ATOM     22  C   UNL     1       1.212   9.019  20.793  0.00  0.00    +0.000 C 
BRANCH  21  23
ATOM     23  C   UNL     1       0.349  11.300  20.997  0.00  0.00    +0.000 C 
ATOM     24  O   UNL     1       0.910  11.932  20.111  0.00  0.00    +0.000 OA
BRANCH  23  28
ATOM     25  C   UNL     1      -3.540  12.606  22.295  0.00  0.00    +0.000 A 
ATOM     26  C   UNL     1      -3.133  12.755  20.968  0.00  0.00    +0.000 A 
ATOM     27  C   UNL     1      -1.868  12.319  20.561  0.00  0.00    +0.000 A 
ATOM     28  C   UNL     1      -0.991  11.734  21.483  0.00  0.00    +0.000 A 
ATOM     29  C   UNL     1      -1.389  11.613  22.819  0.00  0.00    +0.000 A 
ATOM     30  C   UNL     1      -2.660  12.044  23.220  0.00  0.00    +0.000 A 
BRANCH  25  32
ATOM     31  C   UNL     1      -4.950  13.648  23.882  0.00  0.00    +0.000 C 
ATOM     32  O   UNL     1      -4.786  13.087  22.584  0.00  0.00    +0.000 OA
ENDBRANCH  25  32
ENDBRANCH  23  28
ENDBRANCH  21  23
ENDBRANCH  19  22
ENDBRANCH   1  19
TORSDOF 8
ENDMDL
MODEL 9
REMARK VINA RESULT:      -7.8      1.946      2.575
REMARK  Name = 
REMARK  11 active torsions:
REMARK  status: ('A' for Active; 'I' for Inactive)
REMARK    1  A    between atoms: C_1  and  O_2
REMARK    2  A    between atoms: O_2  and  C_3
REMARK    3  A    between atoms: C_6  and  C_7
REMARK    4  A    between atoms: C_7  and  C_9
REMARK    5  A    between atoms: C_10  and  N_11
REMARK    6  A    between atoms: N_11  and  C_12
REMARK    7  A    between atoms: C_15  and  S_16
REMARK    8  A    between atoms: S_16  and  N_19
REMARK    9  A    between atoms: N_19  and  C_20
REMARK   10  A    between atoms: C_23  and  C_24
REMARK   11  A    between atoms: C_25  and  C_26
REMARK                            x       y       z     vdW  Elec       q    Type
REMARK                         _______ _______ _______ _____ _____    ______ ____
ROOT
ATOM      1  C   UNL     1       1.817   7.627  19.736  0.00  0.00    +0.000 A 
ATOM      2  C   UNL     1       1.862   6.558  20.641  0.00  0.00    +0.000 A 
ATOM      3  C   UNL     1       2.190   5.267  20.219  0.00  0.00    +0.000 A 
ATOM      4  C   UNL     1       2.499   5.036  18.880  0.00  0.00    +0.000 A 
ATOM      5  C   UNL     1       2.523   6.091  17.967  0.00  0.00    +0.000 A 
ATOM      6  C   UNL     1       2.177   7.378  18.400  0.00  0.00    +0.000 A 
ENDROOT
BRANCH   4   7
ATOM      7  S   UNL     1       2.942   3.395  18.372  0.00  0.00    +0.000 S 
ATOM      8  O   UNL     1       3.489   2.700  19.520  0.00  0.00    +0.000 OA
ATOM      9  O   UNL     1       1.840   2.835  17.621  0.00  0.00    +0.000 OA
BRANCH   7  10
ATOM     10  N   UNL     1       4.283   3.693  17.367  0.00  0.00    +0.000 N 
ATOM     11  H   UNL     1       3.900   4.206  16.572  0.00  0.00    +0.000 HD
BRANCH  10  12
ATOM     12  C   UNL     1       5.310   4.409  18.039  0.00  0.00    +0.000 A 
ATOM     13  O   UNL     1       5.758   4.105  19.285  0.00  0.00    +0.000 OA
ATOM     14  N   UNL     1       6.804   4.947  19.621  0.00  0.00    +0.000 NA
ATOM     15  C   UNL     1       6.947   5.778  18.580  0.00  0.00    +0.000 A 
ATOM     16  C   UNL     1       7.960   6.859  18.626  0.00  0.00    +0.000 C 
ATOM     17  C   UNL     1       6.026   5.475  17.538  0.00  0.00    +0.000 A 
ATOM     18  C   UNL     1       5.835   6.183  16.253  0.00  0.00    +0.000 C 
ENDBRANCH  10  12
ENDBRANCH   7  10
ENDBRANCH   4   7
BRANCH   1  19
ATOM     19  N   UNL     1       1.515   8.944  20.130  0.00  0.00    +0.000 N 
ATOM     20  H   UNL     1       1.822   9.196  21.063  0.00  0.00    +0.000 HD
BRANCH  19  22
ATOM     21  C   UNL     1       0.426  11.089  19.818  0.00  0.00    +0.000 C 
ATOM     22  C   UNL     1       0.960   9.945  19.370  0.00  0.00    +0.000 C 
BRANCH  21  23
ATOM     23  C   UNL     1      -0.216  12.027  18.853  0.00  0.00    +0.000 C 
ATOM     24  O   UNL     1       0.402  12.954  18.346  0.00  0.00    +0.000 OA
BRANCH  23  28
ATOM     25  C   UNL     1      -4.351  11.363  17.867  0.00  0.00    +0.000 A 
ATOM     26  C   UNL     1      -3.982  11.956  19.077  0.00  0.00    +0.000 A 
ATOM     27  C   UNL     1      -2.634  12.171  19.379  0.00  0.00    +0.000 A 
ATOM     28  C   UNL     1      -1.637  11.787  18.474  0.00  0.00    +0.000 A 
ATOM     29  C   UNL     1      -2.006  11.166  17.276  0.00  0.00    +0.000 A 
ATOM     30  C   UNL     1      -3.359  10.959  16.975  0.00  0.00    +0.000 A 
BRANCH  25  32
ATOM     31  C   UNL     1      -6.449  12.361  17.425  0.00  0.00    +0.000 C 
ATOM     32  O   UNL     1      -5.694  11.183  17.689  0.00  0.00    +0.000 OA
ENDBRANCH  25  32
ENDBRANCH  23  28
ENDBRANCH  21  23
ENDBRANCH  19  22
ENDBRANCH   1  19
TORSDOF 8
ENDMDL
