MODEL 1
REMARK VINA RESULT:      -6.8      0.000      0.000
REMARK  Name = 
REMARK  3 active torsions:
REMARK  status: ('A' for Active; 'I' for Inactive)
REMARK    1  A    between atoms: N_1  and  C_2
REMARK    2  A    between atoms: C_5  and  C_6
REMARK    3  A    between atoms: N_8  and  C_9
REMARK                            x       y       z     vdW  Elec       q    Type
REMARK                         _______ _______ _______ _____ _____    ______ ____
ROOT
ATOM      1  C   UNL     1       3.913   4.601  17.849  0.00  0.00    +0.000 C 
ATOM      2  O   UNL     1       3.533   5.699  17.459  0.00  0.00    +0.000 OA
ATOM      3  N   UNL     1       4.909   3.831  17.272  0.00  0.00    +0.000 N 
ATOM      4  H   UNL     1       5.002   2.872  17.586  0.00  0.00    +0.000 HD
ENDROOT
BRANCH   1   8
ATOM      5  C   UNL     1       1.782   3.067  21.249  0.00  0.00    +0.000 A 
ATOM      6  C   UNL     1       1.194   3.981  20.375  0.00  0.00    +0.000 A 
ATOM      7  C   UNL     1       1.903   4.468  19.276  0.00  0.00    +0.000 A 
ATOM      8  C   UNL     1       3.195   4.000  19.003  0.00  0.00    +0.000 A 
ATOM      9  C   UNL     1       3.771   3.039  19.837  0.00  0.00    +0.000 A 
ATOM     10  C   UNL     1       3.052   2.562  20.941  0.00  0.00    +0.000 A 
BRANCH   5  11
ATOM     11  N   UNL     1       1.027   2.502  22.282  0.00  0.00    +0.000 N 
ATOM     12  H   UNL     1       0.359   1.804  21.965  0.00  0.00    +0.000 HD
ATOM     13  H   UNL     1       0.598   3.182  22.902  0.00  0.00    +0.000 HD
ENDBRANCH   5  11
ENDBRANCH   1   8
BRANCH   3  14
ATOM     14  C   UNL     1       5.668   4.200  16.133  0.00  0.00    +0.000 A 
ATOM     15  C   UNL     1       5.397   3.755  14.839  0.00  0.00    +0.000 A 
ATOM     16  C   UNL     1       6.229   4.122  13.782  0.00  0.00    +0.000 A 
ATOM     17  C   UNL     1       7.309   4.942  14.050  0.00  0.00    +0.000 A 
ATOM     18  N   UNL     1       7.593   5.427  15.276  0.00  0.00    +0.000 NA
ATOM     19  C   UNL     1       6.765   5.048  16.283  0.00  0.00    +0.000 A 
ENDBRANCH   3  14
TORSDOF 3
ENDMDL
MODEL 2
REMARK VINA RESULT:      -6.8      0.208      1.219
REMARK  Name = 
REMARK  3 active torsions:
REMARK  status: ('A' for Active; 'I' for Inactive)
REMARK    1  A    between atoms: N_1  and  C_2
REMARK    2  A    between atoms: C_5  and  C_6
REMARK    3  A    between atoms: N_8  and  C_9
REMARK                            x       y       z     vdW  Elec       q    Type
REMARK                         _______ _______ _______ _____ _____    ______ ____
ROOT
ATOM      1  C   UNL     1       4.014   4.776  17.814  0.00  0.00    +0.000 C 
ATOM      2  O   UNL     1       3.689   5.889  17.418  0.00  0.00    +0.000 OA
ATOM      3  N   UNL     1       4.952   3.944  17.227  0.00  0.00    +0.000 N 
ATOM      4  H   UNL     1       4.998   2.986  17.552  0.00  0.00    +0.000 HD
ENDROOT
BRANCH   1   8
ATOM      5  C   UNL     1       1.957   3.002  21.142  0.00  0.00    +0.000 A 
ATOM      6  C   UNL     1       3.230   2.575  20.763  0.00  0.00    +0.000 A 
ATOM      7  C   UNL     1       3.881   3.164  19.679  0.00  0.00    +0.000 A 
ATOM      8  C   UNL     1       3.290   4.232  18.992  0.00  0.00    +0.000 A 
ATOM      9  C   UNL     1       2.042   4.709  19.401  0.00  0.00    +0.000 A 
ATOM     10  C   UNL     1       1.394   4.105  20.487  0.00  0.00    +0.000 A 
BRANCH   5  11
ATOM     11  N   UNL     1       1.359   2.482  22.295  0.00  0.00    +0.000 N 
ATOM     12  H   UNL     1       1.483   3.067  23.118  0.00  0.00    +0.000 HD
ATOM     13  H   UNL     1       1.591   1.512  22.481  0.00  0.00    +0.000 HD
ENDBRANCH   5  11
ENDBRANCH   1   8
BRANCH   3  14
ATOM     14  C   UNL     1       5.705   4.255  16.067  0.00  0.00    +0.000 A 
ATOM     15  C   UNL     1       5.426   3.749  14.798  0.00  0.00    +0.000 A 
ATOM     16  C   UNL     1       6.253   4.061  13.720  0.00  0.00    +0.000 A 
ATOM     17  C   UNL     1       7.337   4.891  13.941  0.00  0.00    +0.000 A 
ATOM     18  N   UNL     1       7.629   5.434  15.141  0.00  0.00    +0.000 NA
ATOM     19  C   UNL     1       6.805   5.106  16.170  0.00  0.00    +0.000 A 
ENDBRANCH   3  14
TORSDOF 3
ENDMDL
MODEL 3
REMARK VINA RESULT:      -6.5      1.105      1.269
REMARK  Name = 
REMARK  3 active torsions:
REMARK  status: ('A' for Active; 'I' for Inactive)
REMARK    1  A    between atoms: N_1  and  C_2
REMARK    2  A    between atoms: C_5  and  C_6
REMARK    3  A    between atoms: N_8  and  C_9
REMARK                            x       y       z     vdW  Elec       q    Type
REMARK                         _______ _______ _______ _____ _____    ______ ____
ROOT
ATOM      1  C   UNL     1       4.293   4.937  17.050  0.00  0.00    +0.000 C 
ATOM      2  O   UNL     1       4.318   6.152  16.895  0.00  0.00    +0.000 OA
ATOM      3  N   UNL     1       4.966   4.002  16.282  0.00  0.00    +0.000 N 
ATOM      4  H   UNL     1       4.720   3.027  16.407  0.00  0.00    +0.000 HD
ENDROOT
BRANCH   1   8
ATOM      5  C   UNL     1       1.552   3.465  20.012  0.00  0.00    +0.000 A 
ATOM      6  C   UNL     1       1.397   3.155  18.661  0.00  0.00    +0.000 A 
ATOM      7  C   UNL     1       2.298   3.643  17.714  0.00  0.00    +0.000 A 
ATOM      8  C   UNL     1       3.404   4.404  18.115  0.00  0.00    +0.000 A 
ATOM      9  C   UNL     1       3.603   4.669  19.472  0.00  0.00    +0.000 A 
ATOM     10  C   UNL     1       2.687   4.179  20.413  0.00  0.00    +0.000 A 
BRANCH   5  11
ATOM     11  N   UNL     1       0.708   2.881  20.965  0.00  0.00    +0.000 N 
ATOM     12  H   UNL     1       0.835   3.252  21.903  0.00  0.00    +0.000 HD
ATOM     13  H   UNL     1       0.711   1.867  20.954  0.00  0.00    +0.000 HD
ENDBRANCH   5  11
ENDBRANCH   1   8
BRANCH   3  14
ATOM     14  C   UNL     1       5.814   4.305  15.187  0.00  0.00    +0.000 A 
ATOM     15  C   UNL     1       5.628   3.807  13.898  0.00  0.00    +0.000 A 
ATOM     16  C   UNL     1       6.543   4.110  12.890  0.00  0.00    +0.000 A 
ATOM     17  C   UNL     1       7.619   4.922  13.200  0.00  0.00    +0.000 A 
ATOM     18  N   UNL     1       7.823   5.457  14.422  0.00  0.00    +0.000 NA
ATOM     19  C   UNL     1       6.915   5.139  15.381  0.00  0.00    +0.000 A 
ENDBRANCH   3  14
TORSDOF 3
ENDMDL
MODEL 4
REMARK VINA RESULT:      -6.5      1.195      6.692
REMARK  Name = 
REMARK  3 active torsions:
REMARK  status: ('A' for Active; 'I' for Inactive)
REMARK    1  A    between atoms: N_1  and  C_2
REMARK    2  A    between atoms: C_5  and  C_6
REMARK    3  A    between atoms: N_8  and  C_9
REMARK                            x       y       z     vdW  Elec       q    Type
REMARK                         _______ _______ _______ _____ _____    ______ ____
ROOT
ATOM      1  C   UNL     1       4.566   4.644  18.355  0.00  0.00    +0.000 C 
ATOM      2  O   UNL     1       4.724   5.492  19.226  0.00  0.00    +0.000 OA
ATOM      3  N   UNL     1       3.728   3.544  18.430  0.00  0.00    +0.000 N 
ATOM      4  H   UNL     1       3.825   2.831  17.717  0.00  0.00    +0.000 HD
ENDROOT
BRANCH   1   8
ATOM      5  C   UNL     1       6.975   5.195  14.841  0.00  0.00    +0.000 A 
ATOM      6  C   UNL     1       7.295   5.819  16.047  0.00  0.00    +0.000 A 
ATOM      7  C   UNL     1       6.500   5.627  17.177  0.00  0.00    +0.000 A 
ATOM      8  C   UNL     1       5.401   4.759  17.131  0.00  0.00    +0.000 A 
ATOM      9  C   UNL     1       5.107   4.082  15.945  0.00  0.00    +0.000 A 
ATOM     10  C   UNL     1       5.908   4.288  14.815  0.00  0.00    +0.000 A 
BRANCH   5  11
ATOM     11  N   UNL     1       7.839   5.305  13.745  0.00  0.00    +0.000 N 
ATOM     12  H   UNL     1       8.782   4.979  13.936  0.00  0.00    +0.000 HD
ATOM     13  H   UNL     1       7.835   6.219  13.305  0.00  0.00    +0.000 HD
ENDBRANCH   5  11
ENDBRANCH   1   8
BRANCH   3  14
ATOM     14  C   UNL     1       2.898   3.226  19.534  0.00  0.00    +0.000 A 
ATOM     15  C   UNL     1       1.517   3.424  19.552  0.00  0.00    +0.000 A 
ATOM     16  C   UNL     1       0.782   3.136  20.702  0.00  0.00    +0.000 A 
ATOM     17  C   UNL     1       1.453   2.640  21.804  0.00  0.00    +0.000 A 
ATOM     18  N   UNL     1       2.781   2.398  21.825  0.00  0.00    +0.000 NA
ATOM     19  C   UNL     1       3.466   2.692  20.690  0.00  0.00    +0.000 A 
ENDBRANCH   3  14
TORSDOF 3
ENDMDL
MODEL 5
REMARK VINA RESULT:      -6.5      1.035      1.484
REMARK  Name = 
REMARK  3 active torsions:
REMARK  status: ('A' for Active; 'I' for Inactive)
REMARK    1  A    between atoms: N_1  and  C_2
REMARK    2  A    between atoms: C_5  and  C_6
REMARK    3  A    between atoms: N_8  and  C_9
REMARK                            x       y       z     vdW  Elec       q    Type
REMARK                         _______ _______ _______ _____ _____    ______ ____
ROOT
ATOM      1  C   UNL     1       4.226   4.965  17.030  0.00  0.00    +0.000 C 
ATOM      2  O   UNL     1       4.301   6.183  16.912  0.00  0.00    +0.000 OA
ATOM      3  N   UNL     1       4.886   4.028  16.254  0.00  0.00    +0.000 N 
ATOM      4  H   UNL     1       4.600   3.060  16.342  0.00  0.00    +0.000 HD
ENDROOT
BRANCH   1   8
ATOM      5  C   UNL     1       1.676   3.323  20.072  0.00  0.00    +0.000 A 
ATOM      6  C   UNL     1       2.895   3.921  20.391  0.00  0.00    +0.000 A 
ATOM      7  C   UNL     1       3.710   4.448  19.388  0.00  0.00    +0.000 A 
ATOM      8  C   UNL     1       3.286   4.436  18.053  0.00  0.00    +0.000 A 
ATOM      9  C   UNL     1       2.040   3.895  17.729  0.00  0.00    +0.000 A 
ATOM     10  C   UNL     1       1.234   3.362  18.744  0.00  0.00    +0.000 A 
BRANCH   5  11
ATOM     11  N   UNL     1       0.818   2.897  21.093  0.00  0.00    +0.000 N 
ATOM     12  H   UNL     1       0.768   3.541  21.878  0.00  0.00    +0.000 HD
ATOM     13  H   UNL     1       0.976   1.941  21.395  0.00  0.00    +0.000 HD
ENDBRANCH   5  11
ENDBRANCH   1   8
BRANCH   3  14
ATOM     14  C   UNL     1       5.777   4.330  15.193  0.00  0.00    +0.000 A 
ATOM     15  C   UNL     1       5.615   3.871  13.886  0.00  0.00    +0.000 A 
ATOM     16  C   UNL     1       6.570   4.169  12.914  0.00  0.00    +0.000 A 
ATOM     17  C   UNL     1       7.661   4.937  13.278  0.00  0.00    +0.000 A 
ATOM     18  N   UNL     1       7.845   5.433  14.519  0.00  0.00    +0.000 NA
ATOM     19  C   UNL     1       6.898   5.122  15.441  0.00  0.00    +0.000 A 
ENDBRANCH   3  14
TORSDOF 3
ENDMDL
MODEL 6
REMARK VINA RESULT:      -6.5      1.158      6.714
REMARK  Name = 
REMARK  3 active torsions:
REMARK  status: ('A' for Active; 'I' for Inactive)
REMARK    1  A    between atoms: N_1  and  C_2
REMARK    2  A    between atoms: C_5  and  C_6
REMARK    3  A    between atoms: N_8  and  C_9
REMARK                            x       y       z     vdW  Elec       q    Type
REMARK                         _______ _______ _______ _____ _____    ______ ____
ROOT
ATOM      1  C   UNL     1       4.000   3.710  17.384  0.00  0.00    +0.000 C 
ATOM      2  O   UNL     1       3.061   3.141  16.840  0.00  0.00    +0.000 OA
ATOM      3  N   UNL     1       4.125   3.965  18.739  0.00  0.00    +0.000 N 
ATOM      4  H   UNL     1       4.863   4.596  19.031  0.00  0.00    +0.000 HD
ENDROOT
BRANCH   1   8
ATOM      5  C   UNL     1       7.136   5.046  14.769  0.00  0.00    +0.000 A 
ATOM      6  C   UNL     1       6.076   4.273  14.296  0.00  0.00    +0.000 A 
ATOM      7  C   UNL     1       5.067   3.849  15.162  0.00  0.00    +0.000 A 
ATOM      8  C   UNL     1       5.075   4.242  16.506  0.00  0.00    +0.000 A 
ATOM      9  C   UNL     1       6.099   5.067  16.977  0.00  0.00    +0.000 A 
ATOM     10  C   UNL     1       7.111   5.481  16.100  0.00  0.00    +0.000 A 
BRANCH   5  11
ATOM     11  N   UNL     1       8.082   5.558  13.874  0.00  0.00    +0.000 N 
ATOM     12  H   UNL     1       8.961   5.816  14.315  0.00  0.00    +0.000 HD
ATOM     13  H   UNL     1       7.728   6.294  13.273  0.00  0.00    +0.000 HD
ENDBRANCH   5  11
ENDBRANCH   1   8
BRANCH   3  14
ATOM     14  C   UNL     1       3.182   3.593  19.729  0.00  0.00    +0.000 A 
ATOM     15  C   UNL     1       1.869   4.062  19.770  0.00  0.00    +0.000 A 
ATOM     16  C   UNL     1       1.022   3.689  20.813  0.00  0.00    +0.000 A 
ATOM     17  C   UNL     1       1.513   2.838  21.786  0.00  0.00    +0.000 A 
ATOM     18  N   UNL     1       2.763   2.330  21.773  0.00  0.00    +0.000 NA
ATOM     19  C   UNL     1       3.562   2.716  20.745  0.00  0.00    +0.000 A 
ENDBRANCH   3  14
TORSDOF 3
ENDMDL
MODEL 7
REMARK VINA RESULT:      -6.5      1.123      6.625
REMARK  Name = 
REMARK  3 active torsions:
REMARK  status: ('A' for Active; 'I' for Inactive)
REMARK    1  A    between atoms: N_1  and  C_2
REMARK    2  A    between atoms: C_5  and  C_6
REMARK    3  A    between atoms: N_8  and  C_9
REMARK                            x       y       z     vdW  Elec       q    Type
REMARK                         _______ _______ _______ _____ _____    ______ ____
ROOT
ATOM      1  C   UNL     1       4.112   4.921  18.105  0.00  0.00    +0.000 C 
ATOM      2  O   UNL     1       3.659   5.946  18.602  0.00  0.00    +0.000 OA
ATOM      3  N   UNL     1       3.830   3.626  18.508  0.00  0.00    +0.000 N 
ATOM      4  H   UNL     1       4.405   2.882  18.130  0.00  0.00    +0.000 HD
ENDROOT
BRANCH   1   8
ATOM      5  C   UNL     1       7.003   5.147  14.935  0.00  0.00    +0.000 A 
ATOM      6  C   UNL     1       5.830   4.405  14.798  0.00  0.00    +0.000 A 
ATOM      7  C   UNL     1       4.903   4.344  15.839  0.00  0.00    +0.000 A 
ATOM      8  C   UNL     1       5.112   5.074  17.016  0.00  0.00    +0.000 A 
ATOM      9  C   UNL     1       6.253   5.870  17.141  0.00  0.00    +0.000 A 
ATOM     10  C   UNL     1       7.180   5.918  16.091  0.00  0.00    +0.000 A 
BRANCH   5  11
ATOM     11  N   UNL     1       7.871   5.291  13.848  0.00  0.00    +0.000 N 
ATOM     12  H   UNL     1       8.796   4.900  14.010  0.00  0.00    +0.000 HD
ATOM     13  H   UNL     1       7.918   6.235  13.477  0.00  0.00    +0.000 HD
ENDBRANCH   5  11
ENDBRANCH   1   8
BRANCH   3  14
ATOM     14  C   UNL     1       2.952   3.274  19.563  0.00  0.00    +0.000 A 
ATOM     15  C   UNL     1       1.565   3.411  19.500  0.00  0.00    +0.000 A 
ATOM     16  C   UNL     1       0.778   3.093  20.606  0.00  0.00    +0.000 A 
ATOM     17  C   UNL     1       1.405   2.629  21.748  0.00  0.00    +0.000 A 
ATOM     18  N   UNL     1       2.738   2.446  21.847  0.00  0.00    +0.000 NA
ATOM     19  C   UNL     1       3.475   2.768  20.752  0.00  0.00    +0.000 A 
ENDBRANCH   3  14
TORSDOF 3
ENDMDL
MODEL 8
REMARK VINA RESULT:      -6.4      1.136      6.715
REMARK  Name = 
REMARK  3 active torsions:
REMARK  status: ('A' for Active; 'I' for Inactive)
REMARK    1  A    between atoms: N_1  and  C_2
REMARK    2  A    between atoms: C_5  and  C_6
REMARK    3  A    between atoms: N_8  and  C_9
REMARK                            x       y       z     vdW  Elec       q    Type
REMARK                         _______ _______ _______ _____ _____    ______ ____
ROOT
ATOM      1  C   UNL     1       3.932   3.661  17.264  0.00  0.00    +0.000 C 
ATOM      2  O   UNL     1       2.918   3.219  16.737  0.00  0.00    +0.000 OA
ATOM      3  N   UNL     1       4.133   3.843  18.622  0.00  0.00    +0.000 N 
ATOM      4  H   UNL     1       4.944   4.378  18.909  0.00  0.00    +0.000 HD
ENDROOT
BRANCH   1   8
ATOM      5  C   UNL     1       7.074   5.167  14.751  0.00  0.00    +0.000 A 
ATOM      6  C   UNL     1       7.065   5.407  16.124  0.00  0.00    +0.000 A 
ATOM      7  C   UNL     1       6.035   4.909  16.924  0.00  0.00    +0.000 A 
ATOM      8  C   UNL     1       5.027   4.112  16.366  0.00  0.00    +0.000 A 
ATOM      9  C   UNL     1       5.060   3.814  15.002  0.00  0.00    +0.000 A 
ATOM     10  C   UNL     1       6.095   4.325  14.207  0.00  0.00    +0.000 A 
BRANCH   5  11
ATOM     11  N   UNL     1       8.166   5.575  13.977  0.00  0.00    +0.000 N 
ATOM     12  H   UNL     1       7.922   5.799  13.015  0.00  0.00    +0.000 HD
ATOM     13  H   UNL     1       8.967   4.955  14.031  0.00  0.00    +0.000 HD
ENDBRANCH   5  11
ENDBRANCH   1   8
BRANCH   3  14
ATOM     14  C   UNL     1       3.190   3.531  19.634  0.00  0.00    +0.000 A 
ATOM     15  C   UNL     1       1.874   3.993  19.642  0.00  0.00    +0.000 A 
ATOM     16  C   UNL     1       1.029   3.684  20.707  0.00  0.00    +0.000 A 
ATOM     17  C   UNL     1       1.524   2.904  21.735  0.00  0.00    +0.000 A 
ATOM     18  N   UNL     1       2.777   2.404  21.757  0.00  0.00    +0.000 NA
ATOM     19  C   UNL     1       3.575   2.726  20.706  0.00  0.00    +0.000 A 
ENDBRANCH   3  14
TORSDOF 3
ENDMDL
MODEL 9
REMARK VINA RESULT:      -6.3      1.396      1.658
REMARK  Name = 
REMARK  3 active torsions:
REMARK  status: ('A' for Active; 'I' for Inactive)
REMARK    1  A    between atoms: N_1  and  C_2
REMARK    2  A    between atoms: C_5  and  C_6
REMARK    3  A    between atoms: N_8  and  C_9
REMARK                            x       y       z     vdW  Elec       q    Type
REMARK                         _______ _______ _______ _____ _____    ______ ____
ROOT
ATOM      1  C   UNL     1       5.139   4.055  17.058  0.00  0.00    +0.000 C 
ATOM      2  O   UNL     1       6.213   4.333  17.580  0.00  0.00    +0.000 OA
ATOM      3  N   UNL     1       4.875   4.033  15.699  0.00  0.00    +0.000 N 
ATOM      4  H   UNL     1       3.906   3.960  15.411  0.00  0.00    +0.000 HD
ENDROOT
BRANCH   1   8
ATOM      5  C   UNL     1       1.746   3.475  19.628  0.00  0.00    +0.000 A 
ATOM      6  C   UNL     1       1.598   3.948  18.324  0.00  0.00    +0.000 A 
ATOM      7  C   UNL     1       2.713   4.130  17.505  0.00  0.00    +0.000 A 
ATOM      8  C   UNL     1       3.991   3.785  17.962  0.00  0.00    +0.000 A 
ATOM      9  C   UNL     1       4.144   3.253  19.245  0.00  0.00    +0.000 A 
ATOM     10  C   UNL     1       3.018   3.081  20.061  0.00  0.00    +0.000 A 
BRANCH   5  11
ATOM     11  N   UNL     1       0.615   3.193  20.402  0.00  0.00    +0.000 N 
ATOM     12  H   UNL     1       0.581   2.233  20.738  0.00  0.00    +0.000 HD
ATOM     13  H   UNL     1      -0.261   3.477  19.976  0.00  0.00    +0.000 HD
ENDBRANCH   5  11
ENDBRANCH   1   8
BRANCH   3  14
ATOM     14  C   UNL     1       5.818   4.318  14.680  0.00  0.00    +0.000 A 
ATOM     15  C   UNL     1       5.782   3.754  13.405  0.00  0.00    +0.000 A 
ATOM     16  C   UNL     1       6.783   4.046  12.480  0.00  0.00    +0.000 A 
ATOM     17  C   UNL     1       7.792   4.914  12.855  0.00  0.00    +0.000 A 
ATOM     18  N   UNL     1       7.853   5.512  14.063  0.00  0.00    +0.000 NA
ATOM     19  C   UNL     1       6.864   5.203  14.941  0.00  0.00    +0.000 A 
ENDBRANCH   3  14
TORSDOF 3
ENDMDL
