MODEL 1
REMARK VINA RESULT:      -7.3      0.000      0.000
REMARK  Name = 
REMARK  9 active torsions:
REMARK  status: ('A' for Active; 'I' for Inactive)
REMARK    1  A    between atoms: C_2  and  C_3
REMARK    2  A    between atoms: C_2  and  C_13
REMARK    3  A    between atoms: C_3  and  N_4
REMARK    4  A    between atoms: N_7  and  C_8
REMARK    5  A    between atoms: C_8  and  C_9
REMARK    6  A    between atoms: C_9  and  O_10
REMARK    7  A    between atoms: C_13  and  O_14
REMARK    8  A    between atoms: C_13  and  C_15
REMARK    9  A    between atoms: C_13  and  C_21
REMARK                            x       y       z     vdW  Elec       q    Type
REMARK                         _______ _______ _______ _____ _____    ______ ____
ROOT
ATOM      1  O   UNL     1       4.668   6.648  16.226  0.00  0.00    +0.000 OA
ATOM      2  C   UNL     1       4.800   5.418  16.336  0.00  0.00    +0.000 C 
ENDROOT
BRANCH   2   3
ATOM      3  C   UNL     1       3.618   4.505  16.702  0.00  0.00    +0.000 C 
BRANCH   3   4
ATOM      4  N   UNL     1       3.687   4.157  18.129  0.00  0.00    +0.000 NA
ATOM      5  C   UNL     1       3.745   5.346  19.001  0.00  0.00    +0.000 C 
ATOM      6  C   UNL     1       2.377   5.859  19.486  0.00  0.00    +0.000 C 
ATOM      7  N   UNL     1       1.572   4.828  20.166  0.00  0.00    +0.000 NA
ATOM      8  C   UNL     1       1.375   3.731  19.186  0.00  0.00    +0.000 C 
ATOM      9  C   UNL     1       2.680   3.172  18.555  0.00  0.00    +0.000 C 
BRANCH   7  10
ATOM     10  C   UNL     1       2.231   4.304  21.393  0.00  0.00    +0.000 C 
BRANCH  10  11
ATOM     11  C   UNL     1       1.759   2.898  21.806  0.00  0.00    +0.000 C 
BRANCH  11  12
ATOM     12  O   UNL     1       2.872   2.084  22.154  0.00  0.00    +0.000 OA
ATOM     13  H   UNL     1       3.066   2.295  23.089  0.00  0.00    +0.000 HD
ENDBRANCH  11  12
ENDBRANCH  10  11
ENDBRANCH   7  10
ENDBRANCH   3   4
ENDBRANCH   2   3
BRANCH   2  14
ATOM     14  C   UNL     1       6.203   4.810  16.145  0.00  0.00    +0.000 C 
BRANCH  14  15
ATOM     15  C   UNL     1       6.506   4.705  14.651  0.00  0.00    +0.000 A 
ATOM     16  C   UNL     1       5.798   3.809  13.830  0.00  0.00    +0.000 A 
ATOM     17  C   UNL     1       6.179   3.595  12.502  0.00  0.00    +0.000 A 
ATOM     18  C   UNL     1       7.263   4.288  11.968  0.00  0.00    +0.000 A 
ATOM     19  C   UNL     1       7.945   5.219  12.747  0.00  0.00    +0.000 A 
ATOM     20  C   UNL     1       7.565   5.427  14.072  0.00  0.00    +0.000 A 
ENDBRANCH  14  15
BRANCH  14  21
ATOM     21  C   UNL     1       7.358   5.488  16.888  0.00  0.00    +0.000 C 
ATOM     22  C   UNL     1       7.161   6.962  17.366  0.00  0.00    +0.000 C 
ATOM     23  C   UNL     1       7.997   6.603  18.609  0.00  0.00    +0.000 C 
ATOM     24  C   UNL     1       7.563   5.141  18.397  0.00  0.00    +0.000 C 
ENDBRANCH  14  21
BRANCH  14  25
ATOM     25  O   UNL     1       6.058   3.481  16.700  0.00  0.00    +0.000 OA
ATOM     26  H   UNL     1       6.407   2.875  16.010  0.00  0.00    +0.000 HD
ENDBRANCH  14  25
ENDBRANCH   2  14
TORSDOF 9
ENDMDL
MODEL 2
REMARK VINA RESULT:      -7.1      2.111      7.030
REMARK  Name = 
REMARK  9 active torsions:
REMARK  status: ('A' for Active; 'I' for Inactive)
REMARK    1  A    between atoms: C_2  and  C_3
REMARK    2  A    between atoms: C_2  and  C_13
REMARK    3  A    between atoms: C_3  and  N_4
REMARK    4  A    between atoms: N_7  and  C_8
REMARK    5  A    between atoms: C_8  and  C_9
REMARK    6  A    between atoms: C_9  and  O_10
REMARK    7  A    between atoms: C_13  and  O_14
REMARK    8  A    between atoms: C_13  and  C_15
REMARK    9  A    between atoms: C_13  and  C_21
REMARK                            x       y       z     vdW  Elec       q    Type
REMARK                         _______ _______ _______ _____ _____    ______ ____
ROOT
ATOM      1  O   UNL     1       4.292   3.716  20.312  0.00  0.00    +0.000 OA
ATOM      2  C   UNL     1       3.875   4.758  19.780  0.00  0.00    +0.000 C 
ENDROOT
BRANCH   2   3
ATOM      3  C   UNL     1       4.789   5.659  18.932  0.00  0.00    +0.000 C 
BRANCH   3   4
ATOM      4  N   UNL     1       5.495   4.843  17.933  0.00  0.00    +0.000 NA
ATOM      5  C   UNL     1       4.787   4.791  16.640  0.00  0.00    +0.000 C 
ATOM      6  C   UNL     1       5.203   5.875  15.630  0.00  0.00    +0.000 C 
ATOM      7  N   UNL     1       6.653   5.900  15.360  0.00  0.00    +0.000 NA
ATOM      8  C   UNL     1       7.320   6.147  16.662  0.00  0.00    +0.000 C 
ATOM      9  C   UNL     1       6.925   5.166  17.799  0.00  0.00    +0.000 C 
BRANCH   7  10
ATOM     10  C   UNL     1       7.146   4.628  14.767  0.00  0.00    +0.000 C 
BRANCH  10  11
ATOM     11  C   UNL     1       6.680   4.390  13.319  0.00  0.00    +0.000 C 
BRANCH  11  12
ATOM     12  O   UNL     1       6.328   3.025  13.130  0.00  0.00    +0.000 OA
ATOM     13  H   UNL     1       7.022   2.656  12.550  0.00  0.00    +0.000 HD
ENDBRANCH  11  12
ENDBRANCH  10  11
ENDBRANCH   7  10
ENDBRANCH   3   4
ENDBRANCH   2   3
BRANCH   2  14
ATOM     14  C   UNL     1       2.411   5.173  20.024  0.00  0.00    +0.000 C 
BRANCH  14  15
ATOM     15  C   UNL     1       2.220   6.623  19.580  0.00  0.00    +0.000 A 
ATOM     16  C   UNL     1       1.760   7.601  20.480  0.00  0.00    +0.000 A 
ATOM     17  C   UNL     1       1.433   8.886  20.041  0.00  0.00    +0.000 A 
ATOM     18  C   UNL     1       1.576   9.221  18.696  0.00  0.00    +0.000 A 
ATOM     19  C   UNL     1       2.079   8.284  17.796  0.00  0.00    +0.000 A 
ATOM     20  C   UNL     1       2.402   7.001  18.238  0.00  0.00    +0.000 A 
ENDBRANCH  14  15
BRANCH  14  21
ATOM     21  C   UNL     1       1.327   4.273  19.422  0.00  0.00    +0.000 C 
ATOM     22  C   UNL     1       1.711   3.370  18.206  0.00  0.00    +0.000 C 
ATOM     23  C   UNL     1       0.761   2.303  18.780  0.00  0.00    +0.000 C 
ATOM     24  C   UNL     1       0.986   2.941  20.163  0.00  0.00    +0.000 C 
ENDBRANCH  14  21
BRANCH  14  25
ATOM     25  O   UNL     1       2.286   5.091  21.463  0.00  0.00    +0.000 OA
ATOM     26  H   UNL     1       1.782   5.893  21.723  0.00  0.00    +0.000 HD
ENDBRANCH  14  25
ENDBRANCH   2  14
TORSDOF 9
ENDMDL
MODEL 3
REMARK VINA RESULT:      -7.0      0.448      1.081
REMARK  Name = 
REMARK  9 active torsions:
REMARK  status: ('A' for Active; 'I' for Inactive)
REMARK    1  A    between atoms: C_2  and  C_3
REMARK    2  A    between atoms: C_2  and  C_13
REMARK    3  A    between atoms: C_3  and  N_4
REMARK    4  A    between atoms: N_7  and  C_8
REMARK    5  A    between atoms: C_8  and  C_9
REMARK    6  A    between atoms: C_9  and  O_10
REMARK    7  A    between atoms: C_13  and  O_14
REMARK    8  A    between atoms: C_13  and  C_15
REMARK    9  A    between atoms: C_13  and  C_21
REMARK                            x       y       z     vdW  Elec       q    Type
REMARK                         _______ _______ _______ _____ _____    ______ ____
ROOT
ATOM      1  O   UNL     1       4.821   6.709  16.125  0.00  0.00    +0.000 OA
ATOM      2  C   UNL     1       4.934   5.488  16.321  0.00  0.00    +0.000 C 
ENDROOT
BRANCH   2   3
ATOM      3  C   UNL     1       3.727   4.609  16.690  0.00  0.00    +0.000 C 
BRANCH   3   4
ATOM      4  N   UNL     1       3.806   4.233  18.108  0.00  0.00    +0.000 NA
ATOM      5  C   UNL     1       3.797   5.402  19.008  0.00  0.00    +0.000 C 
ATOM      6  C   UNL     1       2.402   5.833  19.495  0.00  0.00    +0.000 C 
ATOM      7  N   UNL     1       1.646   4.745  20.146  0.00  0.00    +0.000 NA
ATOM      8  C   UNL     1       1.513   3.664  19.139  0.00  0.00    +0.000 C 
ATOM      9  C   UNL     1       2.848   3.187  18.505  0.00  0.00    +0.000 C 
BRANCH   7  10
ATOM     10  C   UNL     1       2.325   4.228  21.364  0.00  0.00    +0.000 C 
BRANCH  10  11
ATOM     11  C   UNL     1       2.115   2.723  21.606  0.00  0.00    +0.000 C 
BRANCH  11  12
ATOM     12  O   UNL     1       0.935   2.503  22.369  0.00  0.00    +0.000 OA
ATOM     13  H   UNL     1       0.482   3.368  22.402  0.00  0.00    +0.000 HD
ENDBRANCH  11  12
ENDBRANCH  10  11
ENDBRANCH   7  10
ENDBRANCH   3   4
ENDBRANCH   2   3
BRANCH   2  14
ATOM     14  C   UNL     1       6.339   4.857  16.238  0.00  0.00    +0.000 C 
BRANCH  14  15
ATOM     15  C   UNL     1       6.700   4.629  14.771  0.00  0.00    +0.000 A 
ATOM     16  C   UNL     1       7.690   5.402  14.140  0.00  0.00    +0.000 A 
ATOM     17  C   UNL     1       7.910   5.306  12.763  0.00  0.00    +0.000 A 
ATOM     18  C   UNL     1       7.154   4.422  11.996  0.00  0.00    +0.000 A 
ATOM     19  C   UNL     1       6.204   3.608  12.609  0.00  0.00    +0.000 A 
ATOM     20  C   UNL     1       5.985   3.709  13.982  0.00  0.00    +0.000 A 
ENDBRANCH  14  15
BRANCH  14  21
ATOM     21  C   UNL     1       7.470   5.588  16.969  0.00  0.00    +0.000 C 
ATOM     22  C   UNL     1       7.259   7.092  17.334  0.00  0.00    +0.000 C 
ATOM     23  C   UNL     1       8.052   6.824  18.627  0.00  0.00    +0.000 C 
ATOM     24  C   UNL     1       7.623   5.350  18.505  0.00  0.00    +0.000 C 
ENDBRANCH  14  21
BRANCH  14  25
ATOM     25  O   UNL     1       6.160   3.579  16.893  0.00  0.00    +0.000 OA
ATOM     26  H   UNL     1       5.262   3.281  16.632  0.00  0.00    +0.000 HD
ENDBRANCH  14  25
ENDBRANCH   2  14
TORSDOF 9
ENDMDL
MODEL 4
REMARK VINA RESULT:      -6.7      2.455      7.244
REMARK  Name = 
REMARK  9 active torsions:
REMARK  status: ('A' for Active; 'I' for Inactive)
REMARK    1  A    between atoms: C_2  and  C_3
REMARK    2  A    between atoms: C_2  and  C_13
REMARK    3  A    between atoms: C_3  and  N_4
REMARK    4  A    between atoms: N_7  and  C_8
REMARK    5  A    between atoms: C_8  and  C_9
REMARK    6  A    between atoms: C_9  and  O_10
REMARK    7  A    between atoms: C_13  and  O_14
REMARK    8  A    between atoms: C_13  and  C_15
REMARK    9  A    between atoms: C_13  and  C_21
REMARK                            x       y       z     vdW  Elec       q    Type
REMARK                         _______ _______ _______ _____ _____    ______ ____
ROOT
ATOM      1  O   UNL     1       1.820   4.595  17.695  0.00  0.00    +0.000 OA
ATOM      2  C   UNL     1       2.855   4.692  18.376  0.00  0.00    +0.000 C 
ENDROOT
BRANCH   2   3
ATOM      3  C   UNL     1       4.190   4.084  17.914  0.00  0.00    +0.000 C 
BRANCH   3   4
ATOM      4  N   UNL     1       4.768   4.917  16.849  0.00  0.00    +0.000 NA
ATOM      5  C   UNL     1       6.061   5.515  17.234  0.00  0.00    +0.000 C 
ATOM      6  C   UNL     1       7.298   4.680  16.859  0.00  0.00    +0.000 C 
ATOM      7  N   UNL     1       7.360   4.334  15.427  0.00  0.00    +0.000 NA
ATOM      8  C   UNL     1       6.127   3.565  15.125  0.00  0.00    +0.000 C 
ATOM      9  C   UNL     1       4.801   4.265  15.529  0.00  0.00    +0.000 C 
BRANCH   7  10
ATOM     10  C   UNL     1       7.440   5.535  14.552  0.00  0.00    +0.000 C 
BRANCH  10  11
ATOM     11  C   UNL     1       7.794   5.220  13.087  0.00  0.00    +0.000 C 
BRANCH  11  12
ATOM     12  O   UNL     1       8.665   6.215  12.563  0.00  0.00    +0.000 OA
ATOM     13  H   UNL     1       8.082   6.866  12.126  0.00  0.00    +0.000 HD
ENDBRANCH  11  12
ENDBRANCH  10  11
ENDBRANCH   7  10
ENDBRANCH   3   4
ENDBRANCH   2   3
BRANCH   2  14
ATOM     14  C   UNL     1       2.772   5.400  19.742  0.00  0.00    +0.000 C 
BRANCH  14  15
ATOM     15  C   UNL     1       2.168   6.791  19.550  0.00  0.00    +0.000 A 
ATOM     16  C   UNL     1       2.349   7.500  18.349  0.00  0.00    +0.000 A 
ATOM     17  C   UNL     1       1.936   8.829  18.230  0.00  0.00    +0.000 A 
ATOM     18  C   UNL     1       1.319   9.468  19.304  0.00  0.00    +0.000 A 
ATOM     19  C   UNL     1       1.083   8.769  20.485  0.00  0.00    +0.000 A 
ATOM     20  C   UNL     1       1.499   7.443  20.602  0.00  0.00    +0.000 A 
ENDBRANCH  14  15
BRANCH  14  21
ATOM     21  C   UNL     1       2.059   4.648  20.870  0.00  0.00    +0.000 C 
ATOM     22  C   UNL     1       0.832   3.756  20.498  0.00  0.00    +0.000 C 
ATOM     23  C   UNL     1       1.291   2.778  21.595  0.00  0.00    +0.000 C 
ATOM     24  C   UNL     1       2.714   3.334  21.402  0.00  0.00    +0.000 C 
ENDBRANCH  14  21
BRANCH  14  25
ATOM     25  O   UNL     1       4.162   5.530  20.125  0.00  0.00    +0.000 OA
ATOM     26  H   UNL     1       4.434   4.632  20.413  0.00  0.00    +0.000 HD
ENDBRANCH  14  25
ENDBRANCH   2  14
TORSDOF 9
ENDMDL
MODEL 5
REMARK VINA RESULT:      -6.7      2.159      7.072
REMARK  Name = 
REMARK  9 active torsions:
REMARK  status: ('A' for Active; 'I' for Inactive)
REMARK    1  A    between atoms: C_2  and  C_3
REMARK    2  A    between atoms: C_2  and  C_13
REMARK    3  A    between atoms: C_3  and  N_4
REMARK    4  A    between atoms: N_7  and  C_8
REMARK    5  A    between atoms: C_8  and  C_9
REMARK    6  A    between atoms: C_9  and  O_10
REMARK    7  A    between atoms: C_13  and  O_14
REMARK    8  A    between atoms: C_13  and  C_15
REMARK    9  A    between atoms: C_13  and  C_21
REMARK                            x       y       z     vdW  Elec       q    Type
REMARK                         _______ _______ _______ _____ _____    ______ ____
ROOT
ATOM      1  O   UNL     1       4.074   3.250  19.913  0.00  0.00    +0.000 OA
ATOM      2  C   UNL     1       3.791   4.447  19.739  0.00  0.00    +0.000 C 
ENDROOT
BRANCH   2   3
ATOM      3  C   UNL     1       4.839   5.468  19.264  0.00  0.00    +0.000 C 
BRANCH   3   4
ATOM      4  N   UNL     1       5.725   4.839  18.273  0.00  0.00    +0.000 NA
ATOM      5  C   UNL     1       5.044   4.568  16.993  0.00  0.00    +0.000 C 
ATOM      6  C   UNL     1       5.151   5.696  15.951  0.00  0.00    +0.000 C 
ATOM      7  N   UNL     1       6.541   6.093  15.658  0.00  0.00    +0.000 NA
ATOM      8  C   UNL     1       7.132   6.541  16.943  0.00  0.00    +0.000 C 
ATOM      9  C   UNL     1       7.019   5.521  18.109  0.00  0.00    +0.000 C 
BRANCH   7  10
ATOM     10  C   UNL     1       7.345   4.979  15.087  0.00  0.00    +0.000 C 
BRANCH  10  11
ATOM     11  C   UNL     1       7.517   5.049  13.559  0.00  0.00    +0.000 C 
BRANCH  11  12
ATOM     12  O   UNL     1       8.644   5.849  13.223  0.00  0.00    +0.000 OA
ATOM     13  H   UNL     1       9.314   5.653  13.906  0.00  0.00    +0.000 HD
ENDBRANCH  11  12
ENDBRANCH  10  11
ENDBRANCH   7  10
ENDBRANCH   3   4
ENDBRANCH   2   3
BRANCH   2  14
ATOM     14  C   UNL     1       2.359   4.918  20.061  0.00  0.00    +0.000 C 
BRANCH  14  15
ATOM     15  C   UNL     1       2.158   6.327  19.503  0.00  0.00    +0.000 A 
ATOM     16  C   UNL     1       2.406   6.611  18.148  0.00  0.00    +0.000 A 
ATOM     17  C   UNL     1       2.378   7.924  17.672  0.00  0.00    +0.000 A 
ATOM     18  C   UNL     1       2.083   8.974  18.538  0.00  0.00    +0.000 A 
ATOM     19  C   UNL     1       1.782   8.711  19.872  0.00  0.00    +0.000 A 
ATOM     20  C   UNL     1       1.814   7.399  20.345  0.00  0.00    +0.000 A 
ENDBRANCH  14  15
BRANCH  14  21
ATOM     21  C   UNL     1       1.214   3.994  19.635  0.00  0.00    +0.000 C 
ATOM     22  C   UNL     1       1.355   3.225  18.282  0.00  0.00    +0.000 C 
ATOM     23  C   UNL     1       0.618   2.048  18.949  0.00  0.00    +0.000 C 
ATOM     24  C   UNL     1       1.123   2.585  20.302  0.00  0.00    +0.000 C 
ENDBRANCH  14  21
BRANCH  14  25
ATOM     25  O   UNL     1       2.352   4.970  21.507  0.00  0.00    +0.000 OA
ATOM     26  H   UNL     1       3.297   4.928  21.771  0.00  0.00    +0.000 HD
ENDBRANCH  14  25
ENDBRANCH   2  14
TORSDOF 9
ENDMDL
MODEL 6
REMARK VINA RESULT:      -6.7      1.035      1.179
REMARK  Name = 
REMARK  9 active torsions:
REMARK  status: ('A' for Active; 'I' for Inactive)
REMARK    1  A    between atoms: C_2  and  C_3
REMARK    2  A    between atoms: C_2  and  C_13
REMARK    3  A    between atoms: C_3  and  N_4
REMARK    4  A    between atoms: N_7  and  C_8
REMARK    5  A    between atoms: C_8  and  C_9
REMARK    6  A    between atoms: C_9  and  O_10
REMARK    7  A    between atoms: C_13  and  O_14
REMARK    8  A    between atoms: C_13  and  C_15
REMARK    9  A    between atoms: C_13  and  C_21
REMARK                            x       y       z     vdW  Elec       q    Type
REMARK                         _______ _______ _______ _____ _____    ______ ____
ROOT
ATOM      1  O   UNL     1       4.430   5.882  16.463  0.00  0.00    +0.000 OA
ATOM      2  C   UNL     1       5.087   4.832  16.553  0.00  0.00    +0.000 C 
ENDROOT
BRANCH   2   3
ATOM      3  C   UNL     1       4.470   3.532  17.095  0.00  0.00    +0.000 C 
BRANCH   3   4
ATOM      4  N   UNL     1       3.817   3.797  18.385  0.00  0.00    +0.000 NA
ATOM      5  C   UNL     1       2.614   4.641  18.250  0.00  0.00    +0.000 C 
ATOM      6  C   UNL     1       1.297   3.865  18.067  0.00  0.00    +0.000 C 
ATOM      7  N   UNL     1       1.047   2.875  19.131  0.00  0.00    +0.000 NA
ATOM      8  C   UNL     1       2.192   1.930  19.105  0.00  0.00    +0.000 C 
ATOM      9  C   UNL     1       3.593   2.593  19.202  0.00  0.00    +0.000 C 
BRANCH   7  10
ATOM     10  C   UNL     1       0.931   3.498  20.477  0.00  0.00    +0.000 C 
BRANCH  10  11
ATOM     11  C   UNL     1       1.340   2.570  21.635  0.00  0.00    +0.000 C 
BRANCH  11  12
ATOM     12  O   UNL     1       2.345   3.186  22.431  0.00  0.00    +0.000 OA
ATOM     13  H   UNL     1       2.414   4.103  22.100  0.00  0.00    +0.000 HD
ENDBRANCH  11  12
ENDBRANCH  10  11
ENDBRANCH   7  10
ENDBRANCH   3   4
ENDBRANCH   2   3
BRANCH   2  14
ATOM     14  C   UNL     1       6.575   4.860  16.152  0.00  0.00    +0.000 C 
BRANCH  14  15
ATOM     15  C   UNL     1       6.689   4.715  14.635  0.00  0.00    +0.000 A 
ATOM     16  C   UNL     1       5.878   3.807  13.931  0.00  0.00    +0.000 A 
ATOM     17  C   UNL     1       6.089   3.557  12.573  0.00  0.00    +0.000 A 
ATOM     18  C   UNL     1       7.104   4.223  11.890  0.00  0.00    +0.000 A 
ATOM     19  C   UNL     1       7.885   5.166  12.554  0.00  0.00    +0.000 A 
ATOM     20  C   UNL     1       7.674   5.411  13.911  0.00  0.00    +0.000 A 
ENDBRANCH  14  15
BRANCH  14  21
ATOM     21  C   UNL     1       7.403   6.050  16.648  0.00  0.00    +0.000 C 
ATOM     22  C   UNL     1       6.665   7.401  16.914  0.00  0.00    +0.000 C 
ATOM     23  C   UNL     1       7.628   7.621  18.096  0.00  0.00    +0.000 C 
ATOM     24  C   UNL     1       7.793   6.091  18.160  0.00  0.00    +0.000 C 
ENDBRANCH  14  21
BRANCH  14  25
ATOM     25  O   UNL     1       7.105   3.674  16.789  0.00  0.00    +0.000 OA
ATOM     26  H   UNL     1       6.913   2.940  16.165  0.00  0.00    +0.000 HD
ENDBRANCH  14  25
ENDBRANCH   2  14
TORSDOF 9
ENDMDL
MODEL 7
REMARK VINA RESULT:      -6.6      0.795      3.567
REMARK  Name = 
REMARK  9 active torsions:
REMARK  status: ('A' for Active; 'I' for Inactive)
REMARK    1  A    between atoms: C_2  and  C_3
REMARK    2  A    between atoms: C_2  and  C_13
REMARK    3  A    between atoms: C_3  and  N_4
REMARK    4  A    between atoms: N_7  and  C_8
REMARK    5  A    between atoms: C_8  and  C_9
REMARK    6  A    between atoms: C_9  and  O_10
REMARK    7  A    between atoms: C_13  and  O_14
REMARK    8  A    between atoms: C_13  and  C_15
REMARK    9  A    between atoms: C_13  and  C_21
REMARK                            x       y       z     vdW  Elec       q    Type
REMARK                         _______ _______ _______ _____ _____    ______ ____
ROOT
ATOM      1  O   UNL     1       5.414   2.782  16.216  0.00  0.00    +0.000 OA
ATOM      2  C   UNL     1       5.135   3.990  16.291  0.00  0.00    +0.000 C 
ENDROOT
BRANCH   2   3
ATOM      3  C   UNL     1       3.834   4.483  16.948  0.00  0.00    +0.000 C 
BRANCH   3   4
ATOM      4  N   UNL     1       3.754   3.975  18.324  0.00  0.00    +0.000 NA
ATOM      5  C   UNL     1       4.022   5.018  19.332  0.00  0.00    +0.000 C 
ATOM      6  C   UNL     1       2.774   5.764  19.839  0.00  0.00    +0.000 C 
ATOM      7  N   UNL     1       1.731   4.867  20.371  0.00  0.00    +0.000 NA
ATOM      8  C   UNL     1       1.353   3.955  19.263  0.00  0.00    +0.000 C 
ATOM      9  C   UNL     1       2.537   3.195  18.605  0.00  0.00    +0.000 C 
BRANCH   7  10
ATOM     10  C   UNL     1       2.198   4.079  21.544  0.00  0.00    +0.000 C 
BRANCH  10  11
ATOM     11  C   UNL     1       1.701   2.623  21.559  0.00  0.00    +0.000 C 
BRANCH  11  12
ATOM     12  O   UNL     1       0.899   2.385  22.710  0.00  0.00    +0.000 OA
ATOM     13  H   UNL     1       0.595   1.461  22.629  0.00  0.00    +0.000 HD
ENDBRANCH  11  12
ENDBRANCH  10  11
ENDBRANCH   7  10
ENDBRANCH   3   4
ENDBRANCH   2   3
BRANCH   2  14
ATOM     14  C   UNL     1       6.103   5.009  15.659  0.00  0.00    +0.000 C 
BRANCH  14  15
ATOM     15  C   UNL     1       6.947   5.648  16.762  0.00  0.00    +0.000 A 
ATOM     16  C   UNL     1       7.453   4.879  17.824  0.00  0.00    +0.000 A 
ATOM     17  C   UNL     1       8.086   5.485  18.913  0.00  0.00    +0.000 A 
ATOM     18  C   UNL     1       8.238   6.870  18.950  0.00  0.00    +0.000 A 
ATOM     19  C   UNL     1       7.792   7.646  17.883  0.00  0.00    +0.000 A 
ATOM     20  C   UNL     1       7.158   7.039  16.799  0.00  0.00    +0.000 A 
ENDBRANCH  14  15
BRANCH  14  21
ATOM     21  C   UNL     1       6.992   4.503  14.518  0.00  0.00    +0.000 C 
ATOM     22  C   UNL     1       6.296   3.954  13.232  0.00  0.00    +0.000 C 
ATOM     23  C   UNL     1       7.455   4.564  12.422  0.00  0.00    +0.000 C 
ATOM     24  C   UNL     1       7.650   5.563  13.578  0.00  0.00    +0.000 C 
ENDBRANCH  14  21
BRANCH  14  25
ATOM     25  O   UNL     1       5.212   6.001  15.100  0.00  0.00    +0.000 OA
ATOM     26  H   UNL     1       4.824   5.579  14.303  0.00  0.00    +0.000 HD
ENDBRANCH  14  25
ENDBRANCH   2  14
TORSDOF 9
ENDMDL
MODEL 8
REMARK VINA RESULT:      -6.6      1.142      1.729
REMARK  Name = 
REMARK  9 active torsions:
REMARK  status: ('A' for Active; 'I' for Inactive)
REMARK    1  A    between atoms: C_2  and  C_3
REMARK    2  A    between atoms: C_2  and  C_13
REMARK    3  A    between atoms: C_3  and  N_4
REMARK    4  A    between atoms: N_7  and  C_8
REMARK    5  A    between atoms: C_8  and  C_9
REMARK    6  A    between atoms: C_9  and  O_10
REMARK    7  A    between atoms: C_13  and  O_14
REMARK    8  A    between atoms: C_13  and  C_15
REMARK    9  A    between atoms: C_13  and  C_21
REMARK                            x       y       z     vdW  Elec       q    Type
REMARK                         _______ _______ _______ _____ _____    ______ ____
ROOT
ATOM      1  O   UNL     1       4.627   6.421  16.091  0.00  0.00    +0.000 OA
ATOM      2  C   UNL     1       4.857   5.206  16.204  0.00  0.00    +0.000 C 
ENDROOT
BRANCH   2   3
ATOM      3  C   UNL     1       3.738   4.191  16.495  0.00  0.00    +0.000 C 
BRANCH   3   4
ATOM      4  N   UNL     1       3.087   4.527  17.769  0.00  0.00    +0.000 NA
ATOM      5  C   UNL     1       1.640   4.239  17.761  0.00  0.00    +0.000 C 
ATOM      6  C   UNL     1       1.257   2.835  18.264  0.00  0.00    +0.000 C 
ATOM      7  N   UNL     1       1.780   2.532  19.610  0.00  0.00    +0.000 NA
ATOM      8  C   UNL     1       3.257   2.647  19.525  0.00  0.00    +0.000 C 
ATOM      9  C   UNL     1       3.779   3.994  18.954  0.00  0.00    +0.000 C 
BRANCH   7  10
ATOM     10  C   UNL     1       1.254   3.458  20.649  0.00  0.00    +0.000 C 
BRANCH  10  11
ATOM     11  C   UNL     1       2.332   4.012  21.598  0.00  0.00    +0.000 C 
BRANCH  11  12
ATOM     12  O   UNL     1       2.406   5.428  21.490  0.00  0.00    +0.000 OA
ATOM     13  H   UNL     1       3.189   5.687  22.015  0.00  0.00    +0.000 HD
ENDBRANCH  11  12
ENDBRANCH  10  11
ENDBRANCH   7  10
ENDBRANCH   3   4
ENDBRANCH   2   3
BRANCH   2  14
ATOM     14  C   UNL     1       6.317   4.721  16.097  0.00  0.00    +0.000 C 
BRANCH  14  15
ATOM     15  C   UNL     1       6.680   4.545  14.623  0.00  0.00    +0.000 A 
ATOM     16  C   UNL     1       7.651   5.361  14.015  0.00  0.00    +0.000 A 
ATOM     17  C   UNL     1       7.870   5.311  12.636  0.00  0.00    +0.000 A 
ATOM     18  C   UNL     1       7.133   4.433  11.843  0.00  0.00    +0.000 A 
ATOM     19  C   UNL     1       6.204   3.579  12.432  0.00  0.00    +0.000 A 
ATOM     20  C   UNL     1       5.986   3.633  13.808  0.00  0.00    +0.000 A 
ENDBRANCH  14  15
BRANCH  14  21
ATOM     21  C   UNL     1       7.377   5.555  16.824  0.00  0.00    +0.000 C 
ATOM     22  C   UNL     1       6.963   6.958  17.369  0.00  0.00    +0.000 C 
ATOM     23  C   UNL     1       7.901   6.700  18.564  0.00  0.00    +0.000 C 
ATOM     24  C   UNL     1       7.702   5.194  18.308  0.00  0.00    +0.000 C 
ENDBRANCH  14  21
BRANCH  14  25
ATOM     25  O   UNL     1       6.276   3.425  16.739  0.00  0.00    +0.000 OA
ATOM     26  H   UNL     1       6.665   2.803  16.087  0.00  0.00    +0.000 HD
ENDBRANCH  14  25
ENDBRANCH   2  14
TORSDOF 9
ENDMDL
MODEL 9
REMARK VINA RESULT:      -6.5      3.926      6.440
REMARK  Name = 
REMARK  9 active torsions:
REMARK  status: ('A' for Active; 'I' for Inactive)
REMARK    1  A    between atoms: C_2  and  C_3
REMARK    2  A    between atoms: C_2  and  C_13
REMARK    3  A    between atoms: C_3  and  N_4
REMARK    4  A    between atoms: N_7  and  C_8
REMARK    5  A    between atoms: C_8  and  C_9
REMARK    6  A    between atoms: C_9  and  O_10
REMARK    7  A    between atoms: C_13  and  O_14
REMARK    8  A    between atoms: C_13  and  C_15
REMARK    9  A    between atoms: C_13  and  C_21
REMARK                            x       y       z     vdW  Elec       q    Type
REMARK                         _______ _______ _______ _____ _____    ______ ____
ROOT
ATOM      1  O   UNL     1       3.003   7.632  17.726  0.00  0.00    +0.000 OA
ATOM      2  C   UNL     1       2.633   7.055  18.762  0.00  0.00    +0.000 C 
ENDROOT
BRANCH   2   3
ATOM      3  C   UNL     1       2.122   7.833  19.986  0.00  0.00    +0.000 C 
BRANCH   3   4
ATOM      4  N   UNL     1       0.942   8.625  19.609  0.00  0.00    +0.000 NA
ATOM      5  C   UNL     1       0.267   9.229  20.774  0.00  0.00    +0.000 C 
ATOM      6  C   UNL     1       0.747  10.645  21.138  0.00  0.00    +0.000 C 
ATOM      7  N   UNL     1       0.667  11.598  20.014  0.00  0.00    +0.000 NA
ATOM      8  C   UNL     1       1.516  11.044  18.930  0.00  0.00    +0.000 C 
ATOM      9  C   UNL     1       1.187   9.583  18.519  0.00  0.00    +0.000 C 
BRANCH   7  10
ATOM     10  C   UNL     1      -0.725  11.788  19.525  0.00  0.00    +0.000 C 
BRANCH  10  11
ATOM     11  C   UNL     1      -0.892  12.970  18.554  0.00  0.00    +0.000 C 
BRANCH  11  12
ATOM     12  O   UNL     1      -1.328  12.508  17.281  0.00  0.00    +0.000 OA
ATOM     13  H   UNL     1      -2.005  13.150  16.990  0.00  0.00    +0.000 HD
ENDBRANCH  11  12
ENDBRANCH  10  11
ENDBRANCH   7  10
ENDBRANCH   3   4
ENDBRANCH   2   3
BRANCH   2  14
ATOM     14  C   UNL     1       2.741   5.518  18.826  0.00  0.00    +0.000 C 
BRANCH  14  15
ATOM     15  C   UNL     1       4.129   5.093  18.349  0.00  0.00    +0.000 A 
ATOM     16  C   UNL     1       5.281   5.427  19.083  0.00  0.00    +0.000 A 
ATOM     17  C   UNL     1       6.557   5.180  18.572  0.00  0.00    +0.000 A 
ATOM     18  C   UNL     1       6.704   4.579  17.323  0.00  0.00    +0.000 A 
ATOM     19  C   UNL     1       5.577   4.192  16.602  0.00  0.00    +0.000 A 
ATOM     20  C   UNL     1       4.305   4.443  17.114  0.00  0.00    +0.000 A 
ENDBRANCH  14  15
BRANCH  14  21
ATOM     21  C   UNL     1       2.398   4.856  20.164  0.00  0.00    +0.000 C 
ATOM     22  C   UNL     1       0.941   4.332  20.374  0.00  0.00    +0.000 C 
ATOM     23  C   UNL     1       1.544   3.168  21.182  0.00  0.00    +0.000 C 
ATOM     24  C   UNL     1       2.846   3.376  20.384  0.00  0.00    +0.000 C 
ENDBRANCH  14  21
BRANCH  14  25
ATOM     25  O   UNL     1       1.749   5.083  17.866  0.00  0.00    +0.000 OA
ATOM     26  H   UNL     1       0.902   5.470  18.178  0.00  0.00    +0.000 HD
ENDBRANCH  14  25
ENDBRANCH   2  14
TORSDOF 9
ENDMDL
