MODEL 1
REMARK VINA RESULT:      -8.0      0.000      0.000
REMARK  Name = 
REMARK  10 active torsions:
REMARK  status: ('A' for Active; 'I' for Inactive)
REMARK    1  A    between atoms: C_1  and  O_2
REMARK    2  A    between atoms: O_2  and  C_3
REMARK    3  A    between atoms: C_6  and  C_7
REMARK    4  A    between atoms: C_7  and  C_8
REMARK    5  A    between atoms: C_8  and  N_9
REMARK    6  A    between atoms: C_10  and  C_12
REMARK    7  A    between atoms: N_15  and  S_16
REMARK    8  A    between atoms: S_16  and  C_19
REMARK    9  A    between atoms: C_22  and  O_23
REMARK   10  A    between atoms: O_23  and  C_24
REMARK                            x       y       z     vdW  Elec       q    Type
REMARK                         _______ _______ _______ _____ _____    ______ ____
ROOT
ATOM      1  C   UNL     1       8.091   5.581  18.719  0.00  0.00    +0.000 C 
ATOM      2  C   UNL     1       7.881   4.471  17.685  0.00  0.00    +0.000 C 
ATOM      3  C   UNL     1       6.466   4.516  17.115  0.00  0.00    +0.000 C 
ATOM      4  N   UNL     1       5.455   4.353  18.198  0.00  0.00    +0.000 NA
ATOM      5  C   UNL     1       5.635   5.336  19.315  0.00  0.00    +0.000 C 
ATOM      6  C   UNL     1       7.076   5.363  19.840  0.00  0.00    +0.000 C 
ENDROOT
BRANCH   1   8
ATOM      7  N   UNL     1       8.560   7.990  18.847  0.00  0.00    +0.000 N 
ATOM      8  C   UNL     1       7.987   6.976  18.101  0.00  0.00    +0.000 C 
ATOM      9  O   UNL     1       7.454   7.197  17.018  0.00  0.00    +0.000 OA
ATOM     10  H   UNL     1       9.159   7.755  19.624  0.00  0.00    +0.000 HD
BRANCH   7  11
ATOM     11  C   UNL     1       8.496   9.365  18.378  0.00  0.00    +0.000 C 
BRANCH  11  12
ATOM     12  C   UNL     1       9.254  10.319  19.304  0.00  0.00    +0.000 C 
BRANCH  12  16
ATOM     13  C   UNL     1      10.870  13.772  17.263  0.00  0.00    +0.000 A 
ATOM     14  C   UNL     1      11.716  12.785  17.768  0.00  0.00    +0.000 A 
ATOM     15  C   UNL     1      11.193  11.664  18.416  0.00  0.00    +0.000 A 
ATOM     16  C   UNL     1       9.811  11.521  18.582  0.00  0.00    +0.000 A 
ATOM     17  C   UNL     1       8.964  12.520  18.084  0.00  0.00    +0.000 A 
ATOM     18  C   UNL     1       9.491  13.640  17.428  0.00  0.00    +0.000 A 
BRANCH  13  20
ATOM     19  C   UNL     1      10.887  16.099  16.856  0.00  0.00    +0.000 C 
ATOM     20  O   UNL     1      11.497  14.828  16.661  0.00  0.00    +0.000 OA
ENDBRANCH  13  20
ENDBRANCH  12  16
ENDBRANCH  11  12
ENDBRANCH   7  11
ENDBRANCH   1   8
BRANCH   4  21
ATOM     21  S   UNL     1       3.836   4.379  17.562  0.00  0.00    +0.000 S 
ATOM     22  O   UNL     1       3.857   5.091  16.299  0.00  0.00    +0.000 OA
ATOM     23  O   UNL     1       3.309   3.035  17.645  0.00  0.00    +0.000 OA
BRANCH  21  24
ATOM     24  C   UNL     1       2.957   5.400  18.731  0.00  0.00    +0.000 A 
ATOM     25  C   UNL     1       2.843   6.770  18.495  0.00  0.00    +0.000 A 
ATOM     26  C   UNL     1       2.164   7.572  19.417  0.00  0.00    +0.000 A 
ATOM     27  C   UNL     1       1.558   7.008  20.547  0.00  0.00    +0.000 A 
ATOM     28  C   UNL     1       1.673   5.636  20.775  0.00  0.00    +0.000 A 
ATOM     29  C   UNL     1       2.380   4.829  19.873  0.00  0.00    +0.000 A 
BRANCH  27  30
ATOM     30  O   UNL     1       0.935   7.896  21.380  0.00  0.00    +0.000 OA
ATOM     31  C   UNL     1       1.176   9.274  21.115  0.00  0.00    +0.000 C 
ENDBRANCH  27  30
ENDBRANCH  21  24
ENDBRANCH   4  21
TORSDOF 8
ENDMDL
MODEL 2
REMARK VINA RESULT:      -7.9      1.058      1.508
REMARK  Name = 
REMARK  10 active torsions:
REMARK  status: ('A' for Active; 'I' for Inactive)
REMARK    1  A    between atoms: C_1  and  O_2
REMARK    2  A    between atoms: O_2  and  C_3
REMARK    3  A    between atoms: C_6  and  C_7
REMARK    4  A    between atoms: C_7  and  C_8
REMARK    5  A    between atoms: C_8  and  N_9
REMARK    6  A    between atoms: C_10  and  C_12
REMARK    7  A    between atoms: N_15  and  S_16
REMARK    8  A    between atoms: S_16  and  C_19
REMARK    9  A    between atoms: C_22  and  O_23
REMARK   10  A    between atoms: O_23  and  C_24
REMARK                            x       y       z     vdW  Elec       q    Type
REMARK                         _______ _______ _______ _____ _____    ______ ____
ROOT
ATOM      1  C   UNL     1       7.609   5.551  17.989  0.00  0.00    +0.000 C 
ATOM      2  C   UNL     1       7.072   4.581  16.932  0.00  0.00    +0.000 C 
ATOM      3  C   UNL     1       5.546   4.578  16.919  0.00  0.00    +0.000 C 
ATOM      4  N   UNL     1       5.007   4.176  18.249  0.00  0.00    +0.000 NA
ATOM      5  C   UNL     1       5.550   5.006  19.373  0.00  0.00    +0.000 C 
ATOM      6  C   UNL     1       7.082   5.088  19.347  0.00  0.00    +0.000 C 
ENDROOT
BRANCH   1   8
ATOM      7  N   UNL     1       8.206   7.933  18.019  0.00  0.00    +0.000 N 
ATOM      8  C   UNL     1       7.241   7.003  17.683  0.00  0.00    +0.000 C 
ATOM      9  O   UNL     1       6.180   7.336  17.165  0.00  0.00    +0.000 OA
ATOM     10  H   UNL     1       9.136   7.619  18.255  0.00  0.00    +0.000 HD
BRANCH   7  11
ATOM     11  C   UNL     1       7.958   9.351  17.805  0.00  0.00    +0.000 C 
BRANCH  11  12
ATOM     12  C   UNL     1       8.572  10.210  18.913  0.00  0.00    +0.000 C 
BRANCH  12  16
ATOM     13  C   UNL     1      11.063  13.386  17.357  0.00  0.00    +0.000 A 
ATOM     14  C   UNL     1       9.674  13.515  17.375  0.00  0.00    +0.000 A 
ATOM     15  C   UNL     1       8.871  12.495  17.889  0.00  0.00    +0.000 A 
ATOM     16  C   UNL     1       9.446  11.318  18.381  0.00  0.00    +0.000 A 
ATOM     17  C   UNL     1      10.841  11.186  18.351  0.00  0.00    +0.000 A 
ATOM     18  C   UNL     1      11.645  12.214  17.842  0.00  0.00    +0.000 A 
BRANCH  13  20
ATOM     19  C   UNL     1      11.088  15.703  16.904  0.00  0.00    +0.000 C 
ATOM     20  O   UNL     1      11.742  14.443  16.818  0.00  0.00    +0.000 OA
ENDBRANCH  13  20
ENDBRANCH  12  16
ENDBRANCH  11  12
ENDBRANCH   7  11
ENDBRANCH   1   8
BRANCH   4  21
ATOM     21  S   UNL     1       3.268   4.145  18.245  0.00  0.00    +0.000 S 
ATOM     22  O   UNL     1       2.825   3.803  16.908  0.00  0.00    +0.000 OA
ATOM     23  O   UNL     1       2.839   3.369  19.387  0.00  0.00    +0.000 OA
BRANCH  21  24
ATOM     24  C   UNL     1       2.830   5.851  18.528  0.00  0.00    +0.000 A 
ATOM     25  C   UNL     1       2.984   6.778  17.498  0.00  0.00    +0.000 A 
ATOM     26  C   UNL     1       2.652   8.117  17.725  0.00  0.00    +0.000 A 
ATOM     27  C   UNL     1       2.124   8.526  18.955  0.00  0.00    +0.000 A 
ATOM     28  C   UNL     1       1.969   7.592  19.981  0.00  0.00    +0.000 A 
ATOM     29  C   UNL     1       2.330   6.254  19.774  0.00  0.00    +0.000 A 
BRANCH  27  30
ATOM     30  O   UNL     1       1.851   9.863  19.059  0.00  0.00    +0.000 OA
ATOM     31  C   UNL     1       0.886  10.228  20.040  0.00  0.00    +0.000 C 
ENDBRANCH  27  30
ENDBRANCH  21  24
ENDBRANCH   4  21
TORSDOF 8
ENDMDL
MODEL 3
REMARK VINA RESULT:      -7.8      1.762      2.062
REMARK  Name = 
REMARK  10 active torsions:
REMARK  status: ('A' for Active; 'I' for Inactive)
REMARK    1  A    between atoms: C_1  and  O_2
REMARK    2  A    between atoms: O_2  and  C_3
REMARK    3  A    between atoms: C_6  and  C_7
REMARK    4  A    between atoms: C_7  and  C_8
REMARK    5  A    between atoms: C_8  and  N_9
REMARK    6  A    between atoms: C_10  and  C_12
REMARK    7  A    between atoms: N_15  and  S_16
REMARK    8  A    between atoms: S_16  and  C_19
REMARK    9  A    between atoms: C_22  and  O_23
REMARK   10  A    between atoms: O_23  and  C_24
REMARK                            x       y       z     vdW  Elec       q    Type
REMARK                         _______ _______ _______ _____ _____    ______ ____
ROOT
ATOM      1  C   UNL     1       7.868   5.692  18.311  0.00  0.00    +0.000 C 
ATOM      2  C   UNL     1       7.582   4.575  17.304  0.00  0.00    +0.000 C 
ATOM      3  C   UNL     1       6.088   4.464  17.020  0.00  0.00    +0.000 C 
ATOM      4  N   UNL     1       5.332   4.177  18.273  0.00  0.00    +0.000 NA
ATOM      5  C   UNL     1       5.618   5.164  19.364  0.00  0.00    +0.000 C 
ATOM      6  C   UNL     1       7.122   5.349  19.601  0.00  0.00    +0.000 C 
ENDROOT
BRANCH   1   8
ATOM      7  N   UNL     1       8.219   8.123  18.295  0.00  0.00    +0.000 N 
ATOM      8  C   UNL     1       7.493   7.071  17.769  0.00  0.00    +0.000 C 
ATOM      9  O   UNL     1       6.626   7.250  16.919  0.00  0.00    +0.000 OA
ATOM     10  H   UNL     1       9.050   7.930  18.835  0.00  0.00    +0.000 HD
BRANCH   7  11
ATOM     11  C   UNL     1       7.932   9.488  17.880  0.00  0.00    +0.000 C 
BRANCH  11  12
ATOM     12  C   UNL     1       9.196  10.349  17.836  0.00  0.00    +0.000 C 
BRANCH  12  16
ATOM     13  C   UNL     1       9.349  13.231  21.057  0.00  0.00    +0.000 A 
ATOM     14  C   UNL     1       9.534  11.872  21.310  0.00  0.00    +0.000 A 
ATOM     15  C   UNL     1       9.497  10.943  20.268  0.00  0.00    +0.000 A 
ATOM     16  C   UNL     1       9.258  11.360  18.953  0.00  0.00    +0.000 A 
ATOM     17  C   UNL     1       9.061  12.724  18.704  0.00  0.00    +0.000 A 
ATOM     18  C   UNL     1       9.106  13.655  19.750  0.00  0.00    +0.000 A 
BRANCH  13  20
ATOM     19  C   UNL     1       9.118  15.418  21.919  0.00  0.00    +0.000 C 
ATOM     20  O   UNL     1       9.393  14.042  22.157  0.00  0.00    +0.000 OA
ENDBRANCH  13  20
ENDBRANCH  12  16
ENDBRANCH  11  12
ENDBRANCH   7  11
ENDBRANCH   1   8
BRANCH   4  21
ATOM     21  S   UNL     1       3.627   4.025  17.964  0.00  0.00    +0.000 S 
ATOM     22  O   UNL     1       3.416   4.121  16.532  0.00  0.00    +0.000 OA
ATOM     23  O   UNL     1       3.145   2.882  18.707  0.00  0.00    +0.000 OA
BRANCH  21  24
ATOM     24  C   UNL     1       2.947   5.501  18.699  0.00  0.00    +0.000 A 
ATOM     25  C   UNL     1       2.983   6.700  17.989  0.00  0.00    +0.000 A 
ATOM     26  C   UNL     1       2.461   7.859  18.571  0.00  0.00    +0.000 A 
ATOM     27  C   UNL     1       1.861   7.817  19.835  0.00  0.00    +0.000 A 
ATOM     28  C   UNL     1       1.824   6.613  20.540  0.00  0.00    +0.000 A 
ATOM     29  C   UNL     1       2.375   5.453  19.978  0.00  0.00    +0.000 A 
BRANCH  27  30
ATOM     30  O   UNL     1       1.399   9.018  20.303  0.00  0.00    +0.000 OA
ATOM     31  C   UNL     1       0.682   8.974  21.532  0.00  0.00    +0.000 C 
ENDBRANCH  27  30
ENDBRANCH  21  24
ENDBRANCH   4  21
TORSDOF 8
ENDMDL
MODEL 4
REMARK VINA RESULT:      -7.8      1.608      2.028
REMARK  Name = 
REMARK  10 active torsions:
REMARK  status: ('A' for Active; 'I' for Inactive)
REMARK    1  A    between atoms: C_1  and  O_2
REMARK    2  A    between atoms: O_2  and  C_3
REMARK    3  A    between atoms: C_6  and  C_7
REMARK    4  A    between atoms: C_7  and  C_8
REMARK    5  A    between atoms: C_8  and  N_9
REMARK    6  A    between atoms: C_10  and  C_12
REMARK    7  A    between atoms: N_15  and  S_16
REMARK    8  A    between atoms: S_16  and  C_19
REMARK    9  A    between atoms: C_22  and  O_23
REMARK   10  A    between atoms: O_23  and  C_24
REMARK                            x       y       z     vdW  Elec       q    Type
REMARK                         _______ _______ _______ _____ _____    ______ ____
ROOT
ATOM      1  C   UNL     1       7.890   5.671  18.380  0.00  0.00    +0.000 C 
ATOM      2  C   UNL     1       7.596   4.526  17.407  0.00  0.00    +0.000 C 
ATOM      3  C   UNL     1       6.102   4.424  17.116  0.00  0.00    +0.000 C 
ATOM      4  N   UNL     1       5.335   4.187  18.373  0.00  0.00    +0.000 NA
ATOM      5  C   UNL     1       5.626   5.205  19.434  0.00  0.00    +0.000 C 
ATOM      6  C   UNL     1       7.131   5.379  19.675  0.00  0.00    +0.000 C 
ENDROOT
BRANCH   1   8
ATOM      7  N   UNL     1       8.245   8.101  18.316  0.00  0.00    +0.000 N 
ATOM      8  C   UNL     1       7.535   7.037  17.791  0.00  0.00    +0.000 C 
ATOM      9  O   UNL     1       6.699   7.196  16.908  0.00  0.00    +0.000 OA
ATOM     10  H   UNL     1       9.056   7.921  18.889  0.00  0.00    +0.000 HD
BRANCH   7  11
ATOM     11  C   UNL     1       7.974   9.455  17.858  0.00  0.00    +0.000 C 
BRANCH  11  12
ATOM     12  C   UNL     1       9.219  10.341  17.928  0.00  0.00    +0.000 C 
BRANCH  12  16
ATOM     13  C   UNL     1       8.344  14.427  19.041  0.00  0.00    +0.000 A 
ATOM     14  C   UNL     1       7.881  13.904  17.833  0.00  0.00    +0.000 A 
ATOM     15  C   UNL     1       8.153  12.581  17.480  0.00  0.00    +0.000 A 
ATOM     16  C   UNL     1       8.909  11.762  18.326  0.00  0.00    +0.000 A 
ATOM     17  C   UNL     1       9.383  12.294  19.533  0.00  0.00    +0.000 A 
ATOM     18  C   UNL     1       9.102  13.620  19.888  0.00  0.00    +0.000 A 
BRANCH  13  20
ATOM     19  C   UNL     1       8.302  16.635  18.202  0.00  0.00    +0.000 C 
ATOM     20  O   UNL     1       8.026  15.738  19.271  0.00  0.00    +0.000 OA
ENDBRANCH  13  20
ENDBRANCH  12  16
ENDBRANCH  11  12
ENDBRANCH   7  11
ENDBRANCH   1   8
BRANCH   4  21
ATOM     21  S   UNL     1       3.630   4.046  18.057  0.00  0.00    +0.000 S 
ATOM     22  O   UNL     1       3.444   3.924  16.624  0.00  0.00    +0.000 OA
ATOM     23  O   UNL     1       3.096   3.052  18.960  0.00  0.00    +0.000 OA
BRANCH  21  24
ATOM     24  C   UNL     1       2.994   5.642  18.539  0.00  0.00    +0.000 A 
ATOM     25  C   UNL     1       2.415   5.797  19.798  0.00  0.00    +0.000 A 
ATOM     26  C   UNL     1       1.906   7.045  20.171  0.00  0.00    +0.000 A 
ATOM     27  C   UNL     1       2.015   8.147  19.315  0.00  0.00    +0.000 A 
ATOM     28  C   UNL     1       2.599   7.986  18.057  0.00  0.00    +0.000 A 
ATOM     29  C   UNL     1       3.083   6.731  17.662  0.00  0.00    +0.000 A 
BRANCH  27  30
ATOM     30  O   UNL     1       1.469   9.310  19.787  0.00  0.00    +0.000 OA
ATOM     31  C   UNL     1       0.675  10.046  18.863  0.00  0.00    +0.000 C 
ENDBRANCH  27  30
ENDBRANCH  21  24
ENDBRANCH   4  21
TORSDOF 8
ENDMDL
MODEL 5
REMARK VINA RESULT:      -7.8      1.482      1.942
REMARK  Name = 
REMARK  10 active torsions:
REMARK  status: ('A' for Active; 'I' for Inactive)
REMARK    1  A    between atoms: C_1  and  O_2
REMARK    2  A    between atoms: O_2  and  C_3
REMARK    3  A    between atoms: C_6  and  C_7
REMARK    4  A    between atoms: C_7  and  C_8
REMARK    5  A    between atoms: C_8  and  N_9
REMARK    6  A    between atoms: C_10  and  C_12
REMARK    7  A    between atoms: N_15  and  S_16
REMARK    8  A    between atoms: S_16  and  C_19
REMARK    9  A    between atoms: C_22  and  O_23
REMARK   10  A    between atoms: O_23  and  C_24
REMARK                            x       y       z     vdW  Elec       q    Type
REMARK                         _______ _______ _______ _____ _____    ______ ____
ROOT
ATOM      1  C   UNL     1       7.057   5.527  16.529  0.00  0.00    +0.000 C 
ATOM      2  C   UNL     1       5.899   4.983  15.687  0.00  0.00    +0.000 C 
ATOM      3  C   UNL     1       4.636   4.828  16.528  0.00  0.00    +0.000 C 
ATOM      4  N   UNL     1       4.871   3.896  17.667  0.00  0.00    +0.000 NA
ATOM      5  C   UNL     1       6.051   4.287  18.505  0.00  0.00    +0.000 C 
ATOM      6  C   UNL     1       7.309   4.530  17.661  0.00  0.00    +0.000 C 
ENDROOT
BRANCH   1   8
ATOM      7  N   UNL     1       7.910   7.707  17.273  0.00  0.00    +0.000 N 
ATOM      8  C   UNL     1       6.783   6.940  17.047  0.00  0.00    +0.000 C 
ATOM      9  O   UNL     1       5.655   7.382  17.238  0.00  0.00    +0.000 OA
ATOM     10  H   UNL     1       8.803   7.392  16.922  0.00  0.00    +0.000 HD
BRANCH   7  11
ATOM     11  C   UNL     1       7.780   9.059  17.796  0.00  0.00    +0.000 C 
BRANCH  11  12
ATOM     12  C   UNL     1       8.848   9.369  18.846  0.00  0.00    +0.000 C 
BRANCH  12  16
ATOM     13  C   UNL     1      10.232  13.464  18.705  0.00  0.00    +0.000 A 
ATOM     14  C   UNL     1      10.699  12.590  19.686  0.00  0.00    +0.000 A 
ATOM     15  C   UNL     1      10.261  11.264  19.723  0.00  0.00    +0.000 A 
ATOM     16  C   UNL     1       9.335  10.796  18.785  0.00  0.00    +0.000 A 
ATOM     17  C   UNL     1       8.859  11.680  17.808  0.00  0.00    +0.000 A 
ATOM     18  C   UNL     1       9.305  13.007  17.768  0.00  0.00    +0.000 A 
BRANCH  13  20
ATOM     19  C   UNL     1       9.908  15.745  18.185  0.00  0.00    +0.000 C 
ATOM     20  O   UNL     1      10.721  14.740  18.777  0.00  0.00    +0.000 OA
ENDBRANCH  13  20
ENDBRANCH  12  16
ENDBRANCH  11  12
ENDBRANCH   7  11
ENDBRANCH   1   8
BRANCH   4  21
ATOM     21  S   UNL     1       3.433   3.691  18.625  0.00  0.00    +0.000 S 
ATOM     22  O   UNL     1       2.450   2.992  17.821  0.00  0.00    +0.000 OA
ATOM     23  O   UNL     1       3.834   3.176  19.915  0.00  0.00    +0.000 OA
BRANCH  21  24
ATOM     24  C   UNL     1       2.848   5.361  18.844  0.00  0.00    +0.000 A 
ATOM     25  C   UNL     1       2.565   5.826  20.128  0.00  0.00    +0.000 A 
ATOM     26  C   UNL     1       2.095   7.131  20.298  0.00  0.00    +0.000 A 
ATOM     27  C   UNL     1       1.952   7.989  19.201  0.00  0.00    +0.000 A 
ATOM     28  C   UNL     1       2.241   7.519  17.919  0.00  0.00    +0.000 A 
ATOM     29  C   UNL     1       2.681   6.202  17.735  0.00  0.00    +0.000 A 
BRANCH  27  30
ATOM     30  O   UNL     1       1.473   9.237  19.494  0.00  0.00    +0.000 OA
ATOM     31  C   UNL     1       1.512  10.185  18.432  0.00  0.00    +0.000 C 
ENDBRANCH  27  30
ENDBRANCH  21  24
ENDBRANCH   4  21
TORSDOF 8
ENDMDL
MODEL 6
REMARK VINA RESULT:      -7.8      0.792      1.082
REMARK  Name = 
REMARK  10 active torsions:
REMARK  status: ('A' for Active; 'I' for Inactive)
REMARK    1  A    between atoms: C_1  and  O_2
REMARK    2  A    between atoms: O_2  and  C_3
REMARK    3  A    between atoms: C_6  and  C_7
REMARK    4  A    between atoms: C_7  and  C_8
REMARK    5  A    between atoms: C_8  and  N_9
REMARK    6  A    between atoms: C_10  and  C_12
REMARK    7  A    between atoms: N_15  and  S_16
REMARK    8  A    between atoms: S_16  and  C_19
REMARK    9  A    between atoms: C_22  and  O_23
REMARK   10  A    between atoms: O_23  and  C_24
REMARK                            x       y       z     vdW  Elec       q    Type
REMARK                         _______ _______ _______ _____ _____    ______ ____
ROOT
ATOM      1  C   UNL     1       8.013   5.642  18.690  0.00  0.00    +0.000 C 
ATOM      2  C   UNL     1       7.819   4.598  17.586  0.00  0.00    +0.000 C 
ATOM      3  C   UNL     1       6.392   4.630  17.048  0.00  0.00    +0.000 C 
ATOM      4  N   UNL     1       5.411   4.355  18.137  0.00  0.00    +0.000 NA
ATOM      5  C   UNL     1       5.580   5.266  19.316  0.00  0.00    +0.000 C 
ATOM      6  C   UNL     1       7.031   5.309  19.813  0.00  0.00    +0.000 C 
ENDROOT
BRANCH   1   8
ATOM      7  N   UNL     1       8.652   8.012  18.784  0.00  0.00    +0.000 N 
ATOM      8  C   UNL     1       7.845   7.071  18.172  0.00  0.00    +0.000 C 
ATOM      9  O   UNL     1       7.070   7.377  17.272  0.00  0.00    +0.000 OA
ATOM     10  H   UNL     1       9.412   7.705  19.373  0.00  0.00    +0.000 HD
BRANCH   7  11
ATOM     11  C   UNL     1       8.560   9.412  18.399  0.00  0.00    +0.000 C 
BRANCH  11  12
ATOM     12  C   UNL     1       9.214  10.332  19.433  0.00  0.00    +0.000 C 
BRANCH  12  16
ATOM     13  C   UNL     1       9.943  14.313  17.909  0.00  0.00    +0.000 A 
ATOM     14  C   UNL     1       9.213  14.123  19.083  0.00  0.00    +0.000 A 
ATOM     15  C   UNL     1       8.989  12.838  19.581  0.00  0.00    +0.000 A 
ATOM     16  C   UNL     1       9.480  11.718  18.902  0.00  0.00    +0.000 A 
ATOM     17  C   UNL     1      10.202  11.911  17.717  0.00  0.00    +0.000 A 
ATOM     18  C   UNL     1      10.432  13.202  17.223  0.00  0.00    +0.000 A 
BRANCH  13  20
ATOM     19  C   UNL     1      11.251  15.900  16.749  0.00  0.00    +0.000 C 
ATOM     20  O   UNL     1      10.086  15.614  17.513  0.00  0.00    +0.000 OA
ENDBRANCH  13  20
ENDBRANCH  12  16
ENDBRANCH  11  12
ENDBRANCH   7  11
ENDBRANCH   1   8
BRANCH   4  21
ATOM     21  S   UNL     1       3.778   4.365  17.537  0.00  0.00    +0.000 S 
ATOM     22  O   UNL     1       3.816   4.716  16.131  0.00  0.00    +0.000 OA
ATOM     23  O   UNL     1       3.140   3.145  17.978  0.00  0.00    +0.000 OA
BRANCH  21  24
ATOM     24  C   UNL     1       3.034   5.733  18.405  0.00  0.00    +0.000 A 
ATOM     25  C   UNL     1       3.019   6.995  17.812  0.00  0.00    +0.000 A 
ATOM     26  C   UNL     1       2.446   8.070  18.498  0.00  0.00    +0.000 A 
ATOM     27  C   UNL     1       1.846   7.882  19.750  0.00  0.00    +0.000 A 
ATOM     28  C   UNL     1       1.861   6.616  20.336  0.00  0.00    +0.000 A 
ATOM     29  C   UNL     1       2.462   5.540  19.670  0.00  0.00    +0.000 A 
BRANCH  27  30
ATOM     30  O   UNL     1       1.331   9.012  20.326  0.00  0.00    +0.000 OA
ATOM     31  C   UNL     1       0.423   8.805  21.402  0.00  0.00    +0.000 C 
ENDBRANCH  27  30
ENDBRANCH  21  24
ENDBRANCH   4  21
TORSDOF 8
ENDMDL
MODEL 7
REMARK VINA RESULT:      -7.6      4.186      7.105
REMARK  Name = 
REMARK  10 active torsions:
REMARK  status: ('A' for Active; 'I' for Inactive)
REMARK    1  A    between atoms: C_1  and  O_2
REMARK    2  A    between atoms: O_2  and  C_3
REMARK    3  A    between atoms: C_6  and  C_7
REMARK    4  A    between atoms: C_7  and  C_8
REMARK    5  A    between atoms: C_8  and  N_9
REMARK    6  A    between atoms: C_10  and  C_12
REMARK    7  A    between atoms: N_15  and  S_16
REMARK    8  A    between atoms: S_16  and  C_19
REMARK    9  A    between atoms: C_22  and  O_23
REMARK   10  A    between atoms: O_23  and  C_24
REMARK                            x       y       z     vdW  Elec       q    Type
REMARK                         _______ _______ _______ _____ _____    ______ ____
ROOT
ATOM      1  C   UNL     1       0.752   4.337  20.506  0.00  0.00    +0.000 C 
ATOM      2  C   UNL     1       1.481   3.411  21.484  0.00  0.00    +0.000 C 
ATOM      3  C   UNL     1       2.866   3.045  20.962  0.00  0.00    +0.000 C 
ATOM      4  N   UNL     1       2.768   2.357  19.642  0.00  0.00    +0.000 NA
ATOM      5  C   UNL     1       1.984   3.142  18.634  0.00  0.00    +0.000 C 
ATOM      6  C   UNL     1       0.622   3.590  19.178  0.00  0.00    +0.000 C 
ENDROOT
BRANCH   1   8
ATOM      7  N   UNL     1       2.044   5.899  19.118  0.00  0.00    +0.000 N 
ATOM      8  C   UNL     1       1.456   5.685  20.351  0.00  0.00    +0.000 C 
ATOM      9  O   UNL     1       1.493   6.534  21.237  0.00  0.00    +0.000 OA
ATOM     10  H   UNL     1       1.828   5.277  18.352  0.00  0.00    +0.000 HD
BRANCH   7  11
ATOM     11  C   UNL     1       2.771   7.133  18.861  0.00  0.00    +0.000 C 
BRANCH  11  12
ATOM     12  C   UNL     1       2.032   8.033  17.869  0.00  0.00    +0.000 C 
BRANCH  12  16
ATOM     13  C   UNL     1       0.989  11.876  19.559  0.00  0.00    +0.000 A 
ATOM     14  C   UNL     1       1.848  11.790  18.463  0.00  0.00    +0.000 A 
ATOM     15  C   UNL     1       2.174  10.550  17.910  0.00  0.00    +0.000 A 
ATOM     16  C   UNL     1       1.656   9.371  18.457  0.00  0.00    +0.000 A 
ATOM     17  C   UNL     1       0.803   9.459  19.564  0.00  0.00    +0.000 A 
ATOM     18  C   UNL     1       0.471  10.705  20.113  0.00  0.00    +0.000 A 
BRANCH  13  20
ATOM     19  C   UNL     1       1.674  13.622  20.993  0.00  0.00    +0.000 C 
ATOM     20  O   UNL     1       0.754  13.141  20.021  0.00  0.00    +0.000 OA
ENDBRANCH  13  20
ENDBRANCH  12  16
ENDBRANCH  11  12
ENDBRANCH   7  11
ENDBRANCH   1   8
BRANCH   4  21
ATOM     21  S   UNL     1       4.339   1.912  19.042  0.00  0.00    +0.000 S 
ATOM     22  O   UNL     1       5.191   1.618  20.177  0.00  0.00    +0.000 OA
ATOM     23  O   UNL     1       4.148   0.940  17.989  0.00  0.00    +0.000 OA
BRANCH  21  24
ATOM     24  C   UNL     1       4.937   3.424  18.308  0.00  0.00    +0.000 A 
ATOM     25  C   UNL     1       5.611   4.352  19.102  0.00  0.00    +0.000 A 
ATOM     26  C   UNL     1       6.069   5.542  18.528  0.00  0.00    +0.000 A 
ATOM     27  C   UNL     1       5.901   5.789  17.161  0.00  0.00    +0.000 A 
ATOM     28  C   UNL     1       5.229   4.855  16.371  0.00  0.00    +0.000 A 
ATOM     29  C   UNL     1       4.738   3.674  16.944  0.00  0.00    +0.000 A 
BRANCH  27  30
ATOM     30  O   UNL     1       6.381   6.993  16.721  0.00  0.00    +0.000 OA
ATOM     31  C   UNL     1       7.461   7.544  17.467  0.00  0.00    +0.000 C 
ENDBRANCH  27  30
ENDBRANCH  21  24
ENDBRANCH   4  21
TORSDOF 8
ENDMDL
MODEL 8
REMARK VINA RESULT:      -7.5      4.194      7.709
REMARK  Name = 
REMARK  10 active torsions:
REMARK  status: ('A' for Active; 'I' for Inactive)
REMARK    1  A    between atoms: C_1  and  O_2
REMARK    2  A    between atoms: O_2  and  C_3
REMARK    3  A    between atoms: C_6  and  C_7
REMARK    4  A    between atoms: C_7  and  C_8
REMARK    5  A    between atoms: C_8  and  N_9
REMARK    6  A    between atoms: C_10  and  C_12
REMARK    7  A    between atoms: N_15  and  S_16
REMARK    8  A    between atoms: S_16  and  C_19
REMARK    9  A    between atoms: C_22  and  O_23
REMARK   10  A    between atoms: O_23  and  C_24
REMARK                            x       y       z     vdW  Elec       q    Type
REMARK                         _______ _______ _______ _____ _____    ______ ____
ROOT
ATOM      1  C   UNL     1       0.684   4.184  20.524  0.00  0.00    +0.000 C 
ATOM      2  C   UNL     1       1.419   3.239  21.479  0.00  0.00    +0.000 C 
ATOM      3  C   UNL     1       2.820   2.923  20.965  0.00  0.00    +0.000 C 
ATOM      4  N   UNL     1       2.757   2.284  19.620  0.00  0.00    +0.000 NA
ATOM      5  C   UNL     1       1.971   3.088  18.629  0.00  0.00    +0.000 C 
ATOM      6  C   UNL     1       0.591   3.485  19.168  0.00  0.00    +0.000 C 
ENDROOT
BRANCH   1   8
ATOM      7  N   UNL     1       2.083   5.769  19.272  0.00  0.00    +0.000 N 
ATOM      8  C   UNL     1       1.360   5.553  20.430  0.00  0.00    +0.000 C 
ATOM      9  O   UNL     1       1.265   6.414  21.299  0.00  0.00    +0.000 OA
ATOM     10  H   UNL     1       1.979   5.130  18.497  0.00  0.00    +0.000 HD
BRANCH   7  11
ATOM     11  C   UNL     1       2.797   7.022  19.081  0.00  0.00    +0.000 C 
BRANCH  11  12
ATOM     12  C   UNL     1       2.110   7.917  18.048  0.00  0.00    +0.000 C 
BRANCH  12  16
ATOM     13  C   UNL     1      -0.268  11.062  19.825  0.00  0.00    +0.000 A 
ATOM     14  C   UNL     1      -0.354  10.791  18.459  0.00  0.00    +0.000 A 
ATOM     15  C   UNL     1       0.405   9.767  17.888  0.00  0.00    +0.000 A 
ATOM     16  C   UNL     1       1.276   9.006  18.675  0.00  0.00    +0.000 A 
ATOM     17  C   UNL     1       1.368   9.288  20.044  0.00  0.00    +0.000 A 
ATOM     18  C   UNL     1       0.601  10.311  20.616  0.00  0.00    +0.000 A 
BRANCH  13  20
ATOM     19  C   UNL     1      -2.359  12.155  19.718  0.00  0.00    +0.000 C 
ATOM     20  O   UNL     1      -1.048  12.095  20.266  0.00  0.00    +0.000 OA
ENDBRANCH  13  20
ENDBRANCH  12  16
ENDBRANCH  11  12
ENDBRANCH   7  11
ENDBRANCH   1   8
BRANCH   4  21
ATOM     21  S   UNL     1       4.347   1.896  19.027  0.00  0.00    +0.000 S 
ATOM     22  O   UNL     1       5.198   1.615  20.166  0.00  0.00    +0.000 OA
ATOM     23  O   UNL     1       4.195   0.931  17.961  0.00  0.00    +0.000 OA
BRANCH  21  24
ATOM     24  C   UNL     1       4.902   3.435  18.317  0.00  0.00    +0.000 A 
ATOM     25  C   UNL     1       5.596   4.346  19.113  0.00  0.00    +0.000 A 
ATOM     26  C   UNL     1       6.021   5.557  18.559  0.00  0.00    +0.000 A 
ATOM     27  C   UNL     1       5.800   5.842  17.206  0.00  0.00    +0.000 A 
ATOM     28  C   UNL     1       5.108   4.925  16.414  0.00  0.00    +0.000 A 
ATOM     29  C   UNL     1       4.650   3.722  16.969  0.00  0.00    +0.000 A 
BRANCH  27  30
ATOM     30  O   UNL     1       6.252   7.064  16.785  0.00  0.00    +0.000 OA
ATOM     31  C   UNL     1       7.427   7.549  17.425  0.00  0.00    +0.000 C 
ENDBRANCH  27  30
ENDBRANCH  21  24
ENDBRANCH   4  21
TORSDOF 8
ENDMDL
MODEL 9
REMARK VINA RESULT:      -7.5      5.484      8.706
REMARK  Name = 
REMARK  10 active torsions:
REMARK  status: ('A' for Active; 'I' for Inactive)
REMARK    1  A    between atoms: C_1  and  O_2
REMARK    2  A    between atoms: O_2  and  C_3
REMARK    3  A    between atoms: C_6  and  C_7
REMARK    4  A    between atoms: C_7  and  C_8
REMARK    5  A    between atoms: C_8  and  N_9
REMARK    6  A    between atoms: C_10  and  C_12
REMARK    7  A    between atoms: N_15  and  S_16
REMARK    8  A    between atoms: S_16  and  C_19
REMARK    9  A    between atoms: C_22  and  O_23
REMARK   10  A    between atoms: O_23  and  C_24
REMARK                            x       y       z     vdW  Elec       q    Type
REMARK                         _______ _______ _______ _____ _____    ______ ____
ROOT
ATOM      1  C   UNL     1       2.453   2.923  19.637  0.00  0.00    +0.000 C 
ATOM      2  C   UNL     1       3.929   2.516  19.614  0.00  0.00    +0.000 C 
ATOM      3  C   UNL     1       4.810   3.678  19.166  0.00  0.00    +0.000 C 
ATOM      4  N   UNL     1       4.424   4.137  17.801  0.00  0.00    +0.000 NA
ATOM      5  C   UNL     1       2.966   4.470  17.690  0.00  0.00    +0.000 C 
ATOM      6  C   UNL     1       2.070   3.342  18.218  0.00  0.00    +0.000 C 
ENDROOT
BRANCH   1   8
ATOM      7  N   UNL     1       1.784   5.234  20.133  0.00  0.00    +0.000 N 
ATOM      8  C   UNL     1       2.170   4.018  20.666  0.00  0.00    +0.000 C 
ATOM      9  O   UNL     1       2.257   3.846  21.878  0.00  0.00    +0.000 OA
ATOM     10  H   UNL     1       1.530   5.289  19.157  0.00  0.00    +0.000 HD
BRANCH   7  11
ATOM     11  C   UNL     1       1.518   6.363  21.010  0.00  0.00    +0.000 C 
BRANCH  11  12
ATOM     12  C   UNL     1       1.614   7.698  20.268  0.00  0.00    +0.000 C 
BRANCH  12  16
ATOM     13  C   UNL     1      -0.546  10.866  22.267  0.00  0.00    +0.000 A 
ATOM     14  C   UNL     1       0.059   9.846  23.001  0.00  0.00    +0.000 A 
ATOM     15  C   UNL     1       0.767   8.830  22.355  0.00  0.00    +0.000 A 
ATOM     16  C   UNL     1       0.868   8.811  20.960  0.00  0.00    +0.000 A 
ATOM     17  C   UNL     1       0.248   9.831  20.225  0.00  0.00    +0.000 A 
ATOM     18  C   UNL     1      -0.455  10.853  20.876  0.00  0.00    +0.000 A 
BRANCH  13  20
ATOM     19  C   UNL     1      -2.508  12.157  22.517  0.00  0.00    +0.000 C 
ATOM     20  O   UNL     1      -1.222  11.797  23.008  0.00  0.00    +0.000 OA
ENDBRANCH  13  20
ENDBRANCH  12  16
ENDBRANCH  11  12
ENDBRANCH   7  11
ENDBRANCH   1   8
BRANCH   4  21
ATOM     21  S   UNL     1       5.433   5.448  17.264  0.00  0.00    +0.000 S 
ATOM     22  O   UNL     1       4.602   6.627  17.117  0.00  0.00    +0.000 OA
ATOM     23  O   UNL     1       6.608   5.472  18.106  0.00  0.00    +0.000 OA
BRANCH  21  24
ATOM     24  C   UNL     1       5.925   4.938  15.627  0.00  0.00    +0.000 A 
ATOM     25  C   UNL     1       7.175   5.316  15.139  0.00  0.00    +0.000 A 
ATOM     26  C   UNL     1       7.556   4.926  13.851  0.00  0.00    +0.000 A 
ATOM     27  C   UNL     1       6.717   4.123  13.069  0.00  0.00    +0.000 A 
ATOM     28  C   UNL     1       5.468   3.746  13.566  0.00  0.00    +0.000 A 
ATOM     29  C   UNL     1       5.065   4.159  14.842  0.00  0.00    +0.000 A 
BRANCH  27  30
ATOM     30  O   UNL     1       7.195   3.819  11.823  0.00  0.00    +0.000 OA
ATOM     31  C   UNL     1       6.880   2.519  11.335  0.00  0.00    +0.000 C 
ENDBRANCH  27  30
ENDBRANCH  21  24
ENDBRANCH   4  21
TORSDOF 8
ENDMDL
