MODEL 1
REMARK VINA RESULT:      -8.2      0.000      0.000
REMARK  Name = 
REMARK  4 active torsions:
REMARK  status: ('A' for Active; 'I' for Inactive)
REMARK    1  A    between atoms: C_2  and  C_3
REMARK    2  A    between atoms: C_6  and  C_7
REMARK    3  A    between atoms: C_7  and  O_8
REMARK    4  A    between atoms: O_8  and  C_9
REMARK                            x       y       z     vdW  Elec       q    Type
REMARK                         _______ _______ _______ _____ _____    ______ ____
ROOT
ATOM      1  C   UNL     1       2.792   6.892  19.123  0.00  0.00    +0.000 A 
ATOM      2  C   UNL     1       2.040   7.406  20.184  0.00  0.00    +0.000 A 
ATOM      3  C   UNL     1       1.321   8.593  20.021  0.00  0.00    +0.000 A 
ATOM      4  C   UNL     1       1.357   9.291  18.802  0.00  0.00    +0.000 A 
ATOM      5  C   UNL     1       2.099   8.775  17.744  0.00  0.00    +0.000 A 
ATOM      6  C   UNL     1       2.749   7.555  17.891  0.00  0.00    +0.000 A 
ENDROOT
BRANCH   1   8
ATOM      7  O   UNL     1       4.770   5.714  19.456  0.00  0.00    +0.000 OA
ATOM      8  C   UNL     1       3.545   5.621  19.322  0.00  0.00    +0.000 C 
ATOM      9  N   UNL     1       2.890   4.386  19.330  0.00  0.00    +0.000 N 
ATOM     10  C   UNL     1       1.470   4.124  19.104  0.00  0.00    +0.000 C 
ATOM     11  C   UNL     1       0.830   3.707  20.432  0.00  0.00    +0.000 C 
ATOM     12  C   UNL     1       1.526   2.461  20.977  0.00  0.00    +0.000 C 
ATOM     13  C   UNL     1       3.045   2.656  21.057  0.00  0.00    +0.000 C 
ATOM     14  C   UNL     1       3.629   3.197  19.749  0.00  0.00    +0.000 C 
ENDBRANCH   1   8
BRANCH   4  15
ATOM     15  C   UNL     1       0.553  10.552  18.623  0.00  0.00    +0.000 C 
BRANCH  15  16
ATOM     16  O   UNL     1      -0.744  10.351  19.165  0.00  0.00    +0.000 OA
BRANCH  16  17
ATOM     17  C   UNL     1      -1.828  10.571  18.354  0.00  0.00    +0.000 A 
ATOM     18  C   UNL     1      -1.739   9.870  17.138  0.00  0.00    +0.000 A 
ATOM     19  C   UNL     1      -2.696  10.035  16.133  0.00  0.00    +0.000 A 
ATOM     20  C   UNL     1      -3.767  10.894  16.335  0.00  0.00    +0.000 A 
ATOM     21  C   UNL     1      -3.878  11.582  17.541  0.00  0.00    +0.000 A 
ATOM     22  C   UNL     1      -2.913  11.435  18.551  0.00  0.00    +0.000 A 
ATOM     23 BR   UNL     1      -3.204  12.584  20.038  0.00  0.00    +0.000 Br
ENDBRANCH  16  17
ENDBRANCH  15  16
ENDBRANCH   4  15
TORSDOF 4
ENDMDL
MODEL 2
REMARK VINA RESULT:      -8.1      0.082      1.008
REMARK  Name = 
REMARK  4 active torsions:
REMARK  status: ('A' for Active; 'I' for Inactive)
REMARK    1  A    between atoms: C_2  and  C_3
REMARK    2  A    between atoms: C_6  and  C_7
REMARK    3  A    between atoms: C_7  and  O_8
REMARK    4  A    between atoms: O_8  and  C_9
REMARK                            x       y       z     vdW  Elec       q    Type
REMARK                         _______ _______ _______ _____ _____    ______ ____
ROOT
ATOM      1  C   UNL     1       2.736   6.908  19.119  0.00  0.00    +0.000 A 
ATOM      2  C   UNL     1       2.791   7.592  17.900  0.00  0.00    +0.000 A 
ATOM      3  C   UNL     1       2.088   8.788  17.738  0.00  0.00    +0.000 A 
ATOM      4  C   UNL     1       1.308   9.309  18.785  0.00  0.00    +0.000 A 
ATOM      5  C   UNL     1       1.260   8.632  19.999  0.00  0.00    +0.000 A 
ATOM      6  C   UNL     1       2.022   7.483  20.176  0.00  0.00    +0.000 A 
ENDROOT
BRANCH   1   8
ATOM      7  O   UNL     1       4.730   5.733  19.351  0.00  0.00    +0.000 OA
ATOM      8  C   UNL     1       3.501   5.637  19.267  0.00  0.00    +0.000 C 
ATOM      9  N   UNL     1       2.852   4.400  19.283  0.00  0.00    +0.000 N 
ATOM     10  C   UNL     1       1.424   4.136  19.112  0.00  0.00    +0.000 C 
ATOM     11  C   UNL     1       0.841   3.697  20.459  0.00  0.00    +0.000 C 
ATOM     12  C   UNL     1       1.563   2.445  20.956  0.00  0.00    +0.000 C 
ATOM     13  C   UNL     1       3.084   2.645  20.975  0.00  0.00    +0.000 C 
ATOM     14  C   UNL     1       3.611   3.207  19.652  0.00  0.00    +0.000 C 
ENDBRANCH   1   8
BRANCH   4  15
ATOM     15  C   UNL     1       0.579  10.616  18.614  0.00  0.00    +0.000 C 
BRANCH  15  16
ATOM     16  O   UNL     1      -0.704  10.509  19.211  0.00  0.00    +0.000 OA
BRANCH  16  17
ATOM     17  C   UNL     1      -1.808  10.652  18.408  0.00  0.00    +0.000 A 
ATOM     18  C   UNL     1      -1.695   9.929  17.207  0.00  0.00    +0.000 A 
ATOM     19  C   UNL     1      -2.671  10.021  16.211  0.00  0.00    +0.000 A 
ATOM     20  C   UNL     1      -3.784  10.827  16.408  0.00  0.00    +0.000 A 
ATOM     21  C   UNL     1      -3.918  11.534  17.599  0.00  0.00    +0.000 A 
ATOM     22  C   UNL     1      -2.935  11.462  18.600  0.00  0.00    +0.000 A 
ATOM     23 BR   UNL     1      -3.270  12.626  20.065  0.00  0.00    +0.000 Br
ENDBRANCH  16  17
ENDBRANCH  15  16
ENDBRANCH   4  15
TORSDOF 4
ENDMDL
MODEL 3
REMARK VINA RESULT:      -8.1      1.135      1.199
REMARK  Name = 
REMARK  4 active torsions:
REMARK  status: ('A' for Active; 'I' for Inactive)
REMARK    1  A    between atoms: C_2  and  C_3
REMARK    2  A    between atoms: C_6  and  C_7
REMARK    3  A    between atoms: C_7  and  O_8
REMARK    4  A    between atoms: O_8  and  C_9
REMARK                            x       y       z     vdW  Elec       q    Type
REMARK                         _______ _______ _______ _____ _____    ______ ____
ROOT
ATOM      1  C   UNL     1       2.833   6.898  18.686  0.00  0.00    +0.000 A 
ATOM      2  C   UNL     1       2.290   6.972  19.972  0.00  0.00    +0.000 A 
ATOM      3  C   UNL     1       1.518   8.077  20.342  0.00  0.00    +0.000 A 
ATOM      4  C   UNL     1       1.293   9.129  19.438  0.00  0.00    +0.000 A 
ATOM      5  C   UNL     1       1.828   9.051  18.156  0.00  0.00    +0.000 A 
ATOM      6  C   UNL     1       2.530   7.914  17.772  0.00  0.00    +0.000 A 
ENDROOT
BRANCH   1   8
ATOM      7  O   UNL     1       4.876   5.830  18.375  0.00  0.00    +0.000 OA
ATOM      8  C   UNL     1       3.648   5.705  18.315  0.00  0.00    +0.000 C 
ATOM      9  N   UNL     1       3.043   4.517  17.898  0.00  0.00    +0.000 N 
ATOM     10  C   UNL     1       1.617   4.259  17.704  0.00  0.00    +0.000 C 
ATOM     11  C   UNL     1       1.133   3.321  18.815  0.00  0.00    +0.000 C 
ATOM     12  C   UNL     1       1.926   2.015  18.777  0.00  0.00    +0.000 C 
ATOM     13  C   UNL     1       3.437   2.276  18.802  0.00  0.00    +0.000 C 
ATOM     14  C   UNL     1       3.863   3.316  17.762  0.00  0.00    +0.000 C 
ENDBRANCH   1   8
BRANCH   4  15
ATOM     15  C   UNL     1       0.433  10.301  19.832  0.00  0.00    +0.000 C 
BRANCH  15  16
ATOM     16  O   UNL     1      -0.032  10.946  18.657  0.00  0.00    +0.000 OA
BRANCH  16  17
ATOM     17  C   UNL     1      -1.377  10.915  18.387  0.00  0.00    +0.000 A 
ATOM     18  C   UNL     1      -1.695  10.032  17.340  0.00  0.00    +0.000 A 
ATOM     19  C   UNL     1      -2.999   9.929  16.848  0.00  0.00    +0.000 A 
ATOM     20  C   UNL     1      -4.010  10.698  17.407  0.00  0.00    +0.000 A 
ATOM     21  C   UNL     1      -3.714  11.564  18.456  0.00  0.00    +0.000 A 
ATOM     22  C   UNL     1      -2.404  11.687  18.948  0.00  0.00    +0.000 A 
ATOM     23 BR   UNL     1      -2.226  13.035  20.276  0.00  0.00    +0.000 Br
ENDBRANCH  16  17
ENDBRANCH  15  16
ENDBRANCH   4  15
TORSDOF 4
ENDMDL
MODEL 4
REMARK VINA RESULT:      -8.1      1.090      1.507
REMARK  Name = 
REMARK  4 active torsions:
REMARK  status: ('A' for Active; 'I' for Inactive)
REMARK    1  A    between atoms: C_2  and  C_3
REMARK    2  A    between atoms: C_6  and  C_7
REMARK    3  A    between atoms: C_7  and  O_8
REMARK    4  A    between atoms: O_8  and  C_9
REMARK                            x       y       z     vdW  Elec       q    Type
REMARK                         _______ _______ _______ _____ _____    ______ ____
ROOT
ATOM      1  C   UNL     1       2.775   6.904  18.723  0.00  0.00    +0.000 A 
ATOM      2  C   UNL     1       2.596   7.932  17.793  0.00  0.00    +0.000 A 
ATOM      3  C   UNL     1       1.851   9.063  18.136  0.00  0.00    +0.000 A 
ATOM      4  C   UNL     1       1.261   9.174  19.407  0.00  0.00    +0.000 A 
ATOM      5  C   UNL     1       1.445   8.153  20.334  0.00  0.00    +0.000 A 
ATOM      6  C   UNL     1       2.251   7.067  20.010  0.00  0.00    +0.000 A 
ENDROOT
BRANCH   1   8
ATOM      7  O   UNL     1       4.808   5.847  18.320  0.00  0.00    +0.000 OA
ATOM      8  C   UNL     1       3.580   5.711  18.332  0.00  0.00    +0.000 C 
ATOM      9  N   UNL     1       2.964   4.508  17.975  0.00  0.00    +0.000 N 
ATOM     10  C   UNL     1       1.532   4.233  17.868  0.00  0.00    +0.000 C 
ATOM     11  C   UNL     1       1.121   3.315  19.023  0.00  0.00    +0.000 C 
ATOM     12  C   UNL     1       1.924   2.015  18.968  0.00  0.00    +0.000 C 
ATOM     13  C   UNL     1       3.431   2.290  18.902  0.00  0.00    +0.000 C 
ATOM     14  C   UNL     1       3.788   3.311  17.818  0.00  0.00    +0.000 C 
ENDBRANCH   1   8
BRANCH   4  15
ATOM     15  C   UNL     1       0.487  10.411  19.781  0.00  0.00    +0.000 C 
BRANCH  15  16
ATOM     16  O   UNL     1      -0.019  11.012  18.599  0.00  0.00    +0.000 OA
BRANCH  16  17
ATOM     17  C   UNL     1      -1.369  10.951  18.366  0.00  0.00    +0.000 A 
ATOM     18  C   UNL     1      -1.696  10.047  17.339  0.00  0.00    +0.000 A 
ATOM     19  C   UNL     1      -3.010   9.911  16.883  0.00  0.00    +0.000 A 
ATOM     20  C   UNL     1      -4.021  10.667  17.457  0.00  0.00    +0.000 A 
ATOM     21  C   UNL     1      -3.716  11.554  18.486  0.00  0.00    +0.000 A 
ATOM     22  C   UNL     1      -2.397  11.710  18.942  0.00  0.00    +0.000 A 
ATOM     23 BR   UNL     1      -2.211  13.080  20.247  0.00  0.00    +0.000 Br
ENDBRANCH  16  17
ENDBRANCH  15  16
ENDBRANCH   4  15
TORSDOF 4
ENDMDL
MODEL 5
REMARK VINA RESULT:      -7.7      1.663      2.362
REMARK  Name = 
REMARK  4 active torsions:
REMARK  status: ('A' for Active; 'I' for Inactive)
REMARK    1  A    between atoms: C_2  and  C_3
REMARK    2  A    between atoms: C_6  and  C_7
REMARK    3  A    between atoms: C_7  and  O_8
REMARK    4  A    between atoms: O_8  and  C_9
REMARK                            x       y       z     vdW  Elec       q    Type
REMARK                         _______ _______ _______ _____ _____    ______ ____
ROOT
ATOM      1  C   UNL     1       2.739   7.048  18.577  0.00  0.00    +0.000 A 
ATOM      2  C   UNL     1       2.452   8.105  17.708  0.00  0.00    +0.000 A 
ATOM      3  C   UNL     1       1.678   9.181  18.148  0.00  0.00    +0.000 A 
ATOM      4  C   UNL     1       1.166   9.208  19.457  0.00  0.00    +0.000 A 
ATOM      5  C   UNL     1       1.458   8.160  20.323  0.00  0.00    +0.000 A 
ATOM      6  C   UNL     1       2.291   7.130  19.900  0.00  0.00    +0.000 A 
ENDROOT
BRANCH   1   8
ATOM      7  O   UNL     1       4.789   6.113  17.997  0.00  0.00    +0.000 OA
ATOM      8  C   UNL     1       3.572   5.914  18.083  0.00  0.00    +0.000 C 
ATOM      9  N   UNL     1       2.992   4.697  17.712  0.00  0.00    +0.000 N 
ATOM     10  C   UNL     1       1.571   4.355  17.686  0.00  0.00    +0.000 C 
ATOM     11  C   UNL     1       1.282   3.370  18.824  0.00  0.00    +0.000 C 
ATOM     12  C   UNL     1       2.141   2.117  18.659  0.00  0.00    +0.000 C 
ATOM     13  C   UNL     1       3.626   2.470  18.508  0.00  0.00    +0.000 C 
ATOM     14  C   UNL     1       3.860   3.552  17.450  0.00  0.00    +0.000 C 
ENDBRANCH   1   8
BRANCH   4  15
ATOM     15  C   UNL     1       0.361  10.388  19.936  0.00  0.00    +0.000 C 
BRANCH  15  16
ATOM     16  O   UNL     1      -0.194  11.052  18.811  0.00  0.00    +0.000 OA
BRANCH  16  17
ATOM     17  C   UNL     1      -1.504  11.455  18.875  0.00  0.00    +0.000 A 
ATOM     18  C   UNL     1      -1.776  12.212  20.029  0.00  0.00    +0.000 A 
ATOM     19  C   UNL     1      -3.074  12.634  20.330  0.00  0.00    +0.000 A 
ATOM     20  C   UNL     1      -4.118  12.319  19.472  0.00  0.00    +0.000 A 
ATOM     21  C   UNL     1      -3.861  11.585  18.318  0.00  0.00    +0.000 A 
ATOM     22  C   UNL     1      -2.564  11.142  18.013  0.00  0.00    +0.000 A 
ATOM     23 BR   UNL     1      -2.491  10.040  16.466  0.00  0.00    +0.000 Br
ENDBRANCH  16  17
ENDBRANCH  15  16
ENDBRANCH   4  15
TORSDOF 4
ENDMDL
MODEL 6
REMARK VINA RESULT:      -7.7      1.724      2.305
REMARK  Name = 
REMARK  4 active torsions:
REMARK  status: ('A' for Active; 'I' for Inactive)
REMARK    1  A    between atoms: C_2  and  C_3
REMARK    2  A    between atoms: C_6  and  C_7
REMARK    3  A    between atoms: C_7  and  O_8
REMARK    4  A    between atoms: O_8  and  C_9
REMARK                            x       y       z     vdW  Elec       q    Type
REMARK                         _______ _______ _______ _____ _____    ______ ____
ROOT
ATOM      1  C   UNL     1       2.658   7.124  18.603  0.00  0.00    +0.000 A 
ATOM      2  C   UNL     1       2.281   7.008  19.945  0.00  0.00    +0.000 A 
ATOM      3  C   UNL     1       1.510   8.008  20.543  0.00  0.00    +0.000 A 
ATOM      4  C   UNL     1       1.120   9.145  19.814  0.00  0.00    +0.000 A 
ATOM      5  C   UNL     1       1.489   9.256  18.478  0.00  0.00    +0.000 A 
ATOM      6  C   UNL     1       2.191   8.221  17.870  0.00  0.00    +0.000 A 
ENDROOT
BRANCH   1   8
ATOM      7  O   UNL     1       4.674   6.283  17.801  0.00  0.00    +0.000 OA
ATOM      8  C   UNL     1       3.476   6.040  17.988  0.00  0.00    +0.000 C 
ATOM      9  N   UNL     1       2.902   4.819  17.622  0.00  0.00    +0.000 N 
ATOM     10  C   UNL     1       1.496   4.430  17.710  0.00  0.00    +0.000 C 
ATOM     11  C   UNL     1       1.343   3.393  18.827  0.00  0.00    +0.000 C 
ATOM     12  C   UNL     1       2.220   2.176  18.533  0.00  0.00    +0.000 C 
ATOM     13  C   UNL     1       3.673   2.586  18.263  0.00  0.00    +0.000 C 
ATOM     14  C   UNL     1       3.776   3.715  17.234  0.00  0.00    +0.000 C 
ENDBRANCH   1   8
BRANCH   4  15
ATOM     15  C   UNL     1       0.261  10.203  20.456  0.00  0.00    +0.000 C 
BRANCH  15  16
ATOM     16  O   UNL     1      -0.069  11.181  19.481  0.00  0.00    +0.000 OA
BRANCH  16  17
ATOM     17  C   UNL     1      -1.381  11.563  19.363  0.00  0.00    +0.000 A 
ATOM     18  C   UNL     1      -1.794  12.397  20.418  0.00  0.00    +0.000 A 
ATOM     19  C   UNL     1      -3.123  12.816  20.534  0.00  0.00    +0.000 A 
ATOM     20  C   UNL     1      -4.057  12.419  19.587  0.00  0.00    +0.000 A 
ATOM     21  C   UNL     1      -3.659  11.608  18.528  0.00  0.00    +0.000 A 
ATOM     22  C   UNL     1      -2.330  11.168  18.410  0.00  0.00    +0.000 A 
ATOM     23 BR   UNL     1      -2.067   9.956  16.969  0.00  0.00    +0.000 Br
ENDBRANCH  16  17
ENDBRANCH  15  16
ENDBRANCH   4  15
TORSDOF 4
ENDMDL
MODEL 7
REMARK VINA RESULT:      -7.6      2.498      3.259
REMARK  Name = 
REMARK  4 active torsions:
REMARK  status: ('A' for Active; 'I' for Inactive)
REMARK    1  A    between atoms: C_2  and  C_3
REMARK    2  A    between atoms: C_6  and  C_7
REMARK    3  A    between atoms: C_7  and  O_8
REMARK    4  A    between atoms: O_8  and  C_9
REMARK                            x       y       z     vdW  Elec       q    Type
REMARK                         _______ _______ _______ _____ _____    ______ ____
ROOT
ATOM      1  C   UNL     1       2.868   6.898  18.768  0.00  0.00    +0.000 A 
ATOM      2  C   UNL     1       2.845   7.814  17.711  0.00  0.00    +0.000 A 
ATOM      3  C   UNL     1       2.102   8.992  17.824  0.00  0.00    +0.000 A 
ATOM      4  C   UNL     1       1.360   9.264  18.986  0.00  0.00    +0.000 A 
ATOM      5  C   UNL     1       1.389   8.356  20.039  0.00  0.00    +0.000 A 
ATOM      6  C   UNL     1       2.191   7.223  19.949  0.00  0.00    +0.000 A 
ENDROOT
BRANCH   1   8
ATOM      7  O   UNL     1       4.881   5.737  18.870  0.00  0.00    +0.000 OA
ATOM      8  C   UNL     1       3.673   5.651  18.624  0.00  0.00    +0.000 C 
ATOM      9  N   UNL     1       3.085   4.454  18.205  0.00  0.00    +0.000 N 
ATOM     10  C   UNL     1       1.696   4.231  17.805  0.00  0.00    +0.000 C 
ATOM     11  C   UNL     1       0.999   3.406  18.891  0.00  0.00    +0.000 C 
ATOM     12  C   UNL     1       1.725   2.074  19.079  0.00  0.00    +0.000 C 
ATOM     13  C   UNL     1       3.224   2.282  19.326  0.00  0.00    +0.000 C 
ATOM     14  C   UNL     1       3.858   3.218  18.294  0.00  0.00    +0.000 C 
ENDBRANCH   1   8
BRANCH   4  15
ATOM     15  C   UNL     1       0.589  10.551  19.113  0.00  0.00    +0.000 C 
BRANCH  15  16
ATOM     16  O   UNL     1       0.861  11.126  20.383  0.00  0.00    +0.000 OA
BRANCH  16  17
ATOM     17  C   UNL     1      -0.199  11.552  21.143  0.00  0.00    +0.000 A 
ATOM     18  C   UNL     1      -0.756  12.751  20.662  0.00  0.00    +0.000 A 
ATOM     19  C   UNL     1      -1.782  13.402  21.353  0.00  0.00    +0.000 A 
ATOM     20  C   UNL     1      -2.278  12.855  22.528  0.00  0.00    +0.000 A 
ATOM     21  C   UNL     1      -1.749  11.660  23.006  0.00  0.00    +0.000 A 
ATOM     22  C   UNL     1      -0.707  11.006  22.329  0.00  0.00    +0.000 A 
ATOM     23 BR   UNL     1      -0.057   9.476  23.253  0.00  0.00    +0.000 Br
ENDBRANCH  16  17
ENDBRANCH  15  16
ENDBRANCH   4  15
TORSDOF 4
ENDMDL
MODEL 8
REMARK VINA RESULT:      -7.6      2.502      3.110
REMARK  Name = 
REMARK  4 active torsions:
REMARK  status: ('A' for Active; 'I' for Inactive)
REMARK    1  A    between atoms: C_2  and  C_3
REMARK    2  A    between atoms: C_6  and  C_7
REMARK    3  A    between atoms: C_7  and  O_8
REMARK    4  A    between atoms: O_8  and  C_9
REMARK                            x       y       z     vdW  Elec       q    Type
REMARK                         _______ _______ _______ _____ _____    ______ ____
ROOT
ATOM      1  C   UNL     1       2.941   6.850  18.742  0.00  0.00    +0.000 A 
ATOM      2  C   UNL     1       2.231   7.101  19.920  0.00  0.00    +0.000 A 
ATOM      3  C   UNL     1       1.470   8.266  20.042  0.00  0.00    +0.000 A 
ATOM      4  C   UNL     1       1.420   9.203  18.996  0.00  0.00    +0.000 A 
ATOM      5  C   UNL     1       2.121   8.949  17.822  0.00  0.00    +0.000 A 
ATOM      6  C   UNL     1       2.814   7.752  17.680  0.00  0.00    +0.000 A 
ENDROOT
BRANCH   1   8
ATOM      7  O   UNL     1       4.940   5.675  18.925  0.00  0.00    +0.000 OA
ATOM      8  C   UNL     1       3.741   5.596  18.636  0.00  0.00    +0.000 C 
ATOM      9  N   UNL     1       3.159   4.400  18.206  0.00  0.00    +0.000 N 
ATOM     10  C   UNL     1       1.785   4.184  17.758  0.00  0.00    +0.000 C 
ATOM     11  C   UNL     1       1.043   3.372  18.824  0.00  0.00    +0.000 C 
ATOM     12  C   UNL     1       1.752   2.036  19.048  0.00  0.00    +0.000 C 
ATOM     13  C   UNL     1       3.243   2.236  19.348  0.00  0.00    +0.000 C 
ATOM     14  C   UNL     1       3.920   3.159  18.331  0.00  0.00    +0.000 C 
ENDBRANCH   1   8
BRANCH   4  15
ATOM     15  C   UNL     1       0.571  10.440  19.122  0.00  0.00    +0.000 C 
BRANCH  15  16
ATOM     16  O   UNL     1       0.873  11.082  20.351  0.00  0.00    +0.000 OA
BRANCH  16  17
ATOM     17  C   UNL     1      -0.169  11.538  21.119  0.00  0.00    +0.000 A 
ATOM     18  C   UNL     1      -0.695  12.752  20.643  0.00  0.00    +0.000 A 
ATOM     19  C   UNL     1      -1.698  13.431  21.342  0.00  0.00    +0.000 A 
ATOM     20  C   UNL     1      -2.200  12.898  22.521  0.00  0.00    +0.000 A 
ATOM     21  C   UNL     1      -1.700  11.688  22.995  0.00  0.00    +0.000 A 
ATOM     22  C   UNL     1      -0.682  11.005  22.310  0.00  0.00    +0.000 A 
ATOM     23 BR   UNL     1      -0.067   9.458  23.228  0.00  0.00    +0.000 Br
ENDBRANCH  16  17
ENDBRANCH  15  16
ENDBRANCH   4  15
TORSDOF 4
ENDMDL
MODEL 9
REMARK VINA RESULT:      -7.5      2.400      3.224
REMARK  Name = 
REMARK  4 active torsions:
REMARK  status: ('A' for Active; 'I' for Inactive)
REMARK    1  A    between atoms: C_2  and  C_3
REMARK    2  A    between atoms: C_6  and  C_7
REMARK    3  A    between atoms: C_7  and  O_8
REMARK    4  A    between atoms: O_8  and  C_9
REMARK                            x       y       z     vdW  Elec       q    Type
REMARK                         _______ _______ _______ _____ _____    ______ ____
ROOT
ATOM      1  C   UNL     1       2.934   6.845  18.661  0.00  0.00    +0.000 A 
ATOM      2  C   UNL     1       2.862   7.781  17.624  0.00  0.00    +0.000 A 
ATOM      3  C   UNL     1       2.110   8.947  17.787  0.00  0.00    +0.000 A 
ATOM      4  C   UNL     1       1.408   9.188  18.981  0.00  0.00    +0.000 A 
ATOM      5  C   UNL     1       1.487   8.260  20.014  0.00  0.00    +0.000 A 
ATOM      6  C   UNL     1       2.297   7.139  19.872  0.00  0.00    +0.000 A 
ENDROOT
BRANCH   1   8
ATOM      7  O   UNL     1       4.966   5.713  18.643  0.00  0.00    +0.000 OA
ATOM      8  C   UNL     1       3.747   5.611  18.463  0.00  0.00    +0.000 C 
ATOM      9  N   UNL     1       3.155   4.409  18.067  0.00  0.00    +0.000 N 
ATOM     10  C   UNL     1       1.749   4.169  17.743  0.00  0.00    +0.000 C 
ATOM     11  C   UNL     1       1.125   3.325  18.858  0.00  0.00    +0.000 C 
ATOM     12  C   UNL     1       1.879   2.002  18.995  0.00  0.00    +0.000 C 
ATOM     13  C   UNL     1       3.387   2.231  19.162  0.00  0.00    +0.000 C 
ATOM     14  C   UNL     1       3.949   3.184  18.103  0.00  0.00    +0.000 C 
ENDBRANCH   1   8
BRANCH   4  15
ATOM     15  C   UNL     1       0.628  10.463  19.162  0.00  0.00    +0.000 C 
BRANCH  15  16
ATOM     16  O   UNL     1       1.017  11.070  20.384  0.00  0.00    +0.000 OA
BRANCH  16  17
ATOM     17  C   UNL     1       0.034  11.515  21.231  0.00  0.00    +0.000 A 
ATOM     18  C   UNL     1      -0.242  10.599  22.262  0.00  0.00    +0.000 A 
ATOM     19  C   UNL     1      -1.279  10.821  23.172  0.00  0.00    +0.000 A 
ATOM     20  C   UNL     1      -2.048  11.972  23.074  0.00  0.00    +0.000 A 
ATOM     21  C   UNL     1      -1.777  12.896  22.069  0.00  0.00    +0.000 A 
ATOM     22  C   UNL     1      -0.747  12.676  21.140  0.00  0.00    +0.000 A 
ATOM     23 BR   UNL     1      -0.667  14.003  19.781  0.00  0.00    +0.000 Br
ENDBRANCH  16  17
ENDBRANCH  15  16
ENDBRANCH   4  15
TORSDOF 4
ENDMDL
