MODEL 1
REMARK VINA RESULT:      -7.5      0.000      0.000
REMARK  Name = 
REMARK  5 active torsions:
REMARK  status: ('A' for Active; 'I' for Inactive)
REMARK    1  A    between atoms: C_2  and  N_3
REMARK    2  A    between atoms: C_2  and  N_16
REMARK    3  A    between atoms: N_3  and  N_4
REMARK    4  A    between atoms: C_5  and  C_6
REMARK    5  A    between atoms: N_16  and  C_17
REMARK                            x       y       z     vdW  Elec       q    Type
REMARK                         _______ _______ _______ _____ _____    ______ ____
ROOT
ATOM      1  N   UNL     1       2.610   3.967  18.976  0.00  0.00    +0.000 N 
ATOM      2  H   UNL     1       2.137   4.432  18.206  0.00  0.00    +0.000 HD
ENDROOT
BRANCH   1   4
ATOM      3  S   UNL     1       2.055   3.613  21.505  0.00  0.00    +0.000 S 
ATOM      4  C   UNL     1       2.539   4.562  20.215  0.00  0.00    +0.000 C 
BRANCH   4   5
ATOM      5  N   UNL     1       2.967   5.869  20.232  0.00  0.00    +0.000 N 
ATOM      6  H   UNL     1       3.585   6.065  21.017  0.00  0.00    +0.000 HD
BRANCH   5   7
ATOM      7  C   UNL     1       2.578   6.960  19.424  0.00  0.00    +0.000 A 
ATOM      8  C   UNL     1       3.110   7.123  18.138  0.00  0.00    +0.000 A 
ATOM      9  C   UNL     1       2.799   8.244  17.373  0.00  0.00    +0.000 A 
ATOM     10  C   UNL     1       1.944   9.216  17.877  0.00  0.00    +0.000 A 
ATOM     11  C   UNL     1       1.401   9.073  19.157  0.00  0.00    +0.000 A 
ATOM     12 CL   UNL     1       0.336  10.322  19.705  0.00  0.00    +0.000 Cl
ATOM     13  C   UNL     1       1.725   7.956  19.945  0.00  0.00    +0.000 A 
ATOM     14 CL   UNL     1       1.049   7.757  21.533  0.00  0.00    +0.000 Cl
ENDBRANCH   5   7
ENDBRANCH   4   5
ENDBRANCH   1   4
BRANCH   1  15
ATOM     15  N   UNL     1       3.312   2.824  18.750  0.00  0.00    +0.000 NA
ATOM     16  C   UNL     1       4.416   2.903  18.057  0.00  0.00    +0.000 C 
BRANCH  16  17
ATOM     17  C   UNL     1       4.954   4.034  17.252  0.00  0.00    +0.000 A 
ATOM     18  C   UNL     1       4.572   4.139  15.906  0.00  0.00    +0.000 A 
ATOM     19  C   UNL     1       5.090   5.141  15.096  0.00  0.00    +0.000 A 
ATOM     20  C   UNL     1       6.045   6.011  15.607  0.00  0.00    +0.000 A 
ATOM     21  C   UNL     1       6.486   5.901  16.934  0.00  0.00    +0.000 A 
ATOM     22  C   UNL     1       7.487   6.774  17.398  0.00  0.00    +0.000 A 
ATOM     23  C   UNL     1       7.955   6.694  18.705  0.00  0.00    +0.000 A 
ATOM     24  C   UNL     1       7.418   5.751  19.570  0.00  0.00    +0.000 A 
ATOM     25  C   UNL     1       6.421   4.876  19.124  0.00  0.00    +0.000 A 
ATOM     26  C   UNL     1       5.936   4.915  17.792  0.00  0.00    +0.000 A 
ENDBRANCH  16  17
ENDBRANCH   1  15
TORSDOF 5
ENDMDL
MODEL 2
REMARK VINA RESULT:      -7.1      1.238      1.694
REMARK  Name = 
REMARK  5 active torsions:
REMARK  status: ('A' for Active; 'I' for Inactive)
REMARK    1  A    between atoms: C_2  and  N_3
REMARK    2  A    between atoms: C_2  and  N_16
REMARK    3  A    between atoms: N_3  and  N_4
REMARK    4  A    between atoms: C_5  and  C_6
REMARK    5  A    between atoms: N_16  and  C_17
REMARK                            x       y       z     vdW  Elec       q    Type
REMARK                         _______ _______ _______ _____ _____    ______ ____
ROOT
ATOM      1  N   UNL     1       2.626   4.291  18.697  0.00  0.00    +0.000 N 
ATOM      2  H   UNL     1       2.527   4.983  17.958  0.00  0.00    +0.000 HD
ENDROOT
BRANCH   1   4
ATOM      3  S   UNL     1       1.500   3.560  20.939  0.00  0.00    +0.000 S 
ATOM      4  C   UNL     1       2.289   4.677  19.975  0.00  0.00    +0.000 C 
BRANCH   4   5
ATOM      5  N   UNL     1       2.735   5.933  20.315  0.00  0.00    +0.000 N 
ATOM      6  H   UNL     1       3.635   5.911  20.790  0.00  0.00    +0.000 HD
BRANCH   5   7
ATOM      7  C   UNL     1       2.082   7.181  20.220  0.00  0.00    +0.000 A 
ATOM      8  C   UNL     1       1.191   7.600  21.217  0.00  0.00    +0.000 A 
ATOM      9  C   UNL     1       0.477   8.788  21.084  0.00  0.00    +0.000 A 
ATOM     10  C   UNL     1       0.648   9.582  19.958  0.00  0.00    +0.000 A 
ATOM     11  C   UNL     1       1.533   9.184  18.951  0.00  0.00    +0.000 A 
ATOM     12 CL   UNL     1       1.697  10.236  17.586  0.00  0.00    +0.000 Cl
ATOM     13  C   UNL     1       2.243   7.977  19.066  0.00  0.00    +0.000 A 
ATOM     14 CL   UNL     1       3.355   7.475  17.829  0.00  0.00    +0.000 Cl
ENDBRANCH   5   7
ENDBRANCH   4   5
ENDBRANCH   1   4
BRANCH   1  15
ATOM     15  N   UNL     1       3.114   3.055  18.408  0.00  0.00    +0.000 NA
ATOM     16  C   UNL     1       4.216   2.972  17.712  0.00  0.00    +0.000 C 
BRANCH  16  17
ATOM     17  C   UNL     1       4.949   4.029  16.961  0.00  0.00    +0.000 A 
ATOM     18  C   UNL     1       4.774   4.106  15.571  0.00  0.00    +0.000 A 
ATOM     19  C   UNL     1       5.477   5.035  14.817  0.00  0.00    +0.000 A 
ATOM     20  C   UNL     1       6.411   5.857  15.437  0.00  0.00    +0.000 A 
ATOM     21  C   UNL     1       6.646   5.770  16.817  0.00  0.00    +0.000 A 
ATOM     22  C   UNL     1       7.632   6.589  17.397  0.00  0.00    +0.000 A 
ATOM     23  C   UNL     1       7.899   6.530  18.761  0.00  0.00    +0.000 A 
ATOM     24  C   UNL     1       7.173   5.663  19.565  0.00  0.00    +0.000 A 
ATOM     25  C   UNL     1       6.188   4.842  19.003  0.00  0.00    +0.000 A 
ATOM     26  C   UNL     1       5.905   4.860  17.614  0.00  0.00    +0.000 A 
ENDBRANCH  16  17
ENDBRANCH   1  15
TORSDOF 5
ENDMDL
MODEL 3
REMARK VINA RESULT:      -7.0      1.611      3.081
REMARK  Name = 
REMARK  5 active torsions:
REMARK  status: ('A' for Active; 'I' for Inactive)
REMARK    1  A    between atoms: C_2  and  N_3
REMARK    2  A    between atoms: C_2  and  N_16
REMARK    3  A    between atoms: N_3  and  N_4
REMARK    4  A    between atoms: C_5  and  C_6
REMARK    5  A    between atoms: N_16  and  C_17
REMARK                            x       y       z     vdW  Elec       q    Type
REMARK                         _______ _______ _______ _____ _____    ______ ____
ROOT
ATOM      1  N   UNL     1       2.389   5.546  18.497  0.00  0.00    +0.000 N 
ATOM      2  H   UNL     1       2.578   6.276  17.815  0.00  0.00    +0.000 HD
ENDROOT
BRANCH   1   4
ATOM      3  S   UNL     1       1.797   4.748  20.914  0.00  0.00    +0.000 S 
ATOM      4  C   UNL     1       2.196   5.934  19.803  0.00  0.00    +0.000 C 
BRANCH   4   5
ATOM      5  N   UNL     1       2.447   7.267  20.033  0.00  0.00    +0.000 N 
ATOM      6  H   UNL     1       3.443   7.478  20.048  0.00  0.00    +0.000 HD
BRANCH   5   7
ATOM      7  C   UNL     1       1.558   8.311  20.369  0.00  0.00    +0.000 A 
ATOM      8  C   UNL     1       1.018   8.404  21.658  0.00  0.00    +0.000 A 
ATOM      9  C   UNL     1       0.072   9.377  21.970  0.00  0.00    +0.000 A 
ATOM     10  C   UNL     1      -0.344  10.279  20.999  0.00  0.00    +0.000 A 
ATOM     11  C   UNL     1       0.182  10.206  19.706  0.00  0.00    +0.000 A 
ATOM     12 CL   UNL     1      -0.380  11.374  18.560  0.00  0.00    +0.000 Cl
ATOM     13  C   UNL     1       1.122   9.215  19.377  0.00  0.00    +0.000 A 
ATOM     14 CL   UNL     1       1.794   9.118  17.777  0.00  0.00    +0.000 Cl
ENDBRANCH   5   7
ENDBRANCH   4   5
ENDBRANCH   1   4
BRANCH   1  15
ATOM     15  N   UNL     1       2.376   4.243  18.109  0.00  0.00    +0.000 NA
ATOM     16  C   UNL     1       3.519   3.636  17.939  0.00  0.00    +0.000 C 
BRANCH  16  17
ATOM     17  C   UNL     1       4.896   4.200  17.883  0.00  0.00    +0.000 A 
ATOM     18  C   UNL     1       5.470   4.684  19.069  0.00  0.00    +0.000 A 
ATOM     19  C   UNL     1       6.728   5.271  19.061  0.00  0.00    +0.000 A 
ATOM     20  C   UNL     1       7.401   5.438  17.856  0.00  0.00    +0.000 A 
ATOM     21  C   UNL     1       6.833   5.010  16.647  0.00  0.00    +0.000 A 
ATOM     22  C   UNL     1       7.527   5.238  15.445  0.00  0.00    +0.000 A 
ATOM     23  C   UNL     1       6.996   4.834  14.225  0.00  0.00    +0.000 A 
ATOM     24  C   UNL     1       5.771   4.183  14.192  0.00  0.00    +0.000 A 
ATOM     25  C   UNL     1       5.068   3.947  15.379  0.00  0.00    +0.000 A 
ATOM     26  C   UNL     1       5.569   4.366  16.637  0.00  0.00    +0.000 A 
ENDBRANCH  16  17
ENDBRANCH   1  15
TORSDOF 5
ENDMDL
MODEL 4
REMARK VINA RESULT:      -7.0      1.090      2.408
REMARK  Name = 
REMARK  5 active torsions:
REMARK  status: ('A' for Active; 'I' for Inactive)
REMARK    1  A    between atoms: C_2  and  N_3
REMARK    2  A    between atoms: C_2  and  N_16
REMARK    3  A    between atoms: N_3  and  N_4
REMARK    4  A    between atoms: C_5  and  C_6
REMARK    5  A    between atoms: N_16  and  C_17
REMARK                            x       y       z     vdW  Elec       q    Type
REMARK                         _______ _______ _______ _____ _____    ______ ____
ROOT
ATOM      1  N   UNL     1       2.405   5.038  18.606  0.00  0.00    +0.000 N 
ATOM      2  H   UNL     1       2.428   5.765  17.895  0.00  0.00    +0.000 HD
ENDROOT
BRANCH   1   4
ATOM      3  S   UNL     1       1.775   4.266  21.021  0.00  0.00    +0.000 S 
ATOM      4  C   UNL     1       2.226   5.434  19.912  0.00  0.00    +0.000 C 
BRANCH   4   5
ATOM      5  N   UNL     1       2.533   6.755  20.142  0.00  0.00    +0.000 N 
ATOM      6  H   UNL     1       3.189   6.874  20.911  0.00  0.00    +0.000 HD
BRANCH   5   7
ATOM      7  C   UNL     1       1.984   7.924  19.572  0.00  0.00    +0.000 A 
ATOM      8  C   UNL     1       2.320   8.309  18.267  0.00  0.00    +0.000 A 
ATOM      9  C   UNL     1       1.852   9.507  17.732  0.00  0.00    +0.000 A 
ATOM     10  C   UNL     1       1.035  10.336  18.490  0.00  0.00    +0.000 A 
ATOM     11  C   UNL     1       0.687   9.971  19.794  0.00  0.00    +0.000 A 
ATOM     12 CL   UNL     1      -0.345  11.053  20.665  0.00  0.00    +0.000 Cl
ATOM     13  C   UNL     1       1.169   8.774  20.349  0.00  0.00    +0.000 A 
ATOM     14 CL   UNL     1       0.735   8.301  21.963  0.00  0.00    +0.000 Cl
ENDBRANCH   5   7
ENDBRANCH   4   5
ENDBRANCH   1   4
BRANCH   1  15
ATOM     15  N   UNL     1       2.589   3.738  18.251  0.00  0.00    +0.000 NA
ATOM     16  C   UNL     1       3.810   3.314  18.065  0.00  0.00    +0.000 C 
BRANCH  16  17
ATOM     17  C   UNL     1       5.078   4.086  17.956  0.00  0.00    +0.000 A 
ATOM     18  C   UNL     1       5.589   4.701  19.110  0.00  0.00    +0.000 A 
ATOM     19  C   UNL     1       6.737   5.479  19.051  0.00  0.00    +0.000 A 
ATOM     20  C   UNL     1       7.354   5.702  17.826  0.00  0.00    +0.000 A 
ATOM     21  C   UNL     1       6.840   5.143  16.647  0.00  0.00    +0.000 A 
ATOM     22  C   UNL     1       7.468   5.430  15.421  0.00  0.00    +0.000 A 
ATOM     23  C   UNL     1       6.987   4.899  14.229  0.00  0.00    +0.000 A 
ATOM     24  C   UNL     1       5.880   4.062  14.248  0.00  0.00    +0.000 A 
ATOM     25  C   UNL     1       5.244   3.765  15.460  0.00  0.00    +0.000 A 
ATOM     26  C   UNL     1       5.694   4.307  16.690  0.00  0.00    +0.000 A 
ENDBRANCH  16  17
ENDBRANCH   1  15
TORSDOF 5
ENDMDL
MODEL 5
REMARK VINA RESULT:      -6.8      2.421      5.741
REMARK  Name = 
REMARK  5 active torsions:
REMARK  status: ('A' for Active; 'I' for Inactive)
REMARK    1  A    between atoms: C_2  and  N_3
REMARK    2  A    between atoms: C_2  and  N_16
REMARK    3  A    between atoms: N_3  and  N_4
REMARK    4  A    between atoms: C_5  and  C_6
REMARK    5  A    between atoms: N_16  and  C_17
REMARK                            x       y       z     vdW  Elec       q    Type
REMARK                         _______ _______ _______ _____ _____    ______ ____
ROOT
ATOM      1  N   UNL     1       2.927   4.438  19.093  0.00  0.00    +0.000 N 
ATOM      2  H   UNL     1       2.634   5.063  18.346  0.00  0.00    +0.000 HD
ENDROOT
BRANCH   1   4
ATOM      3  S   UNL     1       2.413   1.881  18.928  0.00  0.00    +0.000 S 
ATOM      4  C   UNL     1       3.418   3.204  18.730  0.00  0.00    +0.000 C 
BRANCH   4   5
ATOM      5  N   UNL     1       4.670   3.246  18.162  0.00  0.00    +0.000 N 
ATOM      6  H   UNL     1       5.288   2.524  18.529  0.00  0.00    +0.000 HD
BRANCH   5   7
ATOM      7  C   UNL     1       5.233   4.194  17.280  0.00  0.00    +0.000 A 
ATOM      8  C   UNL     1       5.058   4.075  15.895  0.00  0.00    +0.000 A 
ATOM      9  C   UNL     1       5.685   4.955  15.017  0.00  0.00    +0.000 A 
ATOM     10  C   UNL     1       6.490   5.974  15.509  0.00  0.00    +0.000 A 
ATOM     11  C   UNL     1       6.678   6.112  16.887  0.00  0.00    +0.000 A 
ATOM     12 CL   UNL     1       7.686   7.415  17.418  0.00  0.00    +0.000 Cl
ATOM     13  C   UNL     1       6.066   5.217  17.780  0.00  0.00    +0.000 A 
ATOM     14 CL   UNL     1       6.279   5.383  19.497  0.00  0.00    +0.000 Cl
ENDBRANCH   5   7
ENDBRANCH   4   5
ENDBRANCH   1   4
BRANCH   1  15
ATOM     15  N   UNL     1       2.789   4.820  20.391  0.00  0.00    +0.000 NA
ATOM     16  C   UNL     1       2.324   6.015  20.638  0.00  0.00    +0.000 C 
BRANCH  16  17
ATOM     17  C   UNL     1       2.112   7.163  19.714  0.00  0.00    +0.000 A 
ATOM     18  C   UNL     1       2.782   7.163  18.482  0.00  0.00    +0.000 A 
ATOM     19  C   UNL     1       2.664   8.236  17.608  0.00  0.00    +0.000 A 
ATOM     20  C   UNL     1       1.924   9.350  17.986  0.00  0.00    +0.000 A 
ATOM     21  C   UNL     1       1.283   9.402  19.232  0.00  0.00    +0.000 A 
ATOM     22  C   UNL     1       0.580  10.567  19.594  0.00  0.00    +0.000 A 
ATOM     23  C   UNL     1      -0.065  10.661  20.822  0.00  0.00    +0.000 A 
ATOM     24  C   UNL     1      -0.029   9.586  21.699  0.00  0.00    +0.000 A 
ATOM     25  C   UNL     1       0.665   8.419  21.355  0.00  0.00    +0.000 A 
ATOM     26  C   UNL     1       1.351   8.298  20.121  0.00  0.00    +0.000 A 
ENDBRANCH  16  17
ENDBRANCH   1  15
TORSDOF 5
ENDMDL
MODEL 6
REMARK VINA RESULT:      -6.8      4.091      6.002
REMARK  Name = 
REMARK  5 active torsions:
REMARK  status: ('A' for Active; 'I' for Inactive)
REMARK    1  A    between atoms: C_2  and  N_3
REMARK    2  A    between atoms: C_2  and  N_16
REMARK    3  A    between atoms: N_3  and  N_4
REMARK    4  A    between atoms: C_5  and  C_6
REMARK    5  A    between atoms: N_16  and  C_17
REMARK                            x       y       z     vdW  Elec       q    Type
REMARK                         _______ _______ _______ _____ _____    ______ ____
ROOT
ATOM      1  N   UNL     1       0.945   9.481  19.421  0.00  0.00    +0.000 N 
ATOM      2  H   UNL     1       1.479   9.104  18.642  0.00  0.00    +0.000 HD
ENDROOT
BRANCH   1   4
ATOM      3  S   UNL     1       1.161  12.024  18.858  0.00  0.00    +0.000 S 
ATOM      4  C   UNL     1       0.262  10.658  19.210  0.00  0.00    +0.000 C 
BRANCH   4   5
ATOM      5  N   UNL     1      -1.106  10.522  19.238  0.00  0.00    +0.000 N 
ATOM      6  H   UNL     1      -1.454  10.279  20.164  0.00  0.00    +0.000 HD
BRANCH   5   7
ATOM      7  C   UNL     1      -2.040  10.539  18.179  0.00  0.00    +0.000 A 
ATOM      8  C   UNL     1      -1.808   9.804  17.009  0.00  0.00    +0.000 A 
ATOM      9  C   UNL     1      -2.679   9.888  15.926  0.00  0.00    +0.000 A 
ATOM     10  C   UNL     1      -3.802  10.703  15.998  0.00  0.00    +0.000 A 
ATOM     11  C   UNL     1      -4.054  11.444  17.156  0.00  0.00    +0.000 A 
ATOM     12 CL   UNL     1      -5.481  12.423  17.169  0.00  0.00    +0.000 Cl
ATOM     13  C   UNL     1      -3.170  11.381  18.246  0.00  0.00    +0.000 A 
ATOM     14 CL   UNL     1      -3.475  12.287  19.697  0.00  0.00    +0.000 Cl
ENDBRANCH   5   7
ENDBRANCH   4   5
ENDBRANCH   1   4
BRANCH   1  15
ATOM     15  N   UNL     1       0.959   8.846  20.623  0.00  0.00    +0.000 NA
ATOM     16  C   UNL     1       1.638   7.736  20.729  0.00  0.00    +0.000 C 
BRANCH  16  17
ATOM     17  C   UNL     1       2.250   6.891  19.667  0.00  0.00    +0.000 A 
ATOM     18  C   UNL     1       2.972   7.521  18.642  0.00  0.00    +0.000 A 
ATOM     19  C   UNL     1       3.514   6.785  17.597  0.00  0.00    +0.000 A 
ATOM     20  C   UNL     1       3.288   5.415  17.533  0.00  0.00    +0.000 A 
ATOM     21  C   UNL     1       2.528   4.762  18.515  0.00  0.00    +0.000 A 
ATOM     22  C   UNL     1       2.285   3.382  18.388  0.00  0.00    +0.000 A 
ATOM     23  C   UNL     1       1.533   2.698  19.337  0.00  0.00    +0.000 A 
ATOM     24  C   UNL     1       1.027   3.382  20.433  0.00  0.00    +0.000 A 
ATOM     25  C   UNL     1       1.261   4.755  20.575  0.00  0.00    +0.000 A 
ATOM     26  C   UNL     1       2.004   5.487  19.615  0.00  0.00    +0.000 A 
ENDBRANCH  16  17
ENDBRANCH   1  15
TORSDOF 5
ENDMDL
MODEL 7
REMARK VINA RESULT:      -6.7      3.313      5.999
REMARK  Name = 
REMARK  5 active torsions:
REMARK  status: ('A' for Active; 'I' for Inactive)
REMARK    1  A    between atoms: C_2  and  N_3
REMARK    2  A    between atoms: C_2  and  N_16
REMARK    3  A    between atoms: N_3  and  N_4
REMARK    4  A    between atoms: C_5  and  C_6
REMARK    5  A    between atoms: N_16  and  C_17
REMARK                            x       y       z     vdW  Elec       q    Type
REMARK                         _______ _______ _______ _____ _____    ______ ____
ROOT
ATOM      1  N   UNL     1       4.868   5.268  17.376  0.00  0.00    +0.000 N 
ATOM      2  H   UNL     1       4.972   5.376  18.382  0.00  0.00    +0.000 HD
ENDROOT
BRANCH   1   4
ATOM      3  S   UNL     1       6.074   3.910  15.498  0.00  0.00    +0.000 S 
ATOM      4  C   UNL     1       5.090   4.017  16.847  0.00  0.00    +0.000 C 
BRANCH   4   5
ATOM      5  N   UNL     1       4.524   2.995  17.572  0.00  0.00    +0.000 N 
ATOM      6  H   UNL     1       5.073   2.139  17.532  0.00  0.00    +0.000 HD
BRANCH   5   7
ATOM      7  C   UNL     1       3.273   2.933  18.224  0.00  0.00    +0.000 A 
ATOM      8  C   UNL     1       2.098   3.297  17.554  0.00  0.00    +0.000 A 
ATOM      9  C   UNL     1       0.874   3.324  18.218  0.00  0.00    +0.000 A 
ATOM     10  C   UNL     1       0.804   2.979  19.561  0.00  0.00    +0.000 A 
ATOM     11  C   UNL     1       1.964   2.612  20.250  0.00  0.00    +0.000 A 
ATOM     12 CL   UNL     1       1.787   2.185  21.918  0.00  0.00    +0.000 Cl
ATOM     13  C   UNL     1       3.206   2.601  19.594  0.00  0.00    +0.000 A 
ATOM     14 CL   UNL     1       4.654   2.135  20.433  0.00  0.00    +0.000 Cl
ENDBRANCH   5   7
ENDBRANCH   4   5
ENDBRANCH   1   4
BRANCH   1  15
ATOM     15  N   UNL     1       4.561   6.347  16.607  0.00  0.00    +0.000 NA
ATOM     16  C   UNL     1       3.840   7.299  17.135  0.00  0.00    +0.000 C 
BRANCH  16  17
ATOM     17  C   UNL     1       3.081   7.318  18.416  0.00  0.00    +0.000 A 
ATOM     18  C   UNL     1       3.155   6.196  19.255  0.00  0.00    +0.000 A 
ATOM     19  C   UNL     1       2.421   6.139  20.433  0.00  0.00    +0.000 A 
ATOM     20  C   UNL     1       1.556   7.179  20.753  0.00  0.00    +0.000 A 
ATOM     21  C   UNL     1       1.421   8.292  19.910  0.00  0.00    +0.000 A 
ATOM     22  C   UNL     1       0.501   9.301  20.249  0.00  0.00    +0.000 A 
ATOM     23  C   UNL     1       0.334  10.418  19.438  0.00  0.00    +0.000 A 
ATOM     24  C   UNL     1       1.095  10.548  18.285  0.00  0.00    +0.000 A 
ATOM     25  C   UNL     1       2.016   9.554  17.934  0.00  0.00    +0.000 A 
ATOM     26  C   UNL     1       2.196   8.392  18.726  0.00  0.00    +0.000 A 
ENDBRANCH  16  17
ENDBRANCH   1  15
TORSDOF 5
ENDMDL
MODEL 8
REMARK VINA RESULT:      -6.7      3.781      8.022
REMARK  Name = 
REMARK  5 active torsions:
REMARK  status: ('A' for Active; 'I' for Inactive)
REMARK    1  A    between atoms: C_2  and  N_3
REMARK    2  A    between atoms: C_2  and  N_16
REMARK    3  A    between atoms: N_3  and  N_4
REMARK    4  A    between atoms: C_5  and  C_6
REMARK    5  A    between atoms: N_16  and  C_17
REMARK                            x       y       z     vdW  Elec       q    Type
REMARK                         _______ _______ _______ _____ _____    ______ ____
ROOT
ATOM      1  N   UNL     1       0.934   8.557  19.546  0.00  0.00    +0.000 N 
ATOM      2  H   UNL     1      -0.054   8.346  19.431  0.00  0.00    +0.000 HD
ENDROOT
BRANCH   1   4
ATOM      3  S   UNL     1       1.135   9.010  22.112  0.00  0.00    +0.000 S 
ATOM      4  C   UNL     1       1.532   8.166  20.723  0.00  0.00    +0.000 C 
BRANCH   4   5
ATOM      5  N   UNL     1       2.331   7.053  20.601  0.00  0.00    +0.000 N 
ATOM      6  H   UNL     1       3.288   7.226  20.902  0.00  0.00    +0.000 HD
BRANCH   5   7
ATOM      7  C   UNL     1       2.053   5.799  20.015  0.00  0.00    +0.000 A 
ATOM      8  C   UNL     1       1.177   4.898  20.635  0.00  0.00    +0.000 A 
ATOM      9  C   UNL     1       0.969   3.626  20.108  0.00  0.00    +0.000 A 
ATOM     10  C   UNL     1       1.626   3.237  18.948  0.00  0.00    +0.000 A 
ATOM     11  C   UNL     1       2.503   4.120  18.312  0.00  0.00    +0.000 A 
ATOM     12 CL   UNL     1       3.271   3.561  16.865  0.00  0.00    +0.000 Cl
ATOM     13  C   UNL     1       2.735   5.398  18.847  0.00  0.00    +0.000 A 
ATOM     14 CL   UNL     1       3.813   6.512  18.061  0.00  0.00    +0.000 Cl
ENDBRANCH   5   7
ENDBRANCH   4   5
ENDBRANCH   1   4
BRANCH   1  15
ATOM     15  N   UNL     1       1.600   9.236  18.574  0.00  0.00    +0.000 NA
ATOM     16  C   UNL     1       1.271  10.480  18.353  0.00  0.00    +0.000 C 
BRANCH  16  17
ATOM     17  C   UNL     1       0.102  11.258  18.848  0.00  0.00    +0.000 A 
ATOM     18  C   UNL     1       0.295  12.155  19.909  0.00  0.00    +0.000 A 
ATOM     19  C   UNL     1      -0.773  12.862  20.446  0.00  0.00    +0.000 A 
ATOM     20  C   UNL     1      -2.057  12.633  19.968  0.00  0.00    +0.000 A 
ATOM     21  C   UNL     1      -2.291  11.705  18.942  0.00  0.00    +0.000 A 
ATOM     22  C   UNL     1      -3.612  11.470  18.518  0.00  0.00    +0.000 A 
ATOM     23  C   UNL     1      -3.887  10.555  17.508  0.00  0.00    +0.000 A 
ATOM     24  C   UNL     1      -2.843   9.874  16.897  0.00  0.00    +0.000 A 
ATOM     25  C   UNL     1      -1.523  10.097  17.306  0.00  0.00    +0.000 A 
ATOM     26  C   UNL     1      -1.209  11.006  18.347  0.00  0.00    +0.000 A 
ENDBRANCH  16  17
ENDBRANCH   1  15
TORSDOF 5
ENDMDL
MODEL 9
REMARK VINA RESULT:      -6.6      3.797      7.825
REMARK  Name = 
REMARK  5 active torsions:
REMARK  status: ('A' for Active; 'I' for Inactive)
REMARK    1  A    between atoms: C_2  and  N_3
REMARK    2  A    between atoms: C_2  and  N_16
REMARK    3  A    between atoms: N_3  and  N_4
REMARK    4  A    between atoms: C_5  and  C_6
REMARK    5  A    between atoms: N_16  and  C_17
REMARK                            x       y       z     vdW  Elec       q    Type
REMARK                         _______ _______ _______ _____ _____    ______ ____
ROOT
ATOM      1  N   UNL     1       1.896   8.193  20.773  0.00  0.00    +0.000 N 
ATOM      2  H   UNL     1       2.509   8.929  21.113  0.00  0.00    +0.000 HD
ENDROOT
BRANCH   1   4
ATOM      3  S   UNL     1       2.078   8.200  18.166  0.00  0.00    +0.000 S 
ATOM      4  C   UNL     1       2.306   7.489  19.663  0.00  0.00    +0.000 C 
BRANCH   4   5
ATOM      5  N   UNL     1       2.939   6.303  19.956  0.00  0.00    +0.000 N 
ATOM      6  H   UNL     1       3.918   6.436  20.203  0.00  0.00    +0.000 HD
BRANCH   5   7
ATOM      7  C   UNL     1       2.474   4.976  19.837  0.00  0.00    +0.000 A 
ATOM      8  C   UNL     1       1.368   4.535  20.576  0.00  0.00    +0.000 A 
ATOM      9  C   UNL     1       0.961   3.204  20.531  0.00  0.00    +0.000 A 
ATOM     10  C   UNL     1       1.647   2.293  19.738  0.00  0.00    +0.000 A 
ATOM     11  C   UNL     1       2.752   2.711  18.990  0.00  0.00    +0.000 A 
ATOM     12 CL   UNL     1       3.543   1.516  18.020  0.00  0.00    +0.000 Cl
ATOM     13  C   UNL     1       3.183   4.047  19.046  0.00  0.00    +0.000 A 
ATOM     14 CL   UNL     1       4.547   4.585  18.113  0.00  0.00    +0.000 Cl
ENDBRANCH   5   7
ENDBRANCH   4   5
ENDBRANCH   1   4
BRANCH   1  15
ATOM     15  N   UNL     1       0.704   7.966  21.386  0.00  0.00    +0.000 NA
ATOM     16  C   UNL     1      -0.238   8.861  21.260  0.00  0.00    +0.000 C 
BRANCH  16  17
ATOM     17  C   UNL     1      -0.167  10.247  20.720  0.00  0.00    +0.000 A 
ATOM     18  C   UNL     1       0.433  11.242  21.507  0.00  0.00    +0.000 A 
ATOM     19  C   UNL     1       0.475  12.561  21.075  0.00  0.00    +0.000 A 
ATOM     20  C   UNL     1      -0.139  12.911  19.879  0.00  0.00    +0.000 A 
ATOM     21  C   UNL     1      -0.791  11.949  19.093  0.00  0.00    +0.000 A 
ATOM     22  C   UNL     1      -1.439  12.354  17.912  0.00  0.00    +0.000 A 
ATOM     23  C   UNL     1      -2.101  11.432  17.108  0.00  0.00    +0.000 A 
ATOM     24  C   UNL     1      -2.111  10.092  17.466  0.00  0.00    +0.000 A 
ATOM     25  C   UNL     1      -1.470   9.673  18.638  0.00  0.00    +0.000 A 
ATOM     26  C   UNL     1      -0.806  10.588  19.492  0.00  0.00    +0.000 A 
ENDBRANCH  16  17
ENDBRANCH   1  15
TORSDOF 5
ENDMDL
