MODEL 1
REMARK VINA RESULT:      -7.6      0.000      0.000
REMARK  Name = 
REMARK  7 active torsions:
REMARK  status: ('A' for Active; 'I' for Inactive)
REMARK    1  A    between atoms: C_2  and  C_3
REMARK    2  A    between atoms: C_3  and  C_4
REMARK    3  A    between atoms: C_4  and  O_6
REMARK    4  A    between atoms: O_6  and  C_7
REMARK    5  A    between atoms: C_7  and  C_8
REMARK    6  A    between atoms: N_17  and  C_18
REMARK    7  A    between atoms: C_18  and  C_19
REMARK                            x       y       z     vdW  Elec       q    Type
REMARK                         _______ _______ _______ _____ _____    ______ ____
ROOT
ATOM      1  C   UNL     1       7.450   5.507  18.699  0.00  0.00    +0.000 C 
ATOM      2  O   UNL     1       8.133   5.449  19.712  0.00  0.00    +0.000 OA
ENDROOT
BRANCH   1   3
ATOM      3  C   UNL     1       7.506   6.627  17.703  0.00  0.00    +0.000 C 
BRANCH   3   5
ATOM      4  O   UNL     1       5.725   6.793  16.086  0.00  0.00    +0.000 OA
ATOM      5  C   UNL     1       6.818   6.337  16.399  0.00  0.00    +0.000 C 
ATOM      6  N   UNL     1       7.569   5.561  15.536  0.00  0.00    +0.000 N 
ATOM      7  H   UNL     1       8.394   5.090  15.888  0.00  0.00    +0.000 HD
BRANCH   6   8
ATOM      8  C   UNL     1       7.038   5.148  14.232  0.00  0.00    +0.000 C 
BRANCH   8   9
ATOM      9  C   UNL     1       6.102   3.929  14.232  0.00  0.00    +0.000 C 
ATOM     10  F   UNL     1       6.220   3.187  13.109  0.00  0.00    +0.000 F 
ATOM     11  F   UNL     1       6.325   3.124  15.293  0.00  0.00    +0.000 F 
ATOM     12  F   UNL     1       4.811   4.337  14.301  0.00  0.00    +0.000 F 
ENDBRANCH   8   9
ENDBRANCH   6   8
ENDBRANCH   3   5
ENDBRANCH   1   3
BRANCH   1  13
ATOM     13  O   UNL     1       6.662   4.499  18.230  0.00  0.00    +0.000 OA
BRANCH  13  14
ATOM     14  C   UNL     1       5.705   4.018  19.181  0.00  0.00    +0.000 C 
BRANCH  14  15
ATOM     15  C   UNL     1       4.440   3.510  18.465  0.00  0.00    +0.000 C 
ATOM     16  O   UNL     1       4.275   3.720  17.258  0.00  0.00    +0.000 OA
ATOM     17  N   UNL     1       3.498   2.810  19.220  0.00  0.00    +0.000 N 
ATOM     18  C   UNL     1       2.405   2.158  18.502  0.00  0.00    +0.000 C 
ATOM     19  C   UNL     1       1.174   3.055  18.413  0.00  0.00    +0.000 C 
ATOM     20  C   UNL     1       0.363   3.118  19.706  0.00  0.00    +0.000 C 
ATOM     21  C   UNL     1       1.148   3.559  20.942  0.00  0.00    +0.000 C 
ATOM     22  C   UNL     1       2.200   2.539  21.381  0.00  0.00    +0.000 C 
ATOM     23  C   UNL     1       3.549   2.698  20.676  0.00  0.00    +0.000 C 
ENDBRANCH  14  15
ENDBRANCH  13  14
ENDBRANCH   1  13
TORSDOF 7
ENDMDL
MODEL 2
REMARK VINA RESULT:      -7.4      0.831      1.240
REMARK  Name = 
REMARK  7 active torsions:
REMARK  status: ('A' for Active; 'I' for Inactive)
REMARK    1  A    between atoms: C_2  and  C_3
REMARK    2  A    between atoms: C_3  and  C_4
REMARK    3  A    between atoms: C_4  and  O_6
REMARK    4  A    between atoms: O_6  and  C_7
REMARK    5  A    between atoms: C_7  and  C_8
REMARK    6  A    between atoms: N_17  and  C_18
REMARK    7  A    between atoms: C_18  and  C_19
REMARK                            x       y       z     vdW  Elec       q    Type
REMARK                         _______ _______ _______ _____ _____    ______ ____
ROOT
ATOM      1  C   UNL     1       7.568   5.153  18.701  0.00  0.00    +0.000 C 
ATOM      2  O   UNL     1       8.210   4.213  18.254  0.00  0.00    +0.000 OA
ENDROOT
BRANCH   1   3
ATOM      3  C   UNL     1       7.522   6.518  18.080  0.00  0.00    +0.000 C 
BRANCH   3   5
ATOM      4  O   UNL     1       6.134   7.457  16.347  0.00  0.00    +0.000 OA
ATOM      5  C   UNL     1       6.885   6.565  16.720  0.00  0.00    +0.000 C 
ATOM      6  N   UNL     1       7.284   5.538  15.885  0.00  0.00    +0.000 N 
ATOM      7  H   UNL     1       7.786   4.750  16.277  0.00  0.00    +0.000 HD
BRANCH   6   8
ATOM      8  C   UNL     1       6.734   5.404  14.532  0.00  0.00    +0.000 C 
BRANCH   8   9
ATOM      9  C   UNL     1       6.154   4.029  14.164  0.00  0.00    +0.000 C 
ATOM     10  F   UNL     1       6.249   3.140  15.179  0.00  0.00    +0.000 F 
ATOM     11  F   UNL     1       4.858   4.112  13.798  0.00  0.00    +0.000 F 
ATOM     12  F   UNL     1       6.835   3.505  13.116  0.00  0.00    +0.000 F 
ENDBRANCH   8   9
ENDBRANCH   6   8
ENDBRANCH   3   5
ENDBRANCH   1   3
BRANCH   1  13
ATOM     13  O   UNL     1       6.669   5.070  19.722  0.00  0.00    +0.000 OA
BRANCH  13  14
ATOM     14  C   UNL     1       5.321   5.368  19.338  0.00  0.00    +0.000 C 
BRANCH  14  15
ATOM     15  C   UNL     1       4.664   4.143  18.678  0.00  0.00    +0.000 C 
ATOM     16  O   UNL     1       4.946   3.829  17.515  0.00  0.00    +0.000 OA
ATOM     17  N   UNL     1       3.750   3.406  19.432  0.00  0.00    +0.000 N 
ATOM     18  C   UNL     1       3.285   2.136  18.878  0.00  0.00    +0.000 C 
ATOM     19  C   UNL     1       1.990   2.304  18.090  0.00  0.00    +0.000 C 
ATOM     20  C   UNL     1       0.748   2.443  18.968  0.00  0.00    +0.000 C 
ATOM     21  C   UNL     1       0.800   3.580  19.989  0.00  0.00    +0.000 C 
ATOM     22  C   UNL     1       1.835   3.350  21.091  0.00  0.00    +0.000 C 
ATOM     23  C   UNL     1       3.241   3.836  20.731  0.00  0.00    +0.000 C 
ENDBRANCH  14  15
ENDBRANCH  13  14
ENDBRANCH   1  13
TORSDOF 7
ENDMDL
MODEL 3
REMARK VINA RESULT:      -7.4      1.149      1.393
REMARK  Name = 
REMARK  7 active torsions:
REMARK  status: ('A' for Active; 'I' for Inactive)
REMARK    1  A    between atoms: C_2  and  C_3
REMARK    2  A    between atoms: C_3  and  C_4
REMARK    3  A    between atoms: C_4  and  O_6
REMARK    4  A    between atoms: O_6  and  C_7
REMARK    5  A    between atoms: C_7  and  C_8
REMARK    6  A    between atoms: N_17  and  C_18
REMARK    7  A    between atoms: C_18  and  C_19
REMARK                            x       y       z     vdW  Elec       q    Type
REMARK                         _______ _______ _______ _____ _____    ______ ____
ROOT
ATOM      1  C   UNL     1       7.538   5.581  19.521  0.00  0.00    +0.000 C 
ATOM      2  O   UNL     1       8.139   5.279  20.542  0.00  0.00    +0.000 OA
ENDROOT
BRANCH   1   3
ATOM      3  C   UNL     1       7.986   6.638  18.556  0.00  0.00    +0.000 C 
BRANCH   3   5
ATOM      4  O   UNL     1       6.635   7.470  16.740  0.00  0.00    +0.000 OA
ATOM      5  C   UNL     1       7.326   6.573  17.207  0.00  0.00    +0.000 C 
ATOM      6  N   UNL     1       7.630   5.427  16.496  0.00  0.00    +0.000 N 
ATOM      7  H   UNL     1       8.079   4.655  16.973  0.00  0.00    +0.000 HD
BRANCH   6   8
ATOM      8  C   UNL     1       7.043   5.178  15.175  0.00  0.00    +0.000 C 
BRANCH   8   9
ATOM      9  C   UNL     1       5.993   4.058  15.096  0.00  0.00    +0.000 C 
ATOM     10  F   UNL     1       4.735   4.537  14.968  0.00  0.00    +0.000 F 
ATOM     11  F   UNL     1       6.230   3.218  14.067  0.00  0.00    +0.000 F 
ATOM     12  F   UNL     1       6.019   3.318  16.232  0.00  0.00    +0.000 F 
ENDBRANCH   8   9
ENDBRANCH   6   8
ENDBRANCH   3   5
ENDBRANCH   1   3
BRANCH   1  13
ATOM     13  O   UNL     1       6.470   4.903  19.013  0.00  0.00    +0.000 OA
BRANCH  13  14
ATOM     14  C   UNL     1       5.200   5.434  19.412  0.00  0.00    +0.000 C 
BRANCH  14  15
ATOM     15  C   UNL     1       4.107   5.033  18.404  0.00  0.00    +0.000 C 
ATOM     16  O   UNL     1       3.800   5.792  17.477  0.00  0.00    +0.000 OA
ATOM     17  N   UNL     1       3.484   3.797  18.573  0.00  0.00    +0.000 N 
ATOM     18  C   UNL     1       2.598   3.334  17.506  0.00  0.00    +0.000 C 
ATOM     19  C   UNL     1       1.147   3.725  17.769  0.00  0.00    +0.000 C 
ATOM     20  C   UNL     1       0.451   2.847  18.807  0.00  0.00    +0.000 C 
ATOM     21  C   UNL     1       1.147   2.774  20.166  0.00  0.00    +0.000 C 
ATOM     22  C   UNL     1       2.491   2.047  20.115  0.00  0.00    +0.000 C 
ATOM     23  C   UNL     1       3.671   2.950  19.749  0.00  0.00    +0.000 C 
ENDBRANCH  14  15
ENDBRANCH  13  14
ENDBRANCH   1  13
TORSDOF 7
ENDMDL
MODEL 4
REMARK VINA RESULT:      -7.4      1.495      1.789
REMARK  Name = 
REMARK  7 active torsions:
REMARK  status: ('A' for Active; 'I' for Inactive)
REMARK    1  A    between atoms: C_2  and  C_3
REMARK    2  A    between atoms: C_3  and  C_4
REMARK    3  A    between atoms: C_4  and  O_6
REMARK    4  A    between atoms: O_6  and  C_7
REMARK    5  A    between atoms: C_7  and  C_8
REMARK    6  A    between atoms: N_17  and  C_18
REMARK    7  A    between atoms: C_18  and  C_19
REMARK                            x       y       z     vdW  Elec       q    Type
REMARK                         _______ _______ _______ _____ _____    ______ ____
ROOT
ATOM      1  C   UNL     1       7.307   5.306  17.594  0.00  0.00    +0.000 C 
ATOM      2  O   UNL     1       7.553   6.456  17.933  0.00  0.00    +0.000 OA
ENDROOT
BRANCH   1   3
ATOM      3  C   UNL     1       7.614   4.738  16.241  0.00  0.00    +0.000 C 
BRANCH   3   5
ATOM      4  O   UNL     1       5.891   5.901  15.019  0.00  0.00    +0.000 OA
ATOM      5  C   UNL     1       6.497   4.860  15.243  0.00  0.00    +0.000 C 
ATOM      6  N   UNL     1       6.255   3.697  14.536  0.00  0.00    +0.000 N 
ATOM      7  H   UNL     1       6.674   2.831  14.852  0.00  0.00    +0.000 HD
BRANCH   6   8
ATOM      8  C   UNL     1       5.174   3.623  13.547  0.00  0.00    +0.000 C 
BRANCH   8   9
ATOM      9  C   UNL     1       5.595   3.330  12.098  0.00  0.00    +0.000 C 
ATOM     10  F   UNL     1       5.770   2.009  11.868  0.00  0.00    +0.000 F 
ATOM     11  F   UNL     1       4.692   3.795  11.209  0.00  0.00    +0.000 F 
ATOM     12  F   UNL     1       6.776   3.938  11.827  0.00  0.00    +0.000 F 
ENDBRANCH   8   9
ENDBRANCH   6   8
ENDBRANCH   3   5
ENDBRANCH   1   3
BRANCH   1  13
ATOM     13  O   UNL     1       6.874   4.321  18.431  0.00  0.00    +0.000 OA
BRANCH  13  14
ATOM     14  C   UNL     1       5.581   4.563  18.997  0.00  0.00    +0.000 C 
BRANCH  14  15
ATOM     15  C   UNL     1       4.542   3.593  18.406  0.00  0.00    +0.000 C 
ATOM     16  O   UNL     1       4.496   3.389  17.187  0.00  0.00    +0.000 OA
ATOM     17  N   UNL     1       3.666   2.958  19.287  0.00  0.00    +0.000 N 
ATOM     18  C   UNL     1       2.822   1.892  18.750  0.00  0.00    +0.000 C 
ATOM     19  C   UNL     1       1.462   2.419  18.305  0.00  0.00    +0.000 C 
ATOM     20  C   UNL     1       0.495   2.682  19.458  0.00  0.00    +0.000 C 
ATOM     21  C   UNL     1       1.014   3.638  20.533  0.00  0.00    +0.000 C 
ATOM     22  C   UNL     1       2.180   3.061  21.337  0.00  0.00    +0.000 C 
ATOM     23  C   UNL     1       3.550   3.302  20.701  0.00  0.00    +0.000 C 
ENDBRANCH  14  15
ENDBRANCH  13  14
ENDBRANCH   1  13
TORSDOF 7
ENDMDL
MODEL 5
REMARK VINA RESULT:      -7.3      2.546      3.098
REMARK  Name = 
REMARK  7 active torsions:
REMARK  status: ('A' for Active; 'I' for Inactive)
REMARK    1  A    between atoms: C_2  and  C_3
REMARK    2  A    between atoms: C_3  and  C_4
REMARK    3  A    between atoms: C_4  and  O_6
REMARK    4  A    between atoms: O_6  and  C_7
REMARK    5  A    between atoms: C_7  and  C_8
REMARK    6  A    between atoms: N_17  and  C_18
REMARK    7  A    between atoms: C_18  and  C_19
REMARK                            x       y       z     vdW  Elec       q    Type
REMARK                         _______ _______ _______ _____ _____    ______ ____
ROOT
ATOM      1  C   UNL     1       7.351   5.643  18.119  0.00  0.00    +0.000 C 
ATOM      2  O   UNL     1       7.974   6.270  18.965  0.00  0.00    +0.000 OA
ENDROOT
BRANCH   1   3
ATOM      3  C   UNL     1       7.135   6.107  16.710  0.00  0.00    +0.000 C 
BRANCH   3   5
ATOM      4  O   UNL     1       5.242   6.604  15.301  0.00  0.00    +0.000 OA
ATOM      5  C   UNL     1       5.742   6.591  16.419  0.00  0.00    +0.000 C 
ATOM      6  N   UNL     1       5.034   6.956  17.549  0.00  0.00    +0.000 N 
ATOM      7  H   UNL     1       5.529   7.067  18.426  0.00  0.00    +0.000 HD
BRANCH   6   8
ATOM      8  C   UNL     1       3.671   7.488  17.450  0.00  0.00    +0.000 C 
BRANCH   8   9
ATOM      9  C   UNL     1       2.628   6.873  18.397  0.00  0.00    +0.000 C 
ATOM     10  F   UNL     1       1.914   5.887  17.810  0.00  0.00    +0.000 F 
ATOM     11  F   UNL     1       3.197   6.373  19.514  0.00  0.00    +0.000 F 
ATOM     12  F   UNL     1       1.742   7.822  18.788  0.00  0.00    +0.000 F 
ENDBRANCH   8   9
ENDBRANCH   6   8
ENDBRANCH   3   5
ENDBRANCH   1   3
BRANCH   1  13
ATOM     13  O   UNL     1       6.906   4.363  18.267  0.00  0.00    +0.000 OA
BRANCH  13  14
ATOM     14  C   UNL     1       5.795   4.233  19.163  0.00  0.00    +0.000 C 
BRANCH  14  15
ATOM     15  C   UNL     1       4.600   3.575  18.450  0.00  0.00    +0.000 C 
ATOM     16  O   UNL     1       4.465   3.678  17.226  0.00  0.00    +0.000 OA
ATOM     17  N   UNL     1       3.687   2.863  19.228  0.00  0.00    +0.000 N 
ATOM     18  C   UNL     1       2.673   2.074  18.529  0.00  0.00    +0.000 C 
ATOM     19  C   UNL     1       1.382   2.862  18.332  0.00  0.00    +0.000 C 
ATOM     20  C   UNL     1       0.521   2.960  19.590  0.00  0.00    +0.000 C 
ATOM     21  C   UNL     1       1.224   3.554  20.811  0.00  0.00    +0.000 C 
ATOM     22  C   UNL     1       2.333   2.656  21.361  0.00  0.00    +0.000 C 
ATOM     23  C   UNL     1       3.691   2.867  20.688  0.00  0.00    +0.000 C 
ENDBRANCH  14  15
ENDBRANCH  13  14
ENDBRANCH   1  13
TORSDOF 7
ENDMDL
MODEL 6
REMARK VINA RESULT:      -7.3      1.940      2.649
REMARK  Name = 
REMARK  7 active torsions:
REMARK  status: ('A' for Active; 'I' for Inactive)
REMARK    1  A    between atoms: C_2  and  C_3
REMARK    2  A    between atoms: C_3  and  C_4
REMARK    3  A    between atoms: C_4  and  O_6
REMARK    4  A    between atoms: O_6  and  C_7
REMARK    5  A    between atoms: C_7  and  C_8
REMARK    6  A    between atoms: N_17  and  C_18
REMARK    7  A    between atoms: C_18  and  C_19
REMARK                            x       y       z     vdW  Elec       q    Type
REMARK                         _______ _______ _______ _____ _____    ______ ____
ROOT
ATOM      1  C   UNL     1       6.737   4.630  16.997  0.00  0.00    +0.000 C 
ATOM      2  O   UNL     1       7.823   4.379  17.500  0.00  0.00    +0.000 OA
ENDROOT
BRANCH   1   3
ATOM      3  C   UNL     1       6.529   5.595  15.867  0.00  0.00    +0.000 C 
BRANCH   3   5
ATOM      4  O   UNL     1       7.947   5.455  13.921  0.00  0.00    +0.000 OA
ATOM      5  C   UNL     1       6.946   5.078  14.519  0.00  0.00    +0.000 C 
ATOM      6  N   UNL     1       6.132   4.071  14.036  0.00  0.00    +0.000 N 
ATOM      7  H   UNL     1       5.243   3.895  14.489  0.00  0.00    +0.000 HD
BRANCH   6   8
ATOM      8  C   UNL     1       6.367   3.474  12.717  0.00  0.00    +0.000 C 
BRANCH   8   9
ATOM      9  C   UNL     1       5.117   3.141  11.886  0.00  0.00    +0.000 C 
ATOM     10  F   UNL     1       5.191   1.921  11.309  0.00  0.00    +0.000 F 
ATOM     11  F   UNL     1       3.992   3.187  12.631  0.00  0.00    +0.000 F 
ATOM     12  F   UNL     1       4.974   4.043  10.885  0.00  0.00    +0.000 F 
ENDBRANCH   8   9
ENDBRANCH   6   8
ENDBRANCH   3   5
ENDBRANCH   1   3
BRANCH   1  13
ATOM     13  O   UNL     1       5.579   3.960  17.261  0.00  0.00    +0.000 OA
BRANCH  13  14
ATOM     14  C   UNL     1       4.402   4.771  17.168  0.00  0.00    +0.000 C 
BRANCH  14  15
ATOM     15  C   UNL     1       3.837   5.067  18.569  0.00  0.00    +0.000 C 
ATOM     16  O   UNL     1       4.507   5.695  19.396  0.00  0.00    +0.000 OA
ATOM     17  N   UNL     1       2.554   4.606  18.866  0.00  0.00    +0.000 N 
ATOM     18  C   UNL     1       1.946   5.060  20.115  0.00  0.00    +0.000 C 
ATOM     19  C   UNL     1       2.199   4.079  21.255  0.00  0.00    +0.000 C 
ATOM     20  C   UNL     1       1.313   2.836  21.208  0.00  0.00    +0.000 C 
ATOM     21  C   UNL     1       1.388   2.036  19.907  0.00  0.00    +0.000 C 
ATOM     22  C   UNL     1       0.801   2.783  18.709  0.00  0.00    +0.000 C 
ATOM     23  C   UNL     1       1.798   3.703  18.002  0.00  0.00    +0.000 C 
ENDBRANCH  14  15
ENDBRANCH  13  14
ENDBRANCH   1  13
TORSDOF 7
ENDMDL
MODEL 7
REMARK VINA RESULT:      -7.2      1.950      2.592
REMARK  Name = 
REMARK  7 active torsions:
REMARK  status: ('A' for Active; 'I' for Inactive)
REMARK    1  A    between atoms: C_2  and  C_3
REMARK    2  A    between atoms: C_3  and  C_4
REMARK    3  A    between atoms: C_4  and  O_6
REMARK    4  A    between atoms: O_6  and  C_7
REMARK    5  A    between atoms: C_7  and  C_8
REMARK    6  A    between atoms: N_17  and  C_18
REMARK    7  A    between atoms: C_18  and  C_19
REMARK                            x       y       z     vdW  Elec       q    Type
REMARK                         _______ _______ _______ _____ _____    ______ ____
ROOT
ATOM      1  C   UNL     1       6.360   6.035  16.201  0.00  0.00    +0.000 C 
ATOM      2  O   UNL     1       6.723   7.000  16.858  0.00  0.00    +0.000 OA
ENDROOT
BRANCH   1   3
ATOM      3  C   UNL     1       7.275   4.954  15.706  0.00  0.00    +0.000 C 
BRANCH   3   5
ATOM      4  O   UNL     1       8.081   5.454  13.489  0.00  0.00    +0.000 OA
ATOM      5  C   UNL     1       7.326   4.815  14.210  0.00  0.00    +0.000 C 
ATOM      6  N   UNL     1       6.485   3.835  13.716  0.00  0.00    +0.000 N 
ATOM      7  H   UNL     1       5.780   3.437  14.324  0.00  0.00    +0.000 HD
BRANCH   6   8
ATOM      8  C   UNL     1       6.376   3.587  12.274  0.00  0.00    +0.000 C 
BRANCH   8   9
ATOM      9  C   UNL     1       4.997   3.146  11.761  0.00  0.00    +0.000 C 
ATOM     10  F   UNL     1       4.996   1.871  11.312  0.00  0.00    +0.000 F 
ATOM     11  F   UNL     1       4.046   3.257  12.713  0.00  0.00    +0.000 F 
ATOM     12  F   UNL     1       4.617   3.930  10.722  0.00  0.00    +0.000 F 
ENDBRANCH   8   9
ENDBRANCH   6   8
ENDBRANCH   3   5
ENDBRANCH   1   3
BRANCH   1  13
ATOM     13  O   UNL     1       5.061   5.698  15.959  0.00  0.00    +0.000 OA
BRANCH  13  14
ATOM     14  C   UNL     1       4.222   5.743  17.119  0.00  0.00    +0.000 C 
BRANCH  14  15
ATOM     15  C   UNL     1       4.055   4.336  17.720  0.00  0.00    +0.000 C 
ATOM     16  O   UNL     1       4.319   3.332  17.048  0.00  0.00    +0.000 OA
ATOM     17  N   UNL     1       3.603   4.236  19.035  0.00  0.00    +0.000 N 
ATOM     18  C   UNL     1       3.639   2.918  19.665  0.00  0.00    +0.000 C 
ATOM     19  C   UNL     1       2.313   2.180  19.507  0.00  0.00    +0.000 C 
ATOM     20  C   UNL     1       1.220   2.666  20.456  0.00  0.00    +0.000 C 
ATOM     21  C   UNL     1       0.910   4.162  20.375  0.00  0.00    +0.000 C 
ATOM     22  C   UNL     1       2.057   5.040  20.877  0.00  0.00    +0.000 C 
ATOM     23  C   UNL     1       3.099   5.370  19.806  0.00  0.00    +0.000 C 
ENDBRANCH  14  15
ENDBRANCH  13  14
ENDBRANCH   1  13
TORSDOF 7
ENDMDL
MODEL 8
REMARK VINA RESULT:      -7.1      1.450      1.776
REMARK  Name = 
REMARK  7 active torsions:
REMARK  status: ('A' for Active; 'I' for Inactive)
REMARK    1  A    between atoms: C_2  and  C_3
REMARK    2  A    between atoms: C_3  and  C_4
REMARK    3  A    between atoms: C_4  and  O_6
REMARK    4  A    between atoms: O_6  and  C_7
REMARK    5  A    between atoms: C_7  and  C_8
REMARK    6  A    between atoms: N_17  and  C_18
REMARK    7  A    between atoms: C_18  and  C_19
REMARK                            x       y       z     vdW  Elec       q    Type
REMARK                         _______ _______ _______ _____ _____    ______ ____
ROOT
ATOM      1  C   UNL     1       6.704   6.379  17.768  0.00  0.00    +0.000 C 
ATOM      2  O   UNL     1       7.731   6.595  18.396  0.00  0.00    +0.000 OA
ENDROOT
BRANCH   1   3
ATOM      3  C   UNL     1       6.612   6.372  16.271  0.00  0.00    +0.000 C 
BRANCH   3   5
ATOM      4  O   UNL     1       7.796   4.285  16.029  0.00  0.00    +0.000 OA
ATOM      5  C   UNL     1       6.924   5.048  15.632  0.00  0.00    +0.000 C 
ATOM      6  N   UNL     1       6.079   4.724  14.587  0.00  0.00    +0.000 N 
ATOM      7  H   UNL     1       5.474   5.439  14.202  0.00  0.00    +0.000 HD
BRANCH   6   8
ATOM      8  C   UNL     1       6.260   3.485  13.823  0.00  0.00    +0.000 C 
BRANCH   8   9
ATOM      9  C   UNL     1       6.403   3.638  12.300  0.00  0.00    +0.000 C 
ATOM     10  F   UNL     1       5.214   3.823  11.685  0.00  0.00    +0.000 F 
ATOM     11  F   UNL     1       7.211   4.668  11.972  0.00  0.00    +0.000 F 
ATOM     12  F   UNL     1       6.950   2.515  11.772  0.00  0.00    +0.000 F 
ENDBRANCH   8   9
ENDBRANCH   6   8
ENDBRANCH   3   5
ENDBRANCH   1   3
BRANCH   1  13
ATOM     13  O   UNL     1       5.531   5.948  18.313  0.00  0.00    +0.000 OA
BRANCH  13  14
ATOM     14  C   UNL     1       5.580   4.608  18.815  0.00  0.00    +0.000 C 
BRANCH  14  15
ATOM     15  C   UNL     1       4.437   3.765  18.219  0.00  0.00    +0.000 C 
ATOM     16  O   UNL     1       4.224   3.770  17.001  0.00  0.00    +0.000 OA
ATOM     17  N   UNL     1       3.663   3.003  19.094  0.00  0.00    +0.000 N 
ATOM     18  C   UNL     1       2.717   2.054  18.508  0.00  0.00    +0.000 C 
ATOM     19  C   UNL     1       1.330   2.668  18.345  0.00  0.00    +0.000 C 
ATOM     20  C   UNL     1       0.534   2.746  19.646  0.00  0.00    +0.000 C 
ATOM     21  C   UNL     1       1.225   3.500  20.784  0.00  0.00    +0.000 C 
ATOM     22  C   UNL     1       2.464   2.779  21.316  0.00  0.00    +0.000 C 
ATOM     23  C   UNL     1       3.747   3.105  20.548  0.00  0.00    +0.000 C 
ENDBRANCH  14  15
ENDBRANCH  13  14
ENDBRANCH   1  13
TORSDOF 7
ENDMDL
MODEL 9
REMARK VINA RESULT:      -7.1      1.175      1.329
REMARK  Name = 
REMARK  7 active torsions:
REMARK  status: ('A' for Active; 'I' for Inactive)
REMARK    1  A    between atoms: C_2  and  C_3
REMARK    2  A    between atoms: C_3  and  C_4
REMARK    3  A    between atoms: C_4  and  O_6
REMARK    4  A    between atoms: O_6  and  C_7
REMARK    5  A    between atoms: C_7  and  C_8
REMARK    6  A    between atoms: N_17  and  C_18
REMARK    7  A    between atoms: C_18  and  C_19
REMARK                            x       y       z     vdW  Elec       q    Type
REMARK                         _______ _______ _______ _____ _____    ______ ____
ROOT
ATOM      1  C   UNL     1       7.310   5.650  17.811  0.00  0.00    +0.000 C 
ATOM      2  O   UNL     1       7.844   6.176  18.777  0.00  0.00    +0.000 OA
ENDROOT
BRANCH   1   3
ATOM      3  C   UNL     1       7.389   6.175  16.408  0.00  0.00    +0.000 C 
BRANCH   3   5
ATOM      4  O   UNL     1       5.281   6.187  15.237  0.00  0.00    +0.000 OA
ATOM      5  C   UNL     1       6.345   5.628  15.477  0.00  0.00    +0.000 C 
ATOM      6  N   UNL     1       6.723   4.458  14.845  0.00  0.00    +0.000 N 
ATOM      7  H   UNL     1       7.539   3.959  15.179  0.00  0.00    +0.000 HD
BRANCH   6   8
ATOM      8  C   UNL     1       5.812   3.763  13.929  0.00  0.00    +0.000 C 
BRANCH   8   9
ATOM      9  C   UNL     1       6.274   3.644  12.468  0.00  0.00    +0.000 C 
ATOM     10  F   UNL     1       7.197   4.575  12.140  0.00  0.00    +0.000 F 
ATOM     11  F   UNL     1       6.792   2.427  12.202  0.00  0.00    +0.000 F 
ATOM     12  F   UNL     1       5.219   3.823  11.634  0.00  0.00    +0.000 F 
ENDBRANCH   8   9
ENDBRANCH   6   8
ENDBRANCH   3   5
ENDBRANCH   1   3
BRANCH   1  13
ATOM     13  O   UNL     1       6.707   4.427  17.822  0.00  0.00    +0.000 OA
BRANCH  13  14
ATOM     14  C   UNL     1       5.679   4.294  18.810  0.00  0.00    +0.000 C 
BRANCH  14  15
ATOM     15  C   UNL     1       4.456   3.564  18.224  0.00  0.00    +0.000 C 
ATOM     16  O   UNL     1       4.227   3.602  17.009  0.00  0.00    +0.000 OA
ATOM     17  N   UNL     1       3.629   2.866  19.102  0.00  0.00    +0.000 N 
ATOM     18  C   UNL     1       2.594   2.012  18.522  0.00  0.00    +0.000 C 
ATOM     19  C   UNL     1       1.265   2.750  18.387  0.00  0.00    +0.000 C 
ATOM     20  C   UNL     1       0.498   2.885  19.701  0.00  0.00    +0.000 C 
ATOM     21  C   UNL     1       1.270   3.561  20.835  0.00  0.00    +0.000 C 
ATOM     22  C   UNL     1       2.447   2.726  21.341  0.00  0.00    +0.000 C 
ATOM     23  C   UNL     1       3.743   2.943  20.556  0.00  0.00    +0.000 C 
ENDBRANCH  14  15
ENDBRANCH  13  14
ENDBRANCH   1  13
TORSDOF 7
ENDMDL
