MODEL 1
REMARK VINA RESULT:      -8.1      0.000      0.000
REMARK  Name = 
REMARK  10 active torsions:
REMARK  status: ('A' for Active; 'I' for Inactive)
REMARK    1  A    between atoms: C_1  and  O_2
REMARK    2  A    between atoms: O_2  and  C_3
REMARK    3  A    between atoms: C_3  and  C_5
REMARK    4  A    between atoms: C_8  and  C_9
REMARK    5  A    between atoms: C_10  and  C_11
REMARK    6  A    between atoms: C_11  and  C_13
REMARK    7  A    between atoms: C_19  and  O_20
REMARK    8  A    between atoms: N_23  and  C_24
REMARK    9  A    between atoms: C_24  and  C_25
REMARK   10  A    between atoms: C_25  and  C_26
REMARK                            x       y       z     vdW  Elec       q    Type
REMARK                         _______ _______ _______ _____ _____    ______ ____
ROOT
ATOM      1  C   UNL     1       5.174   5.300  18.422  0.00  0.00    +0.000 C 
ATOM      2  C   UNL     1       4.791   4.072  17.655  0.00  0.00    +0.000 C 
ATOM      3  C   UNL     1       5.671   3.800  16.677  0.00  0.00    +0.000 C 
ATOM      4  C   UNL     1       6.746   4.812  16.756  0.00  0.00    +0.000 C 
ATOM      5  O   UNL     1       7.796   4.767  16.123  0.00  0.00    +0.000 OA
ATOM      6  N   UNL     1       6.350   5.755  17.687  0.00  0.00    +0.000 N 
ENDROOT
BRANCH   1  10
ATOM      7  C   UNL     1       2.120   8.370  18.641  0.00  0.00    +0.000 A 
ATOM      8  C   UNL     1       2.296   7.467  19.696  0.00  0.00    +0.000 A 
ATOM      9  C   UNL     1       3.285   6.481  19.622  0.00  0.00    +0.000 A 
ATOM     10  C   UNL     1       4.121   6.388  18.496  0.00  0.00    +0.000 A 
ATOM     11  C   UNL     1       3.958   7.325  17.462  0.00  0.00    +0.000 A 
ATOM     12  C   UNL     1       2.945   8.285  17.520  0.00  0.00    +0.000 A 
BRANCH   7  13
ATOM     13  C   UNL     1       1.031   9.376  18.729  0.00  0.00    +0.000 C 
ATOM     14  O   UNL     1       0.286   9.638  17.801  0.00  0.00    +0.000 OA
BRANCH  13  16
ATOM     15  C   UNL     1      -0.207   9.759  20.664  0.00  0.00    +0.000 C 
ATOM     16  O   UNL     1       1.022   9.964  19.954  0.00  0.00    +0.000 OA
ENDBRANCH  13  16
ENDBRANCH   7  13
ENDBRANCH   1  10
BRANCH   2  17
ATOM     17  C   UNL     1       3.560   3.254  17.752  0.00  0.00    +0.000 C 
ATOM     18  O   UNL     1       3.169   2.666  16.738  0.00  0.00    +0.000 OA
BRANCH  17  19
ATOM     19  C   UNL     1       2.770   3.092  19.020  0.00  0.00    +0.000 A 
ATOM     20  C   UNL     1       1.412   3.363  18.974  0.00  0.00    +0.000 A 
ATOM     21  C   UNL     1       0.655   3.214  20.127  0.00  0.00    +0.000 A 
ATOM     22  C   UNL     1       1.293   2.786  21.288  0.00  0.00    +0.000 A 
ATOM     23  C   UNL     1       2.658   2.533  21.240  0.00  0.00    +0.000 A 
ATOM     24  N   UNL     1       3.424   2.657  20.128  0.00  0.00    +0.000 NA
ENDBRANCH  17  19
ENDBRANCH   2  17
BRANCH   3  25
ATOM     25  O   UNL     1       5.617   2.806  15.737  0.00  0.00    +0.000 OA
ATOM     26  H   UNL     1       6.100   3.130  14.950  0.00  0.00    +0.000 HD
ENDBRANCH   3  25
BRANCH   6  27
ATOM     27  C   UNL     1       7.270   6.747  18.224  0.00  0.00    +0.000 C 
BRANCH  27  28
ATOM     28  C   UNL     1       7.335   8.102  17.522  0.00  0.00    +0.000 C 
BRANCH  28  29
ATOM     29  C   UNL     1       8.206   9.183  18.085  0.00  0.00    +0.000 A 
ATOM     30  C   UNL     1       9.263   8.901  18.936  0.00  0.00    +0.000 A 
ATOM     31  N   UNL     1       9.304   9.981  19.765  0.00  0.00    +0.000 N 
ATOM     32  C   UNL     1       9.032  11.090  19.012  0.00  0.00    +0.000 A 
ATOM     33  C   UNL     1       9.398  12.425  19.206  0.00  0.00    +0.000 A 
ATOM     34  C   UNL     1       8.944  13.340  18.261  0.00  0.00    +0.000 A 
ATOM     35  C   UNL     1       8.058  12.942  17.259  0.00  0.00    +0.000 A 
ATOM     36  C   UNL     1       7.637  11.600  17.135  0.00  0.00    +0.000 A 
ATOM     37  C   UNL     1       8.212  10.625  17.974  0.00  0.00    +0.000 A 
ATOM     38  H   UNL     1       9.426   9.956  20.767  0.00  0.00    +0.000 HD
ENDBRANCH  28  29
ENDBRANCH  27  28
ENDBRANCH   6  27
TORSDOF 9
ENDMDL
MODEL 2
REMARK VINA RESULT:      -8.0      0.426      1.082
REMARK  Name = 
REMARK  10 active torsions:
REMARK  status: ('A' for Active; 'I' for Inactive)
REMARK    1  A    between atoms: C_1  and  O_2
REMARK    2  A    between atoms: O_2  and  C_3
REMARK    3  A    between atoms: C_3  and  C_5
REMARK    4  A    between atoms: C_8  and  C_9
REMARK    5  A    between atoms: C_10  and  C_11
REMARK    6  A    between atoms: C_11  and  C_13
REMARK    7  A    between atoms: C_19  and  O_20
REMARK    8  A    between atoms: N_23  and  C_24
REMARK    9  A    between atoms: C_24  and  C_25
REMARK   10  A    between atoms: C_25  and  C_26
REMARK                            x       y       z     vdW  Elec       q    Type
REMARK                         _______ _______ _______ _____ _____    ______ ____
ROOT
ATOM      1  C   UNL     1       5.109   5.405  18.422  0.00  0.00    +0.000 C 
ATOM      2  C   UNL     1       4.751   4.183  17.633  0.00  0.00    +0.000 C 
ATOM      3  C   UNL     1       5.644   3.939  16.659  0.00  0.00    +0.000 C 
ATOM      4  C   UNL     1       6.703   4.966  16.763  0.00  0.00    +0.000 C 
ATOM      5  O   UNL     1       7.759   4.946  16.138  0.00  0.00    +0.000 OA
ATOM      6  N   UNL     1       6.284   5.889  17.704  0.00  0.00    +0.000 N 
ENDROOT
BRANCH   1  10
ATOM      7  C   UNL     1       2.090   8.509  18.644  0.00  0.00    +0.000 A 
ATOM      8  C   UNL     1       2.937   8.421  17.533  0.00  0.00    +0.000 A 
ATOM      9  C   UNL     1       3.906   7.415  17.465  0.00  0.00    +0.000 A 
ATOM     10  C   UNL     1       4.039   6.476  18.502  0.00  0.00    +0.000 A 
ATOM     11  C   UNL     1       3.157   6.554  19.592  0.00  0.00    +0.000 A 
ATOM     12  C   UNL     1       2.215   7.580  19.678  0.00  0.00    +0.000 A 
BRANCH   7  13
ATOM     13  C   UNL     1       1.101   9.615  18.709  0.00  0.00    +0.000 C 
ATOM     14  O   UNL     1       1.112  10.472  19.576  0.00  0.00    +0.000 OA
BRANCH  13  16
ATOM     15  C   UNL     1      -1.070  10.102  18.024  0.00  0.00    +0.000 C 
ATOM     16  O   UNL     1       0.192   9.503  17.705  0.00  0.00    +0.000 OA
ENDBRANCH  13  16
ENDBRANCH   7  13
ENDBRANCH   1  10
BRANCH   2  17
ATOM     17  C   UNL     1       3.533   3.345  17.707  0.00  0.00    +0.000 C 
ATOM     18  O   UNL     1       3.149   2.781  16.678  0.00  0.00    +0.000 OA
BRANCH  17  19
ATOM     19  C   UNL     1       2.746   3.135  18.971  0.00  0.00    +0.000 A 
ATOM     20  C   UNL     1       1.390   3.416  18.942  0.00  0.00    +0.000 A 
ATOM     21  C   UNL     1       0.636   3.224  20.090  0.00  0.00    +0.000 A 
ATOM     22  C   UNL     1       1.276   2.744  21.230  0.00  0.00    +0.000 A 
ATOM     23  C   UNL     1       2.639   2.486  21.167  0.00  0.00    +0.000 A 
ATOM     24  N   UNL     1       3.401   2.651  20.057  0.00  0.00    +0.000 NA
ENDBRANCH  17  19
ENDBRANCH   2  17
BRANCH   3  25
ATOM     25  O   UNL     1       5.613   2.958  15.705  0.00  0.00    +0.000 OA
ATOM     26  H   UNL     1       5.241   2.159  16.128  0.00  0.00    +0.000 HD
ENDBRANCH   3  25
BRANCH   6  27
ATOM     27  C   UNL     1       7.184   6.887  18.264  0.00  0.00    +0.000 C 
BRANCH  27  28
ATOM     28  C   UNL     1       7.334   8.205  17.506  0.00  0.00    +0.000 C 
BRANCH  28  29
ATOM     29  C   UNL     1       8.198   9.288  18.076  0.00  0.00    +0.000 A 
ATOM     30  C   UNL     1       9.240   9.010  18.946  0.00  0.00    +0.000 A 
ATOM     31  N   UNL     1       9.269  10.095  19.769  0.00  0.00    +0.000 N 
ATOM     32  C   UNL     1       9.011  11.200  19.005  0.00  0.00    +0.000 A 
ATOM     33  C   UNL     1       9.377  12.535  19.196  0.00  0.00    +0.000 A 
ATOM     34  C   UNL     1       8.939  13.445  18.238  0.00  0.00    +0.000 A 
ATOM     35  C   UNL     1       8.069  13.042  17.224  0.00  0.00    +0.000 A 
ATOM     36  C   UNL     1       7.648  11.700  17.102  0.00  0.00    +0.000 A 
ATOM     37  C   UNL     1       8.208  10.729  17.957  0.00  0.00    +0.000 A 
ATOM     38  H   UNL     1       9.376  10.076  20.773  0.00  0.00    +0.000 HD
ENDBRANCH  28  29
ENDBRANCH  27  28
ENDBRANCH   6  27
TORSDOF 9
ENDMDL
MODEL 3
REMARK VINA RESULT:      -8.0      4.974      9.858
REMARK  Name = 
REMARK  10 active torsions:
REMARK  status: ('A' for Active; 'I' for Inactive)
REMARK    1  A    between atoms: C_1  and  O_2
REMARK    2  A    between atoms: O_2  and  C_3
REMARK    3  A    between atoms: C_3  and  C_5
REMARK    4  A    between atoms: C_8  and  C_9
REMARK    5  A    between atoms: C_10  and  C_11
REMARK    6  A    between atoms: C_11  and  C_13
REMARK    7  A    between atoms: C_19  and  O_20
REMARK    8  A    between atoms: N_23  and  C_24
REMARK    9  A    between atoms: C_24  and  C_25
REMARK   10  A    between atoms: C_25  and  C_26
REMARK                            x       y       z     vdW  Elec       q    Type
REMARK                         _______ _______ _______ _____ _____    ______ ____
ROOT
ATOM      1  C   UNL     1      -0.588  11.459  20.619  0.00  0.00    +0.000 C 
ATOM      2  C   UNL     1      -0.077  10.451  21.603  0.00  0.00    +0.000 C 
ATOM      3  C   UNL     1      -0.755  10.497  22.761  0.00  0.00    +0.000 C 
ATOM      4  C   UNL     1      -1.815  11.518  22.613  0.00  0.00    +0.000 C 
ATOM      5  O   UNL     1      -2.724  11.703  23.416  0.00  0.00    +0.000 OA
ATOM      6  N   UNL     1      -1.596  12.160  21.408  0.00  0.00    +0.000 N 
ENDROOT
BRANCH   1  10
ATOM      7  C   UNL     1       2.375  14.177  18.997  0.00  0.00    +0.000 A 
ATOM      8  C   UNL     1       1.369  13.652  18.177  0.00  0.00    +0.000 A 
ATOM      9  C   UNL     1       0.413  12.779  18.706  0.00  0.00    +0.000 A 
ATOM     10  C   UNL     1       0.442  12.423  20.066  0.00  0.00    +0.000 A 
ATOM     11  C   UNL     1       1.435  12.988  20.884  0.00  0.00    +0.000 A 
ATOM     12  C   UNL     1       2.411  13.829  20.348  0.00  0.00    +0.000 A 
BRANCH   7  13
ATOM     13  C   UNL     1       3.403  15.065  18.396  0.00  0.00    +0.000 C 
ATOM     14  O   UNL     1       3.145  15.918  17.566  0.00  0.00    +0.000 OA
BRANCH  13  16
ATOM     15  C   UNL     1       5.661  14.843  17.876  0.00  0.00    +0.000 C 
ATOM     16  O   UNL     1       4.637  14.761  18.876  0.00  0.00    +0.000 OA
ENDBRANCH  13  16
ENDBRANCH   7  13
ENDBRANCH   1  10
BRANCH   2  17
ATOM     17  C   UNL     1       1.103   9.562  21.504  0.00  0.00    +0.000 C 
ATOM     18  O   UNL     1       1.807   9.413  22.508  0.00  0.00    +0.000 OA
BRANCH  17  19
ATOM     19  C   UNL     1       1.483   8.824  20.252  0.00  0.00    +0.000 A 
ATOM     20  C   UNL     1       1.305   9.473  19.040  0.00  0.00    +0.000 A 
ATOM     21  C   UNL     1       1.655   8.820  17.867  0.00  0.00    +0.000 A 
ATOM     22  C   UNL     1       2.183   7.535  17.956  0.00  0.00    +0.000 A 
ATOM     23  C   UNL     1       2.330   6.964  19.213  0.00  0.00    +0.000 A 
ATOM     24  N   UNL     1       2.010   7.579  20.379  0.00  0.00    +0.000 NA
ENDBRANCH  17  19
ENDBRANCH   2  17
BRANCH   3  25
ATOM     25  O   UNL     1      -0.532   9.780  23.906  0.00  0.00    +0.000 OA
ATOM     26  H   UNL     1       0.437   9.749  24.039  0.00  0.00    +0.000 HD
ENDBRANCH   3  25
BRANCH   6  27
ATOM     27  C   UNL     1      -2.592  13.033  20.803  0.00  0.00    +0.000 C 
BRANCH  27  28
ATOM     28  C   UNL     1      -3.912  12.399  20.367  0.00  0.00    +0.000 C 
BRANCH  28  29
ATOM     29  C   UNL     1      -4.131  12.075  18.921  0.00  0.00    +0.000 A 
ATOM     30  C   UNL     1      -5.176  12.628  18.198  0.00  0.00    +0.000 A 
ATOM     31  N   UNL     1      -5.510  11.646  17.315  0.00  0.00    +0.000 N 
ATOM     32  C   UNL     1      -4.350  11.052  16.900  0.00  0.00    +0.000 A 
ATOM     33  C   UNL     1      -4.058  10.372  15.714  0.00  0.00    +0.000 A 
ATOM     34  C   UNL     1      -2.772   9.854  15.593  0.00  0.00    +0.000 A 
ATOM     35  C   UNL     1      -1.883   9.906  16.668  0.00  0.00    +0.000 A 
ATOM     36  C   UNL     1      -2.234  10.526  17.887  0.00  0.00    +0.000 A 
ATOM     37  C   UNL     1      -3.466  11.204  17.977  0.00  0.00    +0.000 A 
ATOM     38  H   UNL     1      -6.447  11.355  17.077  0.00  0.00    +0.000 HD
ENDBRANCH  28  29
ENDBRANCH  27  28
ENDBRANCH   6  27
TORSDOF 9
ENDMDL
MODEL 4
REMARK VINA RESULT:      -8.0      5.697      9.761
REMARK  Name = 
REMARK  10 active torsions:
REMARK  status: ('A' for Active; 'I' for Inactive)
REMARK    1  A    between atoms: C_1  and  O_2
REMARK    2  A    between atoms: O_2  and  C_3
REMARK    3  A    between atoms: C_3  and  C_5
REMARK    4  A    between atoms: C_8  and  C_9
REMARK    5  A    between atoms: C_10  and  C_11
REMARK    6  A    between atoms: C_11  and  C_13
REMARK    7  A    between atoms: C_19  and  O_20
REMARK    8  A    between atoms: N_23  and  C_24
REMARK    9  A    between atoms: C_24  and  C_25
REMARK   10  A    between atoms: C_25  and  C_26
REMARK                            x       y       z     vdW  Elec       q    Type
REMARK                         _______ _______ _______ _____ _____    ______ ____
ROOT
ATOM      1  C   UNL     1       0.894  12.451  20.786  0.00  0.00    +0.000 C 
ATOM      2  C   UNL     1       1.157  11.859  19.435  0.00  0.00    +0.000 C 
ATOM      3  C   UNL     1       1.865  12.693  18.654  0.00  0.00    +0.000 C 
ATOM      4  C   UNL     1       2.172  13.896  19.458  0.00  0.00    +0.000 C 
ATOM      5  O   UNL     1       2.944  14.787  19.115  0.00  0.00    +0.000 OA
ATOM      6  N   UNL     1       1.467  13.785  20.643  0.00  0.00    +0.000 N 
ENDROOT
BRANCH   1  10
ATOM      7  C   UNL     1      -3.268  12.718  21.972  0.00  0.00    +0.000 A 
ATOM      8  C   UNL     1      -2.843  13.248  20.747  0.00  0.00    +0.000 A 
ATOM      9  C   UNL     1      -1.500  13.155  20.368  0.00  0.00    +0.000 A 
ATOM     10  C   UNL     1      -0.562  12.524  21.203  0.00  0.00    +0.000 A 
ATOM     11  C   UNL     1      -1.010  11.964  22.410  0.00  0.00    +0.000 A 
ATOM     12  C   UNL     1      -2.343  12.089  22.806  0.00  0.00    +0.000 A 
BRANCH   7  13
ATOM     13  C   UNL     1      -4.691  12.872  22.367  0.00  0.00    +0.000 C 
ATOM     14  O   UNL     1      -5.524  13.418  21.665  0.00  0.00    +0.000 OA
BRANCH  13  16
ATOM     15  C   UNL     1      -6.174  12.723  24.156  0.00  0.00    +0.000 C 
ATOM     16  O   UNL     1      -4.901  12.360  23.608  0.00  0.00    +0.000 OA
ENDBRANCH  13  16
ENDBRANCH   7  13
ENDBRANCH   1  10
BRANCH   2  17
ATOM     17  C   UNL     1       0.642  10.600  18.848  0.00  0.00    +0.000 C 
ATOM     18  O   UNL     1      -0.386  10.652  18.166  0.00  0.00    +0.000 OA
BRANCH  17  19
ATOM     19  C   UNL     1       1.312   9.267  19.029  0.00  0.00    +0.000 A 
ATOM     20  C   UNL     1       1.966   8.719  17.938  0.00  0.00    +0.000 A 
ATOM     21  C   UNL     1       2.601   7.494  18.077  0.00  0.00    +0.000 A 
ATOM     22  C   UNL     1       2.563   6.865  19.319  0.00  0.00    +0.000 A 
ATOM     23  C   UNL     1       1.887   7.490  20.358  0.00  0.00    +0.000 A 
ATOM     24  N   UNL     1       1.267   8.692  20.259  0.00  0.00    +0.000 NA
ENDBRANCH  17  19
ENDBRANCH   2  17
BRANCH   3  25
ATOM     25  O   UNL     1       2.233  12.525  17.347  0.00  0.00    +0.000 OA
ATOM     26  H   UNL     1       3.194  12.342  17.341  0.00  0.00    +0.000 HD
ENDBRANCH   3  25
BRANCH   6  27
ATOM     27  C   UNL     1       1.735  14.646  21.786  0.00  0.00    +0.000 C 
BRANCH  27  28
ATOM     28  C   UNL     1       1.075  16.024  21.800  0.00  0.00    +0.000 C 
BRANCH  28  29
ATOM     29  C   UNL     1      -0.408  16.129  21.993  0.00  0.00    +0.000 A 
ATOM     30  C   UNL     1      -1.243  16.601  20.993  0.00  0.00    +0.000 A 
ATOM     31  N   UNL     1      -2.235  17.235  21.677  0.00  0.00    +0.000 N 
ATOM     32  C   UNL     1      -2.506  16.492  22.794  0.00  0.00    +0.000 A 
ATOM     33  C   UNL     1      -3.678  16.393  23.549  0.00  0.00    +0.000 A 
ATOM     34  C   UNL     1      -3.634  15.555  24.660  0.00  0.00    +0.000 A 
ATOM     35  C   UNL     1      -2.433  14.964  25.055  0.00  0.00    +0.000 A 
ATOM     36  C   UNL     1      -1.242  15.149  24.319  0.00  0.00    +0.000 A 
ATOM     37  C   UNL     1      -1.296  15.854  23.099  0.00  0.00    +0.000 A 
ATOM     38  H   UNL     1      -2.637  18.132  21.446  0.00  0.00    +0.000 HD
ENDBRANCH  28  29
ENDBRANCH  27  28
ENDBRANCH   6  27
TORSDOF 9
ENDMDL
MODEL 5
REMARK VINA RESULT:      -7.9      5.047      9.664
REMARK  Name = 
REMARK  10 active torsions:
REMARK  status: ('A' for Active; 'I' for Inactive)
REMARK    1  A    between atoms: C_1  and  O_2
REMARK    2  A    between atoms: O_2  and  C_3
REMARK    3  A    between atoms: C_3  and  C_5
REMARK    4  A    between atoms: C_8  and  C_9
REMARK    5  A    between atoms: C_10  and  C_11
REMARK    6  A    between atoms: C_11  and  C_13
REMARK    7  A    between atoms: C_19  and  O_20
REMARK    8  A    between atoms: N_23  and  C_24
REMARK    9  A    between atoms: C_24  and  C_25
REMARK   10  A    between atoms: C_25  and  C_26
REMARK                            x       y       z     vdW  Elec       q    Type
REMARK                         _______ _______ _______ _____ _____    ______ ____
ROOT
ATOM      1  C   UNL     1      -0.000  10.945  20.338  0.00  0.00    +0.000 C 
ATOM      2  C   UNL     1      -0.094  12.231  21.101  0.00  0.00    +0.000 C 
ATOM      3  C   UNL     1      -0.330  12.019  22.407  0.00  0.00    +0.000 C 
ATOM      4  C   UNL     1      -0.361  10.556  22.619  0.00  0.00    +0.000 C 
ATOM      5  O   UNL     1      -0.388  10.010  23.718  0.00  0.00    +0.000 OA
ATOM      6  N   UNL     1      -0.313   9.962  21.371  0.00  0.00    +0.000 N 
ENDROOT
BRANCH   1  10
ATOM      7  C   UNL     1      -2.639  10.577  16.917  0.00  0.00    +0.000 A 
ATOM      8  C   UNL     1      -1.435   9.864  16.965  0.00  0.00    +0.000 A 
ATOM      9  C   UNL     1      -0.589   9.983  18.072  0.00  0.00    +0.000 A 
ATOM     10  C   UNL     1      -0.938  10.810  19.155  0.00  0.00    +0.000 A 
ATOM     11  C   UNL     1      -2.168  11.488  19.109  0.00  0.00    +0.000 A 
ATOM     12  C   UNL     1      -2.993  11.398  17.987  0.00  0.00    +0.000 A 
BRANCH   7  13
ATOM     13  C   UNL     1      -3.493  10.465  15.707  0.00  0.00    +0.000 C 
ATOM     14  O   UNL     1      -4.610  10.945  15.631  0.00  0.00    +0.000 OA
BRANCH  13  16
ATOM     15  C   UNL     1      -3.425   9.934  13.441  0.00  0.00    +0.000 C 
ATOM     16  O   UNL     1      -2.868   9.735  14.746  0.00  0.00    +0.000 OA
ENDBRANCH  13  16
ENDBRANCH   7  13
ENDBRANCH   1  10
BRANCH   2  17
ATOM     17  C   UNL     1      -0.095  13.622  20.594  0.00  0.00    +0.000 C 
ATOM     18  O   UNL     1      -1.089  14.322  20.811  0.00  0.00    +0.000 OA
BRANCH  17  19
ATOM     19  C   UNL     1       1.054  14.230  19.840  0.00  0.00    +0.000 A 
ATOM     20  C   UNL     1       0.830  15.424  19.174  0.00  0.00    +0.000 A 
ATOM     21  C   UNL     1       1.874  16.014  18.477  0.00  0.00    +0.000 A 
ATOM     22  C   UNL     1       3.115  15.383  18.483  0.00  0.00    +0.000 A 
ATOM     23  C   UNL     1       3.250  14.191  19.181  0.00  0.00    +0.000 A 
ATOM     24  N   UNL     1       2.253  13.594  19.883  0.00  0.00    +0.000 NA
ENDBRANCH  17  19
ENDBRANCH   2  17
BRANCH   3  25
ATOM     25  O   UNL     1      -0.542  12.945  23.393  0.00  0.00    +0.000 OA
ATOM     26  H   UNL     1       0.278  13.473  23.469  0.00  0.00    +0.000 HD
ENDBRANCH   3  25
BRANCH   6  27
ATOM     27  C   UNL     1      -0.051   8.540  21.199  0.00  0.00    +0.000 C 
BRANCH  27  28
ATOM     28  C   UNL     1       1.408   8.088  21.194  0.00  0.00    +0.000 C 
BRANCH  28  29
ATOM     29  C   UNL     1       1.882   7.142  20.133  0.00  0.00    +0.000 A 
ATOM     30  C   UNL     1       2.633   7.574  19.052  0.00  0.00    +0.000 A 
ATOM     31  N   UNL     1       2.244   6.749  18.040  0.00  0.00    +0.000 N 
ATOM     32  C   UNL     1       2.073   5.499  18.570  0.00  0.00    +0.000 A 
ATOM     33  C   UNL     1       2.157   4.242  17.964  0.00  0.00    +0.000 A 
ATOM     34  C   UNL     1       1.906   3.141  18.776  0.00  0.00    +0.000 A 
ATOM     35  C   UNL     1       1.462   3.314  20.088  0.00  0.00    +0.000 A 
ATOM     36  C   UNL     1       1.305   4.599  20.651  0.00  0.00    +0.000 A 
ATOM     37  C   UNL     1       1.712   5.724  19.906  0.00  0.00    +0.000 A 
ATOM     38  H   UNL     1       2.037   7.028  17.092  0.00  0.00    +0.000 HD
ENDBRANCH  28  29
ENDBRANCH  27  28
ENDBRANCH   6  27
TORSDOF 9
ENDMDL
MODEL 6
REMARK VINA RESULT:      -7.8      4.545      8.896
REMARK  Name = 
REMARK  10 active torsions:
REMARK  status: ('A' for Active; 'I' for Inactive)
REMARK    1  A    between atoms: C_1  and  O_2
REMARK    2  A    between atoms: O_2  and  C_3
REMARK    3  A    between atoms: C_3  and  C_5
REMARK    4  A    between atoms: C_8  and  C_9
REMARK    5  A    between atoms: C_10  and  C_11
REMARK    6  A    between atoms: C_11  and  C_13
REMARK    7  A    between atoms: C_19  and  O_20
REMARK    8  A    between atoms: N_23  and  C_24
REMARK    9  A    between atoms: C_24  and  C_25
REMARK   10  A    between atoms: C_25  and  C_26
REMARK                            x       y       z     vdW  Elec       q    Type
REMARK                         _______ _______ _______ _____ _____    ______ ____
ROOT
ATOM      1  C   UNL     1       0.486  10.577  20.008  0.00  0.00    +0.000 C 
ATOM      2  C   UNL     1       0.112  10.596  21.459  0.00  0.00    +0.000 C 
ATOM      3  C   UNL     1       0.537   9.492  22.097  0.00  0.00    +0.000 C 
ATOM      4  C   UNL     1       1.279   8.672  21.116  0.00  0.00    +0.000 C 
ATOM      5  O   UNL     1       1.944   7.679  21.395  0.00  0.00    +0.000 OA
ATOM      6  N   UNL     1       1.103   9.261  19.877  0.00  0.00    +0.000 N 
ENDROOT
BRANCH   1  10
ATOM      7  C   UNL     1      -2.769  11.009  17.176  0.00  0.00    +0.000 A 
ATOM      8  C   UNL     1      -2.537   9.782  17.809  0.00  0.00    +0.000 A 
ATOM      9  C   UNL     1      -1.488   9.649  18.725  0.00  0.00    +0.000 A 
ATOM     10  C   UNL     1      -0.660  10.744  19.030  0.00  0.00    +0.000 A 
ATOM     11  C   UNL     1      -0.929  11.978  18.415  0.00  0.00    +0.000 A 
ATOM     12  C   UNL     1      -1.952  12.100  17.473  0.00  0.00    +0.000 A 
BRANCH   7  13
ATOM     13  C   UNL     1      -3.861  11.106  16.174  0.00  0.00    +0.000 C 
ATOM     14  O   UNL     1      -3.866  10.480  15.129  0.00  0.00    +0.000 OA
BRANCH  13  16
ATOM     15  C   UNL     1      -5.648  11.490  17.616  0.00  0.00    +0.000 C 
ATOM     16  O   UNL     1      -4.801  12.000  16.578  0.00  0.00    +0.000 OA
ENDBRANCH  13  16
ENDBRANCH   7  13
ENDBRANCH   1  10
BRANCH   2  17
ATOM     17  C   UNL     1      -0.737  11.560  22.195  0.00  0.00    +0.000 C 
ATOM     18  O   UNL     1      -1.520  11.120  23.043  0.00  0.00    +0.000 OA
BRANCH  17  19
ATOM     19  C   UNL     1      -0.688  13.046  21.972  0.00  0.00    +0.000 A 
ATOM     20  C   UNL     1      -1.889  13.712  21.789  0.00  0.00    +0.000 A 
ATOM     21  C   UNL     1      -1.877  15.084  21.591  0.00  0.00    +0.000 A 
ATOM     22  C   UNL     1      -0.650  15.742  21.593  0.00  0.00    +0.000 A 
ATOM     23  C   UNL     1       0.504  14.995  21.788  0.00  0.00    +0.000 A 
ATOM     24  N   UNL     1       0.525  13.655  21.997  0.00  0.00    +0.000 NA
ENDBRANCH  17  19
ENDBRANCH   2  17
BRANCH   3  25
ATOM     25  O   UNL     1       0.325   9.130  23.400  0.00  0.00    +0.000 OA
ATOM     26  H   UNL     1      -0.618   8.882  23.478  0.00  0.00    +0.000 HD
ENDBRANCH   3  25
BRANCH   6  27
ATOM     27  C   UNL     1       1.906   8.889  18.721  0.00  0.00    +0.000 C 
BRANCH  27  28
ATOM     28  C   UNL     1       1.541   7.593  17.998  0.00  0.00    +0.000 C 
BRANCH  28  29
ATOM     29  C   UNL     1       2.529   6.468  17.959  0.00  0.00    +0.000 A 
ATOM     30  C   UNL     1       3.894   6.695  17.895  0.00  0.00    +0.000 A 
ATOM     31  N   UNL     1       4.360   5.647  17.162  0.00  0.00    +0.000 N 
ATOM     32  C   UNL     1       3.654   4.536  17.534  0.00  0.00    +0.000 A 
ATOM     33  C   UNL     1       4.006   3.184  17.485  0.00  0.00    +0.000 A 
ATOM     34  C   UNL     1       3.048   2.275  17.923  0.00  0.00    +0.000 A 
ATOM     35  C   UNL     1       1.764   2.705  18.260  0.00  0.00    +0.000 A 
ATOM     36  C   UNL     1       1.409   4.071  18.220  0.00  0.00    +0.000 A 
ATOM     37  C   UNL     1       2.406   5.027  17.942  0.00  0.00    +0.000 A 
ATOM     38  H   UNL     1       5.042   5.698  16.418  0.00  0.00    +0.000 HD
ENDBRANCH  28  29
ENDBRANCH  27  28
ENDBRANCH   6  27
TORSDOF 9
ENDMDL
MODEL 7
REMARK VINA RESULT:      -7.8      5.323      9.853
REMARK  Name = 
REMARK  10 active torsions:
REMARK  status: ('A' for Active; 'I' for Inactive)
REMARK    1  A    between atoms: C_1  and  O_2
REMARK    2  A    between atoms: O_2  and  C_3
REMARK    3  A    between atoms: C_3  and  C_5
REMARK    4  A    between atoms: C_8  and  C_9
REMARK    5  A    between atoms: C_10  and  C_11
REMARK    6  A    between atoms: C_11  and  C_13
REMARK    7  A    between atoms: C_19  and  O_20
REMARK    8  A    between atoms: N_23  and  C_24
REMARK    9  A    between atoms: C_24  and  C_25
REMARK   10  A    between atoms: C_25  and  C_26
REMARK                            x       y       z     vdW  Elec       q    Type
REMARK                         _______ _______ _______ _____ _____    ______ ____
ROOT
ATOM      1  C   UNL     1      -0.590  11.456  20.608  0.00  0.00    +0.000 C 
ATOM      2  C   UNL     1      -0.077  10.441  21.584  0.00  0.00    +0.000 C 
ATOM      3  C   UNL     1      -0.757  10.475  22.742  0.00  0.00    +0.000 C 
ATOM      4  C   UNL     1      -1.820  11.493  22.601  0.00  0.00    +0.000 C 
ATOM      5  O   UNL     1      -2.731  11.669  23.405  0.00  0.00    +0.000 OA
ATOM      6  N   UNL     1      -1.601  12.147  21.402  0.00  0.00    +0.000 N 
ENDROOT
BRANCH   1  10
ATOM      7  C   UNL     1       2.339  14.276  19.102  0.00  0.00    +0.000 A 
ATOM      8  C   UNL     1       2.431  13.788  20.411  0.00  0.00    +0.000 A 
ATOM      9  C   UNL     1       1.486  12.875  20.890  0.00  0.00    +0.000 A 
ATOM     10  C   UNL     1       0.438  12.429  20.066  0.00  0.00    +0.000 A 
ATOM     11  C   UNL     1       0.381  12.899  18.743  0.00  0.00    +0.000 A 
ATOM     12  C   UNL     1       1.302  13.838  18.277  0.00  0.00    +0.000 A 
BRANCH   7  13
ATOM     13  C   UNL     1       3.331  15.279  18.637  0.00  0.00    +0.000 C 
ATOM     14  O   UNL     1       4.219  15.022  17.844  0.00  0.00    +0.000 OA
BRANCH  13  16
ATOM     15  C   UNL     1       4.255  16.933  19.990  0.00  0.00    +0.000 C 
ATOM     16  O   UNL     1       3.120  16.476  19.243  0.00  0.00    +0.000 OA
ENDBRANCH  13  16
ENDBRANCH   7  13
ENDBRANCH   1  10
BRANCH   2  17
ATOM     17  C   UNL     1       1.107   9.557  21.479  0.00  0.00    +0.000 C 
ATOM     18  O   UNL     1       1.812   9.407  22.481  0.00  0.00    +0.000 OA
BRANCH  17  19
ATOM     19  C   UNL     1       1.486   8.826  20.223  0.00  0.00    +0.000 A 
ATOM     20  C   UNL     1       1.267   9.464  19.012  0.00  0.00    +0.000 A 
ATOM     21  C   UNL     1       1.615   8.817  17.836  0.00  0.00    +0.000 A 
ATOM     22  C   UNL     1       2.185   7.550  17.920  0.00  0.00    +0.000 A 
ATOM     23  C   UNL     1       2.372   6.988  19.177  0.00  0.00    +0.000 A 
ATOM     24  N   UNL     1       2.054   7.598  20.345  0.00  0.00    +0.000 NA
ENDBRANCH  17  19
ENDBRANCH   2  17
BRANCH   3  25
ATOM     25  O   UNL     1      -0.533   9.749  23.881  0.00  0.00    +0.000 OA
ATOM     26  H   UNL     1      -1.100   8.954  23.829  0.00  0.00    +0.000 HD
ENDBRANCH   3  25
BRANCH   6  27
ATOM     27  C   UNL     1      -2.599  13.022  20.803  0.00  0.00    +0.000 C 
BRANCH  27  28
ATOM     28  C   UNL     1      -3.921  12.390  20.370  0.00  0.00    +0.000 C 
BRANCH  28  29
ATOM     29  C   UNL     1      -4.140  12.057  18.926  0.00  0.00    +0.000 A 
ATOM     30  C   UNL     1      -5.199  12.588  18.206  0.00  0.00    +0.000 A 
ATOM     31  N   UNL     1      -5.518  11.597  17.327  0.00  0.00    +0.000 N 
ATOM     32  C   UNL     1      -4.347  11.025  16.908  0.00  0.00    +0.000 A 
ATOM     33  C   UNL     1      -4.047  10.349  15.723  0.00  0.00    +0.000 A 
ATOM     34  C   UNL     1      -2.752   9.856  15.597  0.00  0.00    +0.000 A 
ATOM     35  C   UNL     1      -1.859   9.928  16.668  0.00  0.00    +0.000 A 
ATOM     36  C   UNL     1      -2.217  10.545  17.887  0.00  0.00    +0.000 A 
ATOM     37  C   UNL     1      -3.462  11.198  17.981  0.00  0.00    +0.000 A 
ATOM     38  H   UNL     1      -6.450  11.286  17.094  0.00  0.00    +0.000 HD
ENDBRANCH  28  29
ENDBRANCH  27  28
ENDBRANCH   6  27
TORSDOF 9
ENDMDL
MODEL 8
REMARK VINA RESULT:      -7.8      5.831      9.992
REMARK  Name = 
REMARK  10 active torsions:
REMARK  status: ('A' for Active; 'I' for Inactive)
REMARK    1  A    between atoms: C_1  and  O_2
REMARK    2  A    between atoms: O_2  and  C_3
REMARK    3  A    between atoms: C_3  and  C_5
REMARK    4  A    between atoms: C_8  and  C_9
REMARK    5  A    between atoms: C_10  and  C_11
REMARK    6  A    between atoms: C_11  and  C_13
REMARK    7  A    between atoms: C_19  and  O_20
REMARK    8  A    between atoms: N_23  and  C_24
REMARK    9  A    between atoms: C_24  and  C_25
REMARK   10  A    between atoms: C_25  and  C_26
REMARK                            x       y       z     vdW  Elec       q    Type
REMARK                         _______ _______ _______ _____ _____    ______ ____
ROOT
ATOM      1  C   UNL     1       0.626  12.651  20.824  0.00  0.00    +0.000 C 
ATOM      2  C   UNL     1       0.940  12.054  19.486  0.00  0.00    +0.000 C 
ATOM      3  C   UNL     1       1.667  12.890  18.726  0.00  0.00    +0.000 C 
ATOM      4  C   UNL     1       1.936  14.100  19.532  0.00  0.00    +0.000 C 
ATOM      5  O   UNL     1       2.711  14.996  19.211  0.00  0.00    +0.000 OA
ATOM      6  N   UNL     1       1.191  13.989  20.693  0.00  0.00    +0.000 N 
ENDROOT
BRANCH   1  10
ATOM      7  C   UNL     1      -3.578  12.767  21.880  0.00  0.00    +0.000 A 
ATOM      8  C   UNL     1      -2.632  12.268  22.784  0.00  0.00    +0.000 A 
ATOM      9  C   UNL     1      -1.277  12.237  22.440  0.00  0.00    +0.000 A 
ATOM     10  C   UNL     1      -0.844  12.712  21.190  0.00  0.00    +0.000 A 
ATOM     11  C   UNL     1      -1.800  13.245  20.309  0.00  0.00    +0.000 A 
ATOM     12  C   UNL     1      -3.157  13.241  20.638  0.00  0.00    +0.000 A 
BRANCH   7  13
ATOM     13  C   UNL     1      -5.015  12.745  22.257  0.00  0.00    +0.000 C 
ATOM     14  O   UNL     1      -5.915  12.986  21.473  0.00  0.00    +0.000 OA
BRANCH  13  16
ATOM     15  C   UNL     1      -6.494  12.664  24.053  0.00  0.00    +0.000 C 
ATOM     16  O   UNL     1      -5.158  12.460  23.578  0.00  0.00    +0.000 OA
ENDBRANCH  13  16
ENDBRANCH   7  13
ENDBRANCH   1  10
BRANCH   2  17
ATOM     17  C   UNL     1       0.458  10.787  18.889  0.00  0.00    +0.000 C 
ATOM     18  O   UNL     1      -0.562  10.821  18.194  0.00  0.00    +0.000 OA
BRANCH  17  19
ATOM     19  C   UNL     1       1.150   9.467  19.076  0.00  0.00    +0.000 A 
ATOM     20  C   UNL     1       1.796   8.915  17.981  0.00  0.00    +0.000 A 
ATOM     21  C   UNL     1       2.451   7.701  18.125  0.00  0.00    +0.000 A 
ATOM     22  C   UNL     1       2.441   7.087  19.375  0.00  0.00    +0.000 A 
ATOM     23  C   UNL     1       1.772   7.714  20.417  0.00  0.00    +0.000 A 
ATOM     24  N   UNL     1       1.133   8.906  20.313  0.00  0.00    +0.000 NA
ENDBRANCH  17  19
ENDBRANCH   2  17
BRANCH   3  25
ATOM     25  O   UNL     1       2.082  12.719  17.432  0.00  0.00    +0.000 OA
ATOM     26  H   UNL     1       1.370  13.062  16.856  0.00  0.00    +0.000 HD
ENDBRANCH   3  25
BRANCH   6  27
ATOM     27  C   UNL     1       1.411  14.859  21.840  0.00  0.00    +0.000 C 
BRANCH  27  28
ATOM     28  C   UNL     1       0.496  16.073  21.989  0.00  0.00    +0.000 C 
BRANCH  28  29
ATOM     29  C   UNL     1      -0.629  16.030  22.979  0.00  0.00    +0.000 A 
ATOM     30  C   UNL     1      -0.402  15.876  24.337  0.00  0.00    +0.000 A 
ATOM     31  N   UNL     1      -1.483  15.167  24.764  0.00  0.00    +0.000 N 
ATOM     32  C   UNL     1      -2.576  15.632  24.086  0.00  0.00    +0.000 A 
ATOM     33  C   UNL     1      -3.928  15.626  24.441  0.00  0.00    +0.000 A 
ATOM     34  C   UNL     1      -4.817  16.162  23.514  0.00  0.00    +0.000 A 
ATOM     35  C   UNL     1      -4.374  16.552  22.250  0.00  0.00    +0.000 A 
ATOM     36  C   UNL     1      -3.013  16.469  21.887  0.00  0.00    +0.000 A 
ATOM     37  C   UNL     1      -2.068  16.088  22.862  0.00  0.00    +0.000 A 
ATOM     38  H   UNL     1      -1.465  14.383  25.402  0.00  0.00    +0.000 HD
ENDBRANCH  28  29
ENDBRANCH  27  28
ENDBRANCH   6  27
TORSDOF 9
ENDMDL
MODEL 9
REMARK VINA RESULT:      -7.7      4.565      8.978
REMARK  Name = 
REMARK  10 active torsions:
REMARK  status: ('A' for Active; 'I' for Inactive)
REMARK    1  A    between atoms: C_1  and  O_2
REMARK    2  A    between atoms: O_2  and  C_3
REMARK    3  A    between atoms: C_3  and  C_5
REMARK    4  A    between atoms: C_8  and  C_9
REMARK    5  A    between atoms: C_10  and  C_11
REMARK    6  A    between atoms: C_11  and  C_13
REMARK    7  A    between atoms: C_19  and  O_20
REMARK    8  A    between atoms: N_23  and  C_24
REMARK    9  A    between atoms: C_24  and  C_25
REMARK   10  A    between atoms: C_25  and  C_26
REMARK                            x       y       z     vdW  Elec       q    Type
REMARK                         _______ _______ _______ _____ _____    ______ ____
ROOT
ATOM      1  C   UNL     1       0.469  10.608  20.104  0.00  0.00    +0.000 C 
ATOM      2  C   UNL     1       0.056  10.645  21.544  0.00  0.00    +0.000 C 
ATOM      3  C   UNL     1       0.444   9.539  22.202  0.00  0.00    +0.000 C 
ATOM      4  C   UNL     1       1.196   8.697  21.247  0.00  0.00    +0.000 C 
ATOM      5  O   UNL     1       1.835   7.695  21.552  0.00  0.00    +0.000 OA
ATOM      6  N   UNL     1       1.064   9.280  19.999  0.00  0.00    +0.000 N 
ENDROOT
BRANCH   1  10
ATOM      7  C   UNL     1      -2.700  11.076  17.181  0.00  0.00    +0.000 A 
ATOM      8  C   UNL     1      -2.503   9.848  17.824  0.00  0.00    +0.000 A 
ATOM      9  C   UNL     1      -1.482   9.703  18.769  0.00  0.00    +0.000 A 
ATOM     10  C   UNL     1      -0.647  10.787  19.093  0.00  0.00    +0.000 A 
ATOM     11  C   UNL     1      -0.882  12.023  18.468  0.00  0.00    +0.000 A 
ATOM     12  C   UNL     1      -1.876  12.156  17.498  0.00  0.00    +0.000 A 
BRANCH   7  13
ATOM     13  C   UNL     1      -3.763  11.185  16.150  0.00  0.00    +0.000 C 
ATOM     14  O   UNL     1      -4.950  11.246  16.418  0.00  0.00    +0.000 OA
BRANCH  13  16
ATOM     15  C   UNL     1      -3.548   9.982  14.168  0.00  0.00    +0.000 C 
ATOM     16  O   UNL     1      -3.223  11.168  14.904  0.00  0.00    +0.000 OA
ENDBRANCH  13  16
ENDBRANCH   7  13
ENDBRANCH   1  10
BRANCH   2  17
ATOM     17  C   UNL     1      -0.794  11.632  22.249  0.00  0.00    +0.000 C 
ATOM     18  O   UNL     1      -1.632  11.211  23.052  0.00  0.00    +0.000 OA
BRANCH  17  19
ATOM     19  C   UNL     1      -0.681  13.116  22.047  0.00  0.00    +0.000 A 
ATOM     20  C   UNL     1       0.536  13.620  21.619  0.00  0.00    +0.000 A 
ATOM     21  C   UNL     1       0.668  14.986  21.415  0.00  0.00    +0.000 A 
ATOM     22  C   UNL     1      -0.440  15.799  21.642  0.00  0.00    +0.000 A 
ATOM     23  C   UNL     1      -1.622  15.207  22.066  0.00  0.00    +0.000 A 
ATOM     24  N   UNL     1      -1.787  13.875  22.262  0.00  0.00    +0.000 NA
ENDBRANCH  17  19
ENDBRANCH   2  17
BRANCH   3  25
ATOM     25  O   UNL     1       0.190   9.192  23.501  0.00  0.00    +0.000 OA
ATOM     26  H   UNL     1       0.514   9.925  24.062  0.00  0.00    +0.000 HD
ENDBRANCH   3  25
BRANCH   6  27
ATOM     27  C   UNL     1       1.891   8.882  18.868  0.00  0.00    +0.000 C 
BRANCH  27  28
ATOM     28  C   UNL     1       1.514   7.594  18.139  0.00  0.00    +0.000 C 
BRANCH  28  29
ATOM     29  C   UNL     1       2.520   6.488  18.030  0.00  0.00    +0.000 A 
ATOM     30  C   UNL     1       3.880   6.742  17.949  0.00  0.00    +0.000 A 
ATOM     31  N   UNL     1       4.348   5.736  17.160  0.00  0.00    +0.000 N 
ATOM     32  C   UNL     1       3.668   4.597  17.497  0.00  0.00    +0.000 A 
ATOM     33  C   UNL     1       4.042   3.255  17.381  0.00  0.00    +0.000 A 
ATOM     34  C   UNL     1       3.109   2.311  17.798  0.00  0.00    +0.000 A 
ATOM     35  C   UNL     1       1.825   2.703  18.180  0.00  0.00    +0.000 A 
ATOM     36  C   UNL     1       1.446   4.063  18.208  0.00  0.00    +0.000 A 
ATOM     37  C   UNL     1       2.421   5.048  17.952  0.00  0.00    +0.000 A 
ATOM     38  H   UNL     1       5.012   5.832  16.406  0.00  0.00    +0.000 HD
ENDBRANCH  28  29
ENDBRANCH  27  28
ENDBRANCH   6  27
TORSDOF 9
ENDMDL
