MODEL 1
REMARK VINA RESULT:      -7.7      0.000      0.000
REMARK  Name = 
REMARK  9 active torsions:
REMARK  status: ('A' for Active; 'I' for Inactive)
REMARK    1  A    between atoms: C_1  and  C_2
REMARK    2  A    between atoms: C_3  and  C_4
REMARK    3  A    between atoms: C_4  and  O_6
REMARK    4  A    between atoms: O_6  and  C_7
REMARK    5  A    between atoms: C_7  and  C_8
REMARK    6  A    between atoms: C_19  and  C_20
REMARK    7  A    between atoms: C_23  and  N_24
REMARK    8  A    between atoms: N_24  and  C_25
REMARK    9  A    between atoms: N_24  and  C_26
REMARK                            x       y       z     vdW  Elec       q    Type
REMARK                         _______ _______ _______ _____ _____    ______ ____
ROOT
ATOM      1  C   UNL     1       3.004   6.652  18.090  0.00  0.00    +0.000 C 
ATOM      2  C   UNL     1       2.223   7.180  19.247  0.00  0.00    +0.000 A 
ATOM      3  C   UNL     1       1.846   6.509  20.409  0.00  0.00    +0.000 A 
ATOM      4  N   UNL     1       1.145   7.411  21.182  0.00  0.00    +0.000 N 
ATOM      5  C   UNL     1       1.034   8.609  20.534  0.00  0.00    +0.000 A 
ATOM      6  C   UNL     1       1.686   8.503  19.329  0.00  0.00    +0.000 A 
ATOM      7  C   UNL     1       1.738   9.608  18.389  0.00  0.00    +0.000 C 
ATOM      8  O   UNL     1       2.252   9.491  17.276  0.00  0.00    +0.000 OA
ATOM      9  C   UNL     1       1.214  10.954  18.856  0.00  0.00    +0.000 C 
ATOM     10  C   UNL     1       0.278  10.982  20.090  0.00  0.00    +0.000 C 
ATOM     11  C   UNL     1       0.324   9.790  21.080  0.00  0.00    +0.000 C 
ATOM     12  H   UNL     1       0.739   7.182  22.086  0.00  0.00    +0.000 HD
ENDROOT
BRANCH  10  13
ATOM     13  C   UNL     1      -1.155  11.312  19.691  0.00  0.00    +0.000 A 
ATOM     14  C   UNL     1      -1.766  10.732  18.582  0.00  0.00    +0.000 A 
ATOM     15  C   UNL     1      -3.076  11.089  18.224  0.00  0.00    +0.000 A 
ATOM     16  C   UNL     1      -3.845  12.009  18.961  0.00  0.00    +0.000 A 
ATOM     17  C   UNL     1      -3.209  12.568  20.078  0.00  0.00    +0.000 A 
ATOM     18  C   UNL     1      -1.894  12.234  20.438  0.00  0.00    +0.000 A 
BRANCH  16  19
ATOM     19  N   UNL     1      -5.123  12.374  18.561  0.00  0.00    +0.000 N 
ATOM     20  C   UNL     1      -5.551  12.212  17.173  0.00  0.00    +0.000 C 
ATOM     21  C   UNL     1      -6.221  12.535  19.512  0.00  0.00    +0.000 C 
ENDBRANCH  16  19
ENDBRANCH  10  13
BRANCH   3  22
ATOM     22  C   UNL     1       2.032   5.115  20.768  0.00  0.00    +0.000 C 
ATOM     23  O   UNL     1       3.051   4.619  21.232  0.00  0.00    +0.000 OA
BRANCH  22  24
ATOM     24  O   UNL     1       0.944   4.394  20.375  0.00  0.00    +0.000 OA
BRANCH  24  25
ATOM     25  C   UNL     1       1.135   2.977  20.479  0.00  0.00    +0.000 C 
BRANCH  25  26
ATOM     26  C   UNL     1       1.514   2.275  19.178  0.00  0.00    +0.000 C 
ATOM     27  C   UNL     1       2.977   1.879  19.043  0.00  0.00    +0.000 C 
ATOM     28  C   UNL     1       3.211   2.016  17.556  0.00  0.00    +0.000 C 
ATOM     29  C   UNL     1       2.381   3.236  17.228  0.00  0.00    +0.000 C 
ATOM     30  O   UNL     1       1.232   3.175  18.082  0.00  0.00    +0.000 OA
ENDBRANCH  25  26
ENDBRANCH  24  25
ENDBRANCH  22  24
ENDBRANCH   3  22
TORSDOF 6
ENDMDL
MODEL 2
REMARK VINA RESULT:      -7.5      3.360      4.891
REMARK  Name = 
REMARK  9 active torsions:
REMARK  status: ('A' for Active; 'I' for Inactive)
REMARK    1  A    between atoms: C_1  and  C_2
REMARK    2  A    between atoms: C_3  and  C_4
REMARK    3  A    between atoms: C_4  and  O_6
REMARK    4  A    between atoms: O_6  and  C_7
REMARK    5  A    between atoms: C_7  and  C_8
REMARK    6  A    between atoms: C_19  and  C_20
REMARK    7  A    between atoms: C_23  and  N_24
REMARK    8  A    between atoms: N_24  and  C_25
REMARK    9  A    between atoms: N_24  and  C_26
REMARK                            x       y       z     vdW  Elec       q    Type
REMARK                         _______ _______ _______ _____ _____    ______ ____
ROOT
ATOM      1  C   UNL     1       2.035   5.918  20.910  0.00  0.00    +0.000 C 
ATOM      2  C   UNL     1       2.298   6.813  19.744  0.00  0.00    +0.000 A 
ATOM      3  C   UNL     1       3.145   6.590  18.660  0.00  0.00    +0.000 A 
ATOM      4  N   UNL     1       3.048   7.696  17.842  0.00  0.00    +0.000 N 
ATOM      5  C   UNL     1       2.203   8.620  18.388  0.00  0.00    +0.000 A 
ATOM      6  C   UNL     1       1.722   8.111  19.571  0.00  0.00    +0.000 A 
ATOM      7  C   UNL     1       0.806   8.862  20.408  0.00  0.00    +0.000 C 
ATOM      8  O   UNL     1       0.435   8.443  21.505  0.00  0.00    +0.000 OA
ATOM      9  C   UNL     1       0.239  10.155  19.849  0.00  0.00    +0.000 C 
ATOM     10  C   UNL     1       0.974  10.816  18.657  0.00  0.00    +0.000 C 
ATOM     11  C   UNL     1       1.891   9.932  17.771  0.00  0.00    +0.000 C 
ATOM     12  H   UNL     1       3.574   7.805  16.978  0.00  0.00    +0.000 HD
ENDROOT
BRANCH  10  13
ATOM     13  C   UNL     1       1.687  12.093  19.084  0.00  0.00    +0.000 A 
ATOM     14  C   UNL     1       2.512  12.805  18.217  0.00  0.00    +0.000 A 
ATOM     15  C   UNL     1       3.182  13.957  18.657  0.00  0.00    +0.000 A 
ATOM     16  C   UNL     1       3.042  14.469  19.961  0.00  0.00    +0.000 A 
ATOM     17  C   UNL     1       2.196  13.740  20.808  0.00  0.00    +0.000 A 
ATOM     18  C   UNL     1       1.534  12.576  20.387  0.00  0.00    +0.000 A 
BRANCH  16  19
ATOM     19  N   UNL     1       3.747  15.588  20.383  0.00  0.00    +0.000 N 
ATOM     20  C   UNL     1       3.422  16.248  21.647  0.00  0.00    +0.000 C 
ATOM     21  C   UNL     1       5.068  15.924  19.854  0.00  0.00    +0.000 C 
ENDBRANCH  16  19
ENDBRANCH  10  13
BRANCH   3  22
ATOM     22  C   UNL     1       4.053   5.484  18.415  0.00  0.00    +0.000 C 
ATOM     23  O   UNL     1       5.065   5.225  19.055  0.00  0.00    +0.000 OA
BRANCH  22  24
ATOM     24  O   UNL     1       3.696   4.848  17.263  0.00  0.00    +0.000 OA
BRANCH  24  25
ATOM     25  C   UNL     1       3.894   3.429  17.313  0.00  0.00    +0.000 C 
BRANCH  25  26
ATOM     26  C   UNL     1       2.701   2.624  17.821  0.00  0.00    +0.000 C 
ATOM     27  C   UNL     1       1.408   3.404  18.004  0.00  0.00    +0.000 C 
ATOM     28  C   UNL     1       0.769   2.696  19.177  0.00  0.00    +0.000 C 
ATOM     29  C   UNL     1       1.974   2.375  20.032  0.00  0.00    +0.000 C 
ATOM     30  O   UNL     1       3.042   2.087  19.120  0.00  0.00    +0.000 OA
ENDBRANCH  25  26
ENDBRANCH  24  25
ENDBRANCH  22  24
ENDBRANCH   3  22
TORSDOF 6
ENDMDL
MODEL 3
REMARK VINA RESULT:      -7.4      3.379      4.892
REMARK  Name = 
REMARK  9 active torsions:
REMARK  status: ('A' for Active; 'I' for Inactive)
REMARK    1  A    between atoms: C_1  and  C_2
REMARK    2  A    between atoms: C_3  and  C_4
REMARK    3  A    between atoms: C_4  and  O_6
REMARK    4  A    between atoms: O_6  and  C_7
REMARK    5  A    between atoms: C_7  and  C_8
REMARK    6  A    between atoms: C_19  and  C_20
REMARK    7  A    between atoms: C_23  and  N_24
REMARK    8  A    between atoms: N_24  and  C_25
REMARK    9  A    between atoms: N_24  and  C_26
REMARK                            x       y       z     vdW  Elec       q    Type
REMARK                         _______ _______ _______ _____ _____    ______ ____
ROOT
ATOM      1  C   UNL     1       2.201   5.915  20.792  0.00  0.00    +0.000 C 
ATOM      2  C   UNL     1       2.395   6.858  19.652  0.00  0.00    +0.000 A 
ATOM      3  C   UNL     1       3.196   6.692  18.524  0.00  0.00    +0.000 A 
ATOM      4  N   UNL     1       3.042   7.827  17.754  0.00  0.00    +0.000 N 
ATOM      5  C   UNL     1       2.207   8.713  18.373  0.00  0.00    +0.000 A 
ATOM      6  C   UNL     1       1.789   8.150  19.555  0.00  0.00    +0.000 A 
ATOM      7  C   UNL     1       0.899   8.851  20.462  0.00  0.00    +0.000 C 
ATOM      8  O   UNL     1       0.586   8.383  21.557  0.00  0.00    +0.000 OA
ATOM      9  C   UNL     1       0.284  10.153  19.979  0.00  0.00    +0.000 C 
ATOM     10  C   UNL     1       0.953  10.873  18.781  0.00  0.00    +0.000 C 
ATOM     11  C   UNL     1       1.844  10.041  17.822  0.00  0.00    +0.000 C 
ATOM     12  H   UNL     1       3.526   7.979  16.873  0.00  0.00    +0.000 HD
ENDROOT
BRANCH  10  13
ATOM     13  C   UNL     1       1.662  12.146  19.225  0.00  0.00    +0.000 A 
ATOM     14  C   UNL     1       1.504  12.673  20.505  0.00  0.00    +0.000 A 
ATOM     15  C   UNL     1       2.144  13.869  20.866  0.00  0.00    +0.000 A 
ATOM     16  C   UNL     1       2.987  14.578  19.990  0.00  0.00    +0.000 A 
ATOM     17  C   UNL     1       3.137  14.019  18.713  0.00  0.00    +0.000 A 
ATOM     18  C   UNL     1       2.490  12.833  18.332  0.00  0.00    +0.000 A 
BRANCH  16  19
ATOM     19  N   UNL     1       3.575  15.780  20.359  0.00  0.00    +0.000 N 
ATOM     20  C   UNL     1       5.029  15.933  20.363  0.00  0.00    +0.000 C 
ATOM     21  C   UNL     1       2.839  17.042  20.358  0.00  0.00    +0.000 C 
ENDBRANCH  16  19
ENDBRANCH  10  13
BRANCH   3  22
ATOM     22  C   UNL     1       4.111   5.614  18.195  0.00  0.00    +0.000 C 
ATOM     23  O   UNL     1       5.247   5.474  18.630  0.00  0.00    +0.000 OA
BRANCH  22  24
ATOM     24  O   UNL     1       3.573   4.845  17.206  0.00  0.00    +0.000 OA
BRANCH  24  25
ATOM     25  C   UNL     1       3.867   3.449  17.350  0.00  0.00    +0.000 C 
BRANCH  25  26
ATOM     26  C   UNL     1       2.731   2.600  17.914  0.00  0.00    +0.000 C 
ATOM     27  C   UNL     1       1.388   3.301  18.052  0.00  0.00    +0.000 C 
ATOM     28  C   UNL     1       0.799   2.630  19.271  0.00  0.00    +0.000 C 
ATOM     29  C   UNL     1       2.022   2.446  20.139  0.00  0.00    +0.000 C 
ATOM     30  O   UNL     1       3.107   2.172  19.243  0.00  0.00    +0.000 OA
ENDBRANCH  25  26
ENDBRANCH  24  25
ENDBRANCH  22  24
ENDBRANCH   3  22
TORSDOF 6
ENDMDL
MODEL 4
REMARK VINA RESULT:      -7.3      3.776      5.676
REMARK  Name = 
REMARK  9 active torsions:
REMARK  status: ('A' for Active; 'I' for Inactive)
REMARK    1  A    between atoms: C_1  and  C_2
REMARK    2  A    between atoms: C_3  and  C_4
REMARK    3  A    between atoms: C_4  and  O_6
REMARK    4  A    between atoms: O_6  and  C_7
REMARK    5  A    between atoms: C_7  and  C_8
REMARK    6  A    between atoms: C_19  and  C_20
REMARK    7  A    between atoms: C_23  and  N_24
REMARK    8  A    between atoms: N_24  and  C_25
REMARK    9  A    between atoms: N_24  and  C_26
REMARK                            x       y       z     vdW  Elec       q    Type
REMARK                         _______ _______ _______ _____ _____    ______ ____
ROOT
ATOM      1  C   UNL     1       2.289   5.795  20.762  0.00  0.00    +0.000 C 
ATOM      2  C   UNL     1       2.357   6.714  19.587  0.00  0.00    +0.000 A 
ATOM      3  C   UNL     1       2.988   6.502  18.363  0.00  0.00    +0.000 A 
ATOM      4  N   UNL     1       2.769   7.630  17.599  0.00  0.00    +0.000 N 
ATOM      5  C   UNL     1       2.059   8.556  18.310  0.00  0.00    +0.000 A 
ATOM      6  C   UNL     1       1.789   8.026  19.549  0.00  0.00    +0.000 A 
ATOM      7  C   UNL     1       1.057   8.773  20.555  0.00  0.00    +0.000 C 
ATOM      8  O   UNL     1       0.882   8.333  21.692  0.00  0.00    +0.000 OA
ATOM      9  C   UNL     1       0.428  10.090  20.137  0.00  0.00    +0.000 C 
ATOM     10  C   UNL     1       0.950  10.766  18.844  0.00  0.00    +0.000 C 
ATOM     11  C   UNL     1       1.670   9.888  17.788  0.00  0.00    +0.000 C 
ATOM     12  H   UNL     1       3.132   7.751  16.657  0.00  0.00    +0.000 HD
ENDROOT
BRANCH  10  13
ATOM     13  C   UNL     1       1.757  12.019  19.161  0.00  0.00    +0.000 A 
ATOM     14  C   UNL     1       1.773  12.586  20.433  0.00  0.00    +0.000 A 
ATOM     15  C   UNL     1       2.499  13.762  20.679  0.00  0.00    +0.000 A 
ATOM     16  C   UNL     1       3.260  14.410  19.688  0.00  0.00    +0.000 A 
ATOM     17  C   UNL     1       3.235  13.810  18.421  0.00  0.00    +0.000 A 
ATOM     18  C   UNL     1       2.500  12.645  18.156  0.00  0.00    +0.000 A 
BRANCH  16  19
ATOM     19  N   UNL     1       3.937  15.594  19.948  0.00  0.00    +0.000 N 
ATOM     20  C   UNL     1       4.084  16.616  18.913  0.00  0.00    +0.000 C 
ATOM     21  C   UNL     1       4.167  16.079  21.306  0.00  0.00    +0.000 C 
ENDBRANCH  16  19
ENDBRANCH  10  13
BRANCH   3  22
ATOM     22  C   UNL     1       3.811   5.386  17.933  0.00  0.00    +0.000 C 
ATOM     23  O   UNL     1       3.848   4.275  18.447  0.00  0.00    +0.000 OA
BRANCH  22  24
ATOM     24  O   UNL     1       4.660   5.799  16.949  0.00  0.00    +0.000 OA
BRANCH  24  25
ATOM     25  C   UNL     1       5.786   4.929  16.770  0.00  0.00    +0.000 C 
BRANCH  25  26
ATOM     26  C   UNL     1       7.129   5.502  17.215  0.00  0.00    +0.000 C 
ATOM     27  C   UNL     1       7.254   5.815  18.699  0.00  0.00    +0.000 C 
ATOM     28  C   UNL     1       8.179   7.010  18.698  0.00  0.00    +0.000 C 
ATOM     29  C   UNL     1       7.716   7.753  17.466  0.00  0.00    +0.000 C 
ATOM     30  O   UNL     1       7.339   6.750  16.515  0.00  0.00    +0.000 OA
ENDBRANCH  25  26
ENDBRANCH  24  25
ENDBRANCH  22  24
ENDBRANCH   3  22
TORSDOF 6
ENDMDL
MODEL 5
REMARK VINA RESULT:      -7.3      3.908      5.716
REMARK  Name = 
REMARK  9 active torsions:
REMARK  status: ('A' for Active; 'I' for Inactive)
REMARK    1  A    between atoms: C_1  and  C_2
REMARK    2  A    between atoms: C_3  and  C_4
REMARK    3  A    between atoms: C_4  and  O_6
REMARK    4  A    between atoms: O_6  and  C_7
REMARK    5  A    between atoms: C_7  and  C_8
REMARK    6  A    between atoms: C_19  and  C_20
REMARK    7  A    between atoms: C_23  and  N_24
REMARK    8  A    between atoms: N_24  and  C_25
REMARK    9  A    between atoms: N_24  and  C_26
REMARK                            x       y       z     vdW  Elec       q    Type
REMARK                         _______ _______ _______ _____ _____    ______ ____
ROOT
ATOM      1  C   UNL     1       4.792   3.339  18.998  0.00  0.00    +0.000 C 
ATOM      2  C   UNL     1       4.855   4.710  18.411  0.00  0.00    +0.000 A 
ATOM      3  C   UNL     1       5.976   5.403  17.958  0.00  0.00    +0.000 A 
ATOM      4  N   UNL     1       5.533   6.626  17.500  0.00  0.00    +0.000 N 
ATOM      5  C   UNL     1       4.184   6.743  17.683  0.00  0.00    +0.000 A 
ATOM      6  C   UNL     1       3.729   5.577  18.250  0.00  0.00    +0.000 A 
ATOM      7  C   UNL     1       2.330   5.389  18.588  0.00  0.00    +0.000 C 
ATOM      8  O   UNL     1       1.932   4.378  19.168  0.00  0.00    +0.000 OA
ATOM      9  C   UNL     1       1.344   6.444  18.121  0.00  0.00    +0.000 C 
ATOM     10  C   UNL     1       1.901   7.833  17.720  0.00  0.00    +0.000 C 
ATOM     11  C   UNL     1       3.394   7.942  17.314  0.00  0.00    +0.000 C 
ATOM     12  H   UNL     1       6.149   7.342  17.122  0.00  0.00    +0.000 HD
ENDROOT
BRANCH  10  13
ATOM     13  C   UNL     1       1.531   8.896  18.746  0.00  0.00    +0.000 A 
ATOM     14  C   UNL     1       1.344   8.592  20.093  0.00  0.00    +0.000 A 
ATOM     15  C   UNL     1       0.967   9.592  21.003  0.00  0.00    +0.000 A 
ATOM     16  C   UNL     1       0.786  10.936  20.628  0.00  0.00    +0.000 A 
ATOM     17  C   UNL     1       0.993  11.216  19.270  0.00  0.00    +0.000 A 
ATOM     18  C   UNL     1       1.353  10.224  18.345  0.00  0.00    +0.000 A 
BRANCH  16  19
ATOM     19  N   UNL     1       0.374  11.898  21.541  0.00  0.00    +0.000 N 
ATOM     20  C   UNL     1       0.654  13.315  21.316  0.00  0.00    +0.000 C 
ATOM     21  C   UNL     1      -0.682  11.643  22.518  0.00  0.00    +0.000 C 
ENDBRANCH  16  19
ENDBRANCH  10  13
BRANCH   3  22
ATOM     22  C   UNL     1       7.376   5.021  18.011  0.00  0.00    +0.000 C 
ATOM     23  O   UNL     1       8.091   5.032  19.005  0.00  0.00    +0.000 OA
BRANCH  22  24
ATOM     24  O   UNL     1       7.832   4.785  16.748  0.00  0.00    +0.000 OA
BRANCH  24  25
ATOM     25  C   UNL     1       6.878   4.110  15.917  0.00  0.00    +0.000 C 
BRANCH  25  26
ATOM     26  C   UNL     1       6.632   4.752  14.554  0.00  0.00    +0.000 C 
ATOM     27  C   UNL     1       6.457   3.786  13.392  0.00  0.00    +0.000 C 
ATOM     28  C   UNL     1       7.046   4.563  12.238  0.00  0.00    +0.000 C 
ATOM     29  C   UNL     1       8.210   5.261  12.903  0.00  0.00    +0.000 C 
ATOM     30  O   UNL     1       7.776   5.575  14.233  0.00  0.00    +0.000 OA
ENDBRANCH  25  26
ENDBRANCH  24  25
ENDBRANCH  22  24
ENDBRANCH   3  22
TORSDOF 6
ENDMDL
MODEL 6
REMARK VINA RESULT:      -7.3      3.703      5.671
REMARK  Name = 
REMARK  9 active torsions:
REMARK  status: ('A' for Active; 'I' for Inactive)
REMARK    1  A    between atoms: C_1  and  C_2
REMARK    2  A    between atoms: C_3  and  C_4
REMARK    3  A    between atoms: C_4  and  O_6
REMARK    4  A    between atoms: O_6  and  C_7
REMARK    5  A    between atoms: C_7  and  C_8
REMARK    6  A    between atoms: C_19  and  C_20
REMARK    7  A    between atoms: C_23  and  N_24
REMARK    8  A    between atoms: N_24  and  C_25
REMARK    9  A    between atoms: N_24  and  C_26
REMARK                            x       y       z     vdW  Elec       q    Type
REMARK                         _______ _______ _______ _____ _____    ______ ____
ROOT
ATOM      1  C   UNL     1       2.452   5.685  20.797  0.00  0.00    +0.000 C 
ATOM      2  C   UNL     1       2.450   6.594  19.613  0.00  0.00    +0.000 A 
ATOM      3  C   UNL     1       3.045   6.389  18.370  0.00  0.00    +0.000 A 
ATOM      4  N   UNL     1       2.765   7.503  17.604  0.00  0.00    +0.000 N 
ATOM      5  C   UNL     1       2.051   8.413  18.331  0.00  0.00    +0.000 A 
ATOM      6  C   UNL     1       1.841   7.887  19.584  0.00  0.00    +0.000 A 
ATOM      7  C   UNL     1       1.122   8.622  20.609  0.00  0.00    +0.000 C 
ATOM      8  O   UNL     1       1.001   8.188  21.754  0.00  0.00    +0.000 OA
ATOM      9  C   UNL     1       0.438   9.914  20.201  0.00  0.00    +0.000 C 
ATOM     10  C   UNL     1       0.894  10.594  18.885  0.00  0.00    +0.000 C 
ATOM     11  C   UNL     1       1.604   9.728  17.812  0.00  0.00    +0.000 C 
ATOM     12  H   UNL     1       3.091   7.626  16.649  0.00  0.00    +0.000 HD
ENDROOT
BRANCH  10  13
ATOM     13  C   UNL     1       1.672  11.873  19.163  0.00  0.00    +0.000 A 
ATOM     14  C   UNL     1       2.464  12.483  18.193  0.00  0.00    +0.000 A 
ATOM     15  C   UNL     1       3.197  13.642  18.497  0.00  0.00    +0.000 A 
ATOM     16  C   UNL     1       3.156  14.260  19.760  0.00  0.00    +0.000 A 
ATOM     17  C   UNL     1       2.341  13.632  20.713  0.00  0.00    +0.000 A 
ATOM     18  C   UNL     1       1.617  12.464  20.429  0.00  0.00    +0.000 A 
BRANCH  16  19
ATOM     19  N   UNL     1       3.922  15.383  20.047  0.00  0.00    +0.000 N 
ATOM     20  C   UNL     1       3.527  16.310  21.106  0.00  0.00    +0.000 C 
ATOM     21  C   UNL     1       5.320  15.497  19.639  0.00  0.00    +0.000 C 
ENDBRANCH  16  19
ENDBRANCH  10  13
BRANCH   3  22
ATOM     22  C   UNL     1       3.887   5.295  17.921  0.00  0.00    +0.000 C 
ATOM     23  O   UNL     1       3.990   4.198  18.454  0.00  0.00    +0.000 OA
BRANCH  22  24
ATOM     24  O   UNL     1       4.671   5.717  16.888  0.00  0.00    +0.000 OA
BRANCH  24  25
ATOM     25  C   UNL     1       5.863   4.937  16.726  0.00  0.00    +0.000 C 
BRANCH  25  26
ATOM     26  C   UNL     1       7.164   5.656  17.071  0.00  0.00    +0.000 C 
ATOM     27  C   UNL     1       7.440   5.845  18.555  0.00  0.00    +0.000 C 
ATOM     28  C   UNL     1       8.190   7.157  18.577  0.00  0.00    +0.000 C 
ATOM     29  C   UNL     1       7.473   7.936  17.498  0.00  0.00    +0.000 C 
ATOM     30  O   UNL     1       7.112   6.981  16.492  0.00  0.00    +0.000 OA
ENDBRANCH  25  26
ENDBRANCH  24  25
ENDBRANCH  22  24
ENDBRANCH   3  22
TORSDOF 6
ENDMDL
MODEL 7
REMARK VINA RESULT:      -7.2      1.712      2.339
REMARK  Name = 
REMARK  9 active torsions:
REMARK  status: ('A' for Active; 'I' for Inactive)
REMARK    1  A    between atoms: C_1  and  C_2
REMARK    2  A    between atoms: C_3  and  C_4
REMARK    3  A    between atoms: C_4  and  O_6
REMARK    4  A    between atoms: O_6  and  C_7
REMARK    5  A    between atoms: C_7  and  C_8
REMARK    6  A    between atoms: C_19  and  C_20
REMARK    7  A    between atoms: C_23  and  N_24
REMARK    8  A    between atoms: N_24  and  C_25
REMARK    9  A    between atoms: N_24  and  C_26
REMARK                            x       y       z     vdW  Elec       q    Type
REMARK                         _______ _______ _______ _____ _____    ______ ____
ROOT
ATOM      1  C   UNL     1       3.178   7.325  17.832  0.00  0.00    +0.000 C 
ATOM      2  C   UNL     1       2.325   7.674  19.007  0.00  0.00    +0.000 A 
ATOM      3  C   UNL     1       1.946   6.855  20.069  0.00  0.00    +0.000 A 
ATOM      4  N   UNL     1       1.165   7.624  20.907  0.00  0.00    +0.000 N 
ATOM      5  C   UNL     1       1.009   8.880  20.394  0.00  0.00    +0.000 A 
ATOM      6  C   UNL     1       1.710   8.948  19.213  0.00  0.00    +0.000 A 
ATOM      7  C   UNL     1       1.731  10.155  18.407  0.00  0.00    +0.000 C 
ATOM      8  O   UNL     1       2.292  10.194  17.312  0.00  0.00    +0.000 OA
ATOM      9  C   UNL     1       1.114  11.409  18.999  0.00  0.00    +0.000 C 
ATOM     10  C   UNL     1       0.133  11.245  20.188  0.00  0.00    +0.000 C 
ATOM     11  C   UNL     1       0.212   9.951  21.039  0.00  0.00    +0.000 C 
ATOM     12  H   UNL     1       0.740   7.271  21.761  0.00  0.00    +0.000 HD
ENDROOT
BRANCH  10  13
ATOM     13  C   UNL     1      -1.301  11.541  19.767  0.00  0.00    +0.000 A 
ATOM     14  C   UNL     1      -2.122  12.401  20.493  0.00  0.00    +0.000 A 
ATOM     15  C   UNL     1      -3.451  12.621  20.095  0.00  0.00    +0.000 A 
ATOM     16  C   UNL     1      -4.013  12.023  18.952  0.00  0.00    +0.000 A 
ATOM     17  C   UNL     1      -3.161  11.173  18.234  0.00  0.00    +0.000 A 
ATOM     18  C   UNL     1      -1.836  10.930  18.629  0.00  0.00    +0.000 A 
BRANCH  16  19
ATOM     19  N   UNL     1      -5.342  12.226  18.604  0.00  0.00    +0.000 N 
ATOM     20  C   UNL     1      -6.285  12.815  19.554  0.00  0.00    +0.000 C 
ATOM     21  C   UNL     1      -5.787  12.270  17.213  0.00  0.00    +0.000 C 
ENDBRANCH  16  19
ENDBRANCH  10  13
BRANCH   3  22
ATOM     22  C   UNL     1       2.199   5.441  20.277  0.00  0.00    +0.000 C 
ATOM     23  O   UNL     1       1.383   4.608  20.649  0.00  0.00    +0.000 OA
BRANCH  22  24
ATOM     24  O   UNL     1       3.532   5.192  20.137  0.00  0.00    +0.000 OA
BRANCH  24  25
ATOM     25  C   UNL     1       3.818   4.126  19.222  0.00  0.00    +0.000 C 
BRANCH  25  26
ATOM     26  C   UNL     1       5.266   4.046  18.747  0.00  0.00    +0.000 C 
ATOM     27  C   UNL     1       6.147   5.231  19.113  0.00  0.00    +0.000 C 
ATOM     28  C   UNL     1       7.097   5.300  17.939  0.00  0.00    +0.000 C 
ATOM     29  C   UNL     1       6.185   4.938  16.789  0.00  0.00    +0.000 C 
ATOM     30  O   UNL     1       5.262   3.970  17.303  0.00  0.00    +0.000 OA
ENDBRANCH  25  26
ENDBRANCH  24  25
ENDBRANCH  22  24
ENDBRANCH   3  22
TORSDOF 6
ENDMDL
MODEL 8
REMARK VINA RESULT:      -7.2      1.532      1.853
REMARK  Name = 
REMARK  9 active torsions:
REMARK  status: ('A' for Active; 'I' for Inactive)
REMARK    1  A    between atoms: C_1  and  C_2
REMARK    2  A    between atoms: C_3  and  C_4
REMARK    3  A    between atoms: C_4  and  O_6
REMARK    4  A    between atoms: O_6  and  C_7
REMARK    5  A    between atoms: C_7  and  C_8
REMARK    6  A    between atoms: C_19  and  C_20
REMARK    7  A    between atoms: C_23  and  N_24
REMARK    8  A    between atoms: N_24  and  C_25
REMARK    9  A    between atoms: N_24  and  C_26
REMARK                            x       y       z     vdW  Elec       q    Type
REMARK                         _______ _______ _______ _____ _____    ______ ____
ROOT
ATOM      1  C   UNL     1       2.774   6.889  17.817  0.00  0.00    +0.000 C 
ATOM      2  C   UNL     1       2.156   7.351  19.095  0.00  0.00    +0.000 A 
ATOM      3  C   UNL     1       1.872   6.601  20.235  0.00  0.00    +0.000 A 
ATOM      4  N   UNL     1       1.312   7.465  21.153  0.00  0.00    +0.000 N 
ATOM      5  C   UNL     1       1.199   8.718  20.621  0.00  0.00    +0.000 A 
ATOM      6  C   UNL     1       1.708   8.686  19.344  0.00  0.00    +0.000 A 
ATOM      7  C   UNL     1       1.718   9.864  18.497  0.00  0.00    +0.000 C 
ATOM      8  O   UNL     1       2.099   9.820  17.327  0.00  0.00    +0.000 OA
ATOM      9  C   UNL     1       1.326  11.189  19.127  0.00  0.00    +0.000 C 
ATOM     10  C   UNL     1       0.535  11.155  20.459  0.00  0.00    +0.000 C 
ATOM     11  C   UNL     1       0.622   9.880  21.338  0.00  0.00    +0.000 C 
ATOM     12  H   UNL     1       0.996   7.179  22.076  0.00  0.00    +0.000 HD
ENDROOT
BRANCH  10  13
ATOM     13  C   UNL     1      -0.912  11.585  20.254  0.00  0.00    +0.000 A 
ATOM     14  C   UNL     1      -1.607  11.310  19.079  0.00  0.00    +0.000 A 
ATOM     15  C   UNL     1      -2.928  11.755  18.912  0.00  0.00    +0.000 A 
ATOM     16  C   UNL     1      -3.625  12.464  19.908  0.00  0.00    +0.000 A 
ATOM     17  C   UNL     1      -2.906  12.716  21.085  0.00  0.00    +0.000 A 
ATOM     18  C   UNL     1      -1.580  12.292  21.259  0.00  0.00    +0.000 A 
BRANCH  16  19
ATOM     19  N   UNL     1      -4.918  12.928  19.702  0.00  0.00    +0.000 N 
ATOM     20  C   UNL     1      -5.938  12.066  19.106  0.00  0.00    +0.000 C 
ATOM     21  C   UNL     1      -5.452  14.089  20.409  0.00  0.00    +0.000 C 
ENDBRANCH  16  19
ENDBRANCH  10  13
BRANCH   3  22
ATOM     22  C   UNL     1       2.017   5.174  20.457  0.00  0.00    +0.000 C 
ATOM     23  O   UNL     1       1.122   4.396  20.761  0.00  0.00    +0.000 OA
BRANCH  22  24
ATOM     24  O   UNL     1       3.339   4.840  20.422  0.00  0.00    +0.000 OA
BRANCH  24  25
ATOM     25  C   UNL     1       3.594   3.606  19.738  0.00  0.00    +0.000 C 
BRANCH  25  26
ATOM     26  C   UNL     1       4.863   3.582  18.891  0.00  0.00    +0.000 C 
ATOM     27  C   UNL     1       5.700   4.852  18.920  0.00  0.00    +0.000 C 
ATOM     28  C   UNL     1       6.291   4.879  17.529  0.00  0.00    +0.000 C 
ATOM     29  C   UNL     1       5.141   4.355  16.700  0.00  0.00    +0.000 C 
ATOM     30  O   UNL     1       4.479   3.376  17.512  0.00  0.00    +0.000 OA
ENDBRANCH  25  26
ENDBRANCH  24  25
ENDBRANCH  22  24
ENDBRANCH   3  22
TORSDOF 6
ENDMDL
MODEL 9
REMARK VINA RESULT:      -7.2      0.899      1.466
REMARK  Name = 
REMARK  9 active torsions:
REMARK  status: ('A' for Active; 'I' for Inactive)
REMARK    1  A    between atoms: C_1  and  C_2
REMARK    2  A    between atoms: C_3  and  C_4
REMARK    3  A    between atoms: C_4  and  O_6
REMARK    4  A    between atoms: O_6  and  C_7
REMARK    5  A    between atoms: C_7  and  C_8
REMARK    6  A    between atoms: C_19  and  C_20
REMARK    7  A    between atoms: C_23  and  N_24
REMARK    8  A    between atoms: N_24  and  C_25
REMARK    9  A    between atoms: N_24  and  C_26
REMARK                            x       y       z     vdW  Elec       q    Type
REMARK                         _______ _______ _______ _____ _____    ______ ____
ROOT
ATOM      1  C   UNL     1       3.094   6.029  17.950  0.00  0.00    +0.000 C 
ATOM      2  C   UNL     1       2.383   6.650  19.107  0.00  0.00    +0.000 A 
ATOM      3  C   UNL     1       1.988   6.048  20.299  0.00  0.00    +0.000 A 
ATOM      4  N   UNL     1       1.375   7.025  21.057  0.00  0.00    +0.000 N 
ATOM      5  C   UNL     1       1.336   8.206  20.370  0.00  0.00    +0.000 A 
ATOM      6  C   UNL     1       1.947   8.012  19.154  0.00  0.00    +0.000 A 
ATOM      7  C   UNL     1       2.056   9.078  18.176  0.00  0.00    +0.000 C 
ATOM      8  O   UNL     1       2.531   8.887  17.057  0.00  0.00    +0.000 OA
ATOM      9  C   UNL     1       1.645  10.475  18.608  0.00  0.00    +0.000 C 
ATOM     10  C   UNL     1       0.745  10.613  19.862  0.00  0.00    +0.000 C 
ATOM     11  C   UNL     1       0.728   9.453  20.892  0.00  0.00    +0.000 C 
ATOM     12  H   UNL     1       0.976   6.856  21.977  0.00  0.00    +0.000 HD
ENDROOT
BRANCH  10  13
ATOM     13  C   UNL     1      -0.670  11.035  19.485  0.00  0.00    +0.000 A 
ATOM     14  C   UNL     1      -1.355  12.028  20.180  0.00  0.00    +0.000 A 
ATOM     15  C   UNL     1      -2.672  12.365  19.827  0.00  0.00    +0.000 A 
ATOM     16  C   UNL     1      -3.354  11.754  18.758  0.00  0.00    +0.000 A 
ATOM     17  C   UNL     1      -2.637  10.767  18.069  0.00  0.00    +0.000 A 
ATOM     18  C   UNL     1      -1.326  10.408  18.422  0.00  0.00    +0.000 A 
BRANCH  16  19
ATOM     19  N   UNL     1      -4.671  12.077  18.456  0.00  0.00    +0.000 N 
ATOM     20  C   UNL     1      -5.202  11.876  17.109  0.00  0.00    +0.000 C 
ATOM     21  C   UNL     1      -5.694  12.227  19.488  0.00  0.00    +0.000 C 
ENDBRANCH  16  19
ENDBRANCH  10  13
BRANCH   3  22
ATOM     22  C   UNL     1       2.080   4.657  20.702  0.00  0.00    +0.000 C 
ATOM     23  O   UNL     1       1.149   3.943  21.053  0.00  0.00    +0.000 OA
BRANCH  22  24
ATOM     24  O   UNL     1       3.392   4.290  20.778  0.00  0.00    +0.000 OA
BRANCH  24  25
ATOM     25  C   UNL     1       3.581   2.870  20.835  0.00  0.00    +0.000 C 
BRANCH  25  26
ATOM     26  C   UNL     1       3.841   2.194  19.492  0.00  0.00    +0.000 C 
ATOM     27  C   UNL     1       4.518   3.056  18.438  0.00  0.00    +0.000 C 
ATOM     28  C   UNL     1       3.920   2.525  17.156  0.00  0.00    +0.000 C 
ATOM     29  C   UNL     1       2.497   2.243  17.577  0.00  0.00    +0.000 C 
ATOM     30  O   UNL     1       2.566   1.794  18.937  0.00  0.00    +0.000 OA
ENDBRANCH  25  26
ENDBRANCH  24  25
ENDBRANCH  22  24
ENDBRANCH   3  22
TORSDOF 6
ENDMDL
