MODEL 1
REMARK VINA RESULT:      -8.7      0.000      0.000
REMARK  Name = 
REMARK  4 active torsions:
REMARK  status: ('A' for Active; 'I' for Inactive)
REMARK    1  A    between atoms: C_1  and  C_2
REMARK    2  A    between atoms: C_3  and  C_4
REMARK    3  A    between atoms: C_12  and  C_13
REMARK    4  A    between atoms: C_18  and  C_19
REMARK                            x       y       z     vdW  Elec       q    Type
REMARK                         _______ _______ _______ _____ _____    ______ ____
ROOT
ATOM      1  C   UNL     1       2.693  12.828  18.109  0.00  0.00    +0.000 C 
ATOM      2  C   UNL     1       1.660  11.906  18.709  0.00  0.00    +0.000 C 
ATOM      3  C   UNL     1       0.485  12.274  19.279  0.00  0.00    +0.000 C 
ATOM      4  C   UNL     1      -0.519  11.195  19.679  0.00  0.00    +0.000 C 
ATOM      5  N   UNL     1       0.016   9.819  19.713  0.00  0.00    +0.000 NA
ATOM      6  C   UNL     1       1.166   9.586  19.156  0.00  0.00    +0.000 C 
ATOM      7  N   UNL     1       1.583   8.300  19.202  0.00  0.00    +0.000 N 
ATOM      8  C   UNL     1       2.491   7.499  18.618  0.00  0.00    +0.000 A 
ATOM      9  N   UNL     1       2.595   6.214  18.893  0.00  0.00    +0.000 NA
ATOM     10  C   UNL     1       3.538   5.752  18.026  0.00  0.00    +0.000 A 
ATOM     11  C   UNL     1       4.037   4.455  17.840  0.00  0.00    +0.000 A 
ATOM     12  C   UNL     1       5.003   4.254  16.846  0.00  0.00    +0.000 A 
ATOM     13  C   UNL     1       5.456   5.323  16.066  0.00  0.00    +0.000 A 
ATOM     14  C   UNL     1       4.966   6.630  16.245  0.00  0.00    +0.000 A 
ATOM     15  C   UNL     1       4.004   6.795  17.241  0.00  0.00    +0.000 A 
ATOM     16  O   UNL     1       3.337   7.940  17.630  0.00  0.00    +0.000 OA
ATOM     17  N   UNL     1       1.951  10.547  18.612  0.00  0.00    +0.000 N 
ATOM     18  H   UNL     1       0.933   7.760  19.757  0.00  0.00    +0.000 HD
ATOM     19  H   UNL     1       2.837  10.285  18.193  0.00  0.00    +0.000 HD
ENDROOT
BRANCH   3  20
ATOM     20  C   UNL     1       0.014  13.710  19.297  0.00  0.00    +0.000 C 
ATOM     21  O   UNL     1      -0.430  14.195  18.260  0.00  0.00    +0.000 OA
ATOM     22  N   UNL     1       0.090  14.370  20.506  0.00  0.00    +0.000 N 
ATOM     23  C   UNL     1      -0.294  15.681  20.724  0.00  0.00    +0.000 A 
ATOM     24  N   UNL     1      -0.063  16.309  21.859  0.00  0.00    +0.000 NA
ATOM     25  N   UNL     1      -0.471  17.634  21.822  0.00  0.00    +0.000 NA
ATOM     26  C   UNL     1      -1.026  17.936  20.668  0.00  0.00    +0.000 A 
ATOM     27  S   UNL     1      -1.116  16.633  19.567  0.00  0.00    +0.000 S 
ATOM     28  H   UNL     1       0.518  13.951  21.316  0.00  0.00    +0.000 HD
ENDBRANCH   3  20
BRANCH   4  29
ATOM     29  C   UNL     1      -1.777  11.201  18.798  0.00  0.00    +0.000 A 
ATOM     30  C   UNL     1      -1.745  10.498  17.569  0.00  0.00    +0.000 A 
ATOM     31  C   UNL     1      -2.821  10.502  16.687  0.00  0.00    +0.000 A 
ATOM     32  C   UNL     1      -3.982  11.173  17.025  0.00  0.00    +0.000 A 
ATOM     33  C   UNL     1      -4.071  11.812  18.260  0.00  0.00    +0.000 A 
ATOM     34  C   UNL     1      -2.989  11.828  19.173  0.00  0.00    +0.000 A 
BRANCH  34  35
ATOM     35  C   UNL     1      -3.251  12.529  20.490  0.00  0.00    +0.000 C 
ATOM     36  F   UNL     1      -2.473  12.152  21.537  0.00  0.00    +0.000 F 
ATOM     37  F   UNL     1      -3.069  13.878  20.379  0.00  0.00    +0.000 F 
ATOM     38  F   UNL     1      -4.539  12.372  20.911  0.00  0.00    +0.000 F 
ENDBRANCH  34  35
ENDBRANCH   4  29
TORSDOF 3
ENDMDL
MODEL 2
REMARK VINA RESULT:      -8.4      0.895      1.116
REMARK  Name = 
REMARK  4 active torsions:
REMARK  status: ('A' for Active; 'I' for Inactive)
REMARK    1  A    between atoms: C_1  and  C_2
REMARK    2  A    between atoms: C_3  and  C_4
REMARK    3  A    between atoms: C_12  and  C_13
REMARK    4  A    between atoms: C_18  and  C_19
REMARK                            x       y       z     vdW  Elec       q    Type
REMARK                         _______ _______ _______ _____ _____    ______ ____
ROOT
ATOM      1  C   UNL     1       2.795  12.280  17.811  0.00  0.00    +0.000 C 
ATOM      2  C   UNL     1       1.745  11.589  18.645  0.00  0.00    +0.000 C 
ATOM      3  C   UNL     1       0.645  12.162  19.193  0.00  0.00    +0.000 C 
ATOM      4  C   UNL     1      -0.403  11.274  19.863  0.00  0.00    +0.000 C 
ATOM      5  N   UNL     1       0.034   9.892  20.148  0.00  0.00    +0.000 NA
ATOM      6  C   UNL     1       1.120   9.456  19.587  0.00  0.00    +0.000 C 
ATOM      7  N   UNL     1       1.446   8.174  19.872  0.00  0.00    +0.000 N 
ATOM      8  C   UNL     1       2.250   7.199  19.415  0.00  0.00    +0.000 A 
ATOM      9  N   UNL     1       2.281   5.991  19.942  0.00  0.00    +0.000 NA
ATOM     10  C   UNL     1       3.122   5.285  19.136  0.00  0.00    +0.000 A 
ATOM     11  C   UNL     1       3.513   3.940  19.192  0.00  0.00    +0.000 A 
ATOM     12  C   UNL     1       4.387   3.463  18.208  0.00  0.00    +0.000 A 
ATOM     13  C   UNL     1       4.858   4.311  17.200  0.00  0.00    +0.000 A 
ATOM     14  C   UNL     1       4.477   5.664  17.135  0.00  0.00    +0.000 A 
ATOM     15  C   UNL     1       3.604   6.107  18.128  0.00  0.00    +0.000 A 
ATOM     16  O   UNL     1       3.051   7.359  18.311  0.00  0.00    +0.000 OA
ATOM     17  N   UNL     1       1.931  10.218  18.813  0.00  0.00    +0.000 N 
ATOM     18  H   UNL     1       0.801   7.814  20.562  0.00  0.00    +0.000 HD
ATOM     19  H   UNL     1       2.762   9.803  18.407  0.00  0.00    +0.000 HD
ENDROOT
BRANCH   3  20
ATOM     20  C   UNL     1       0.280  13.607  18.942  0.00  0.00    +0.000 C 
ATOM     21  O   UNL     1      -0.433  13.874  17.979  0.00  0.00    +0.000 OA
ATOM     22  N   UNL     1       0.758  14.531  19.847  0.00  0.00    +0.000 N 
ATOM     23  C   UNL     1       0.531  15.894  19.791  0.00  0.00    +0.000 A 
ATOM     24  N   UNL     1       1.132  16.749  20.594  0.00  0.00    +0.000 NA
ATOM     25  N   UNL     1       0.805  18.065  20.306  0.00  0.00    +0.000 NA
ATOM     26  C   UNL     1      -0.059  18.142  19.318  0.00  0.00    +0.000 A 
ATOM     27  S   UNL     1      -0.552  16.630  18.694  0.00  0.00    +0.000 S 
ATOM     28  H   UNL     1       1.391  14.273  20.589  0.00  0.00    +0.000 HD
ENDBRANCH   3  20
BRANCH   4  29
ATOM     29  C   UNL     1      -1.717  11.210  19.072  0.00  0.00    +0.000 A 
ATOM     30  C   UNL     1      -1.786  10.362  17.940  0.00  0.00    +0.000 A 
ATOM     31  C   UNL     1      -2.919  10.291  17.136  0.00  0.00    +0.000 A 
ATOM     32  C   UNL     1      -4.040  11.033  17.464  0.00  0.00    +0.000 A 
ATOM     33  C   UNL     1      -4.029  11.819  18.614  0.00  0.00    +0.000 A 
ATOM     34  C   UNL     1      -2.887  11.914  19.445  0.00  0.00    +0.000 A 
BRANCH  34  35
ATOM     35  C   UNL     1      -3.043  12.777  20.680  0.00  0.00    +0.000 C 
ATOM     36  F   UNL     1      -2.375  13.959  20.677  0.00  0.00    +0.000 F 
ATOM     37  F   UNL     1      -4.351  13.108  20.893  0.00  0.00    +0.000 F 
ATOM     38  F   UNL     1      -2.646  12.132  21.814  0.00  0.00    +0.000 F 
ENDBRANCH  34  35
ENDBRANCH   4  29
TORSDOF 3
ENDMDL
MODEL 3
REMARK VINA RESULT:      -8.0      2.907      4.312
REMARK  Name = 
REMARK  4 active torsions:
REMARK  status: ('A' for Active; 'I' for Inactive)
REMARK    1  A    between atoms: C_1  and  C_2
REMARK    2  A    between atoms: C_3  and  C_4
REMARK    3  A    between atoms: C_12  and  C_13
REMARK    4  A    between atoms: C_18  and  C_19
REMARK                            x       y       z     vdW  Elec       q    Type
REMARK                         _______ _______ _______ _____ _____    ______ ____
ROOT
ATOM      1  C   UNL     1      -0.354   9.244  22.692  0.00  0.00    +0.000 C 
ATOM      2  C   UNL     1      -0.033   9.988  21.420  0.00  0.00    +0.000 C 
ATOM      3  C   UNL     1      -0.424  11.247  21.102  0.00  0.00    +0.000 C 
ATOM      4  C   UNL     1       0.139  11.907  19.844  0.00  0.00    +0.000 C 
ATOM      5  N   UNL     1       0.809  10.991  18.899  0.00  0.00    +0.000 NA
ATOM      6  C   UNL     1       1.115   9.796  19.305  0.00  0.00    +0.000 C 
ATOM      7  N   UNL     1       1.750   9.020  18.397  0.00  0.00    +0.000 N 
ATOM      8  C   UNL     1       2.469   7.885  18.348  0.00  0.00    +0.000 A 
ATOM      9  N   UNL     1       2.998   7.420  17.233  0.00  0.00    +0.000 NA
ATOM     10  C   UNL     1       3.726   6.338  17.623  0.00  0.00    +0.000 A 
ATOM     11  C   UNL     1       4.527   5.468  16.871  0.00  0.00    +0.000 A 
ATOM     12  C   UNL     1       5.193   4.433  17.541  0.00  0.00    +0.000 A 
ATOM     13  C   UNL     1       5.055   4.276  18.925  0.00  0.00    +0.000 A 
ATOM     14  C   UNL     1       4.251   5.141  19.691  0.00  0.00    +0.000 A 
ATOM     15  C   UNL     1       3.605   6.160  18.993  0.00  0.00    +0.000 A 
ATOM     16  O   UNL     1       2.775   7.156  19.470  0.00  0.00    +0.000 OA
ATOM     17  N   UNL     1       0.784   9.303  20.523  0.00  0.00    +0.000 N 
ATOM     18  H   UNL     1       1.792   9.509  17.513  0.00  0.00    +0.000 HD
ATOM     19  H   UNL     1       1.061   8.358  20.767  0.00  0.00    +0.000 HD
ENDROOT
BRANCH   3  20
ATOM     20  C   UNL     1      -1.184  12.123  22.071  0.00  0.00    +0.000 C 
ATOM     21  O   UNL     1      -0.596  12.555  23.058  0.00  0.00    +0.000 OA
ATOM     22  N   UNL     1      -2.497  12.402  21.752  0.00  0.00    +0.000 N 
ATOM     23  C   UNL     1      -3.352  13.184  22.507  0.00  0.00    +0.000 A 
ATOM     24  N   UNL     1      -4.636  13.298  22.236  0.00  0.00    +0.000 NA
ATOM     25  N   UNL     1      -5.307  14.074  23.170  0.00  0.00    +0.000 NA
ATOM     26  C   UNL     1      -4.488  14.541  24.086  0.00  0.00    +0.000 A 
ATOM     27  S   UNL     1      -2.853  14.097  23.863  0.00  0.00    +0.000 S 
ATOM     28  H   UNL     1      -2.956  11.976  20.962  0.00  0.00    +0.000 HD
ENDBRANCH   3  20
BRANCH   4  29
ATOM     29  C   UNL     1       1.101  13.061  20.160  0.00  0.00    +0.000 A 
ATOM     30  C   UNL     1       2.340  12.759  20.777  0.00  0.00    +0.000 A 
ATOM     31  C   UNL     1       3.242  13.751  21.149  0.00  0.00    +0.000 A 
ATOM     32  C   UNL     1       2.954  15.076  20.876  0.00  0.00    +0.000 A 
ATOM     33  C   UNL     1       1.777  15.399  20.203  0.00  0.00    +0.000 A 
ATOM     34  C   UNL     1       0.841  14.410  19.820  0.00  0.00    +0.000 A 
BRANCH  34  35
ATOM     35  C   UNL     1      -0.371  14.911  19.061  0.00  0.00    +0.000 C 
ATOM     36  F   UNL     1      -0.299  16.180  18.583  0.00  0.00    +0.000 F 
ATOM     37  F   UNL     1      -0.629  14.133  17.969  0.00  0.00    +0.000 F 
ATOM     38  F   UNL     1      -1.508  14.863  19.814  0.00  0.00    +0.000 F 
ENDBRANCH  34  35
ENDBRANCH   4  29
TORSDOF 3
ENDMDL
MODEL 4
REMARK VINA RESULT:      -8.0      1.992      2.503
REMARK  Name = 
REMARK  4 active torsions:
REMARK  status: ('A' for Active; 'I' for Inactive)
REMARK    1  A    between atoms: C_1  and  C_2
REMARK    2  A    between atoms: C_3  and  C_4
REMARK    3  A    between atoms: C_12  and  C_13
REMARK    4  A    between atoms: C_18  and  C_19
REMARK                            x       y       z     vdW  Elec       q    Type
REMARK                         _______ _______ _______ _____ _____    ______ ____
ROOT
ATOM      1  C   UNL     1       2.332  13.043  19.181  0.00  0.00    +0.000 C 
ATOM      2  C   UNL     1       1.333  12.362  20.083  0.00  0.00    +0.000 C 
ATOM      3  C   UNL     1       0.358  12.966  20.807  0.00  0.00    +0.000 C 
ATOM      4  C   UNL     1      -0.676  12.104  21.531  0.00  0.00    +0.000 C 
ATOM      5  N   UNL     1      -0.329  10.673  21.650  0.00  0.00    +0.000 NA
ATOM      6  C   UNL     1       0.642  10.207  20.924  0.00  0.00    +0.000 C 
ATOM      7  N   UNL     1       0.888   8.884  21.064  0.00  0.00    +0.000 N 
ATOM      8  C   UNL     1       1.544   7.895  20.434  0.00  0.00    +0.000 A 
ATOM      9  N   UNL     1       1.533   6.646  20.856  0.00  0.00    +0.000 NA
ATOM     10  C   UNL     1       2.210   5.953  19.898  0.00  0.00    +0.000 A 
ATOM     11  C   UNL     1       2.486   4.583  19.799  0.00  0.00    +0.000 A 
ATOM     12  C   UNL     1       3.194   4.130  18.678  0.00  0.00    +0.000 A 
ATOM     13  C   UNL     1       3.613   5.026  17.690  0.00  0.00    +0.000 A 
ATOM     14  C   UNL     1       3.345   6.405  17.779  0.00  0.00    +0.000 A 
ATOM     15  C   UNL     1       2.637   6.822  18.906  0.00  0.00    +0.000 A 
ATOM     16  O   UNL     1       2.220   8.091  19.255  0.00  0.00    +0.000 OA
ATOM     17  N   UNL     1       1.417  10.972  20.118  0.00  0.00    +0.000 N 
ATOM     18  H   UNL     1       0.300   8.514  21.799  0.00  0.00    +0.000 HD
ATOM     19  H   UNL     1       2.156  10.532  19.579  0.00  0.00    +0.000 HD
ENDROOT
BRANCH   3  20
ATOM     20  C   UNL     1       0.092  14.451  20.719  0.00  0.00    +0.000 C 
ATOM     21  O   UNL     1       0.083  15.109  21.755  0.00  0.00    +0.000 OA
ATOM     22  N   UNL     1      -0.093  14.971  19.455  0.00  0.00    +0.000 N 
ATOM     23  C   UNL     1      -0.344  16.301  19.168  0.00  0.00    +0.000 A 
ATOM     24  N   UNL     1      -0.660  16.720  17.960  0.00  0.00    +0.000 NA
ATOM     25  N   UNL     1      -0.937  18.078  17.927  0.00  0.00    +0.000 NA
ATOM     26  C   UNL     1      -0.782  18.631  19.111  0.00  0.00    +0.000 A 
ATOM     27  S   UNL     1      -0.264  17.552  20.330  0.00  0.00    +0.000 S 
ATOM     28  H   UNL     1      -0.137  14.383  18.637  0.00  0.00    +0.000 HD
ENDBRANCH   3  20
BRANCH   4  29
ATOM     29  C   UNL     1      -2.075  12.210  20.909  0.00  0.00    +0.000 A 
ATOM     30  C   UNL     1      -2.230  11.901  19.536  0.00  0.00    +0.000 A 
ATOM     31  C   UNL     1      -3.452  12.029  18.883  0.00  0.00    +0.000 A 
ATOM     32  C   UNL     1      -4.571  12.427  19.592  0.00  0.00    +0.000 A 
ATOM     33  C   UNL     1      -4.466  12.666  20.961  0.00  0.00    +0.000 A 
ATOM     34  C   UNL     1      -3.233  12.550  21.647  0.00  0.00    +0.000 A 
BRANCH  34  35
ATOM     35  C   UNL     1      -3.287  12.803  23.140  0.00  0.00    +0.000 C 
ATOM     36  F   UNL     1      -4.502  13.123  23.654  0.00  0.00    +0.000 F 
ATOM     37  F   UNL     1      -2.880  11.706  23.844  0.00  0.00    +0.000 F 
ATOM     38  F   UNL     1      -2.447  13.808  23.524  0.00  0.00    +0.000 F 
ENDBRANCH  34  35
ENDBRANCH   4  29
TORSDOF 3
ENDMDL
MODEL 5
REMARK VINA RESULT:      -7.8      1.520      1.714
REMARK  Name = 
REMARK  4 active torsions:
REMARK  status: ('A' for Active; 'I' for Inactive)
REMARK    1  A    between atoms: C_1  and  C_2
REMARK    2  A    between atoms: C_3  and  C_4
REMARK    3  A    between atoms: C_12  and  C_13
REMARK    4  A    between atoms: C_18  and  C_19
REMARK                            x       y       z     vdW  Elec       q    Type
REMARK                         _______ _______ _______ _____ _____    ______ ____
ROOT
ATOM      1  C   UNL     1       2.418  13.327  18.652  0.00  0.00    +0.000 C 
ATOM      2  C   UNL     1       1.400  12.446  19.334  0.00  0.00    +0.000 C 
ATOM      3  C   UNL     1       0.282  12.857  19.981  0.00  0.00    +0.000 C 
ATOM      4  C   UNL     1      -0.727  11.815  20.463  0.00  0.00    +0.000 C 
ATOM      5  N   UNL     1      -0.235  10.422  20.473  0.00  0.00    +0.000 NA
ATOM      6  C   UNL     1       0.863  10.147  19.838  0.00  0.00    +0.000 C 
ATOM      7  N   UNL     1       1.240   8.848  19.867  0.00  0.00    +0.000 N 
ATOM      8  C   UNL     1       2.078   8.013  19.229  0.00  0.00    +0.000 A 
ATOM      9  N   UNL     1       2.159   6.727  19.509  0.00  0.00    +0.000 NA
ATOM     10  C   UNL     1       3.022   6.227  18.582  0.00  0.00    +0.000 A 
ATOM     11  C   UNL     1       3.464   4.913  18.374  0.00  0.00    +0.000 A 
ATOM     12  C   UNL     1       4.350   4.672  17.316  0.00  0.00    +0.000 A 
ATOM     13  C   UNL     1       4.782   5.719  16.495  0.00  0.00    +0.000 A 
ATOM     14  C   UNL     1       4.348   7.043  16.696  0.00  0.00    +0.000 A 
ATOM     15  C   UNL     1       3.465   7.248  17.755  0.00  0.00    +0.000 A 
ATOM     16  O   UNL     1       2.866   8.417  18.179  0.00  0.00    +0.000 OA
ATOM     17  N   UNL     1       1.639  11.077  19.230  0.00  0.00    +0.000 N 
ATOM     18  H   UNL     1       0.614   8.334  20.472  0.00  0.00    +0.000 HD
ATOM     19  H   UNL     1       2.484  10.782  18.752  0.00  0.00    +0.000 HD
ENDROOT
BRANCH   3  20
ATOM     20  C   UNL     1      -0.140  14.308  20.018  0.00  0.00    +0.000 C 
ATOM     21  O   UNL     1      -0.505  14.787  21.087  0.00  0.00    +0.000 OA
ATOM     22  N   UNL     1      -0.051  15.007  18.831  0.00  0.00    +0.000 N 
ATOM     23  C   UNL     1      -0.386  16.339  18.664  0.00  0.00    +0.000 A 
ATOM     24  N   UNL     1      -0.425  16.918  17.481  0.00  0.00    +0.000 NA
ATOM     25  N   UNL     1      -0.856  18.234  17.551  0.00  0.00    +0.000 NA
ATOM     26  C   UNL     1      -1.090  18.600  18.792  0.00  0.00    +0.000 A 
ATOM     27  S   UNL     1      -0.776  17.388  19.955  0.00  0.00    +0.000 S 
ATOM     28  H   UNL     1       0.196  14.557  17.964  0.00  0.00    +0.000 HD
ENDBRANCH   3  20
BRANCH   4  29
ATOM     29  C   UNL     1      -2.043  11.856  19.673  0.00  0.00    +0.000 A 
ATOM     30  C   UNL     1      -2.041  11.402  18.331  0.00  0.00    +0.000 A 
ATOM     31  C   UNL     1      -3.176  11.460  17.530  0.00  0.00    +0.000 A 
ATOM     32  C   UNL     1      -4.365  11.934  18.057  0.00  0.00    +0.000 A 
ATOM     33  C   UNL     1      -4.416  12.318  19.395  0.00  0.00    +0.000 A 
ATOM     34  C   UNL     1      -3.274  12.275  20.230  0.00  0.00    +0.000 A 
BRANCH  34  35
ATOM     35  C   UNL     1      -3.497  12.687  21.670  0.00  0.00    +0.000 C 
ATOM     36  F   UNL     1      -3.205  13.977  21.980  0.00  0.00    +0.000 F 
ATOM     37  F   UNL     1      -4.802  12.520  22.038  0.00  0.00    +0.000 F 
ATOM     38  F   UNL     1      -2.777  11.925  22.543  0.00  0.00    +0.000 F 
ENDBRANCH  34  35
ENDBRANCH   4  29
TORSDOF 3
ENDMDL
MODEL 6
REMARK VINA RESULT:      -7.7      2.671      4.089
REMARK  Name = 
REMARK  4 active torsions:
REMARK  status: ('A' for Active; 'I' for Inactive)
REMARK    1  A    between atoms: C_1  and  C_2
REMARK    2  A    between atoms: C_3  and  C_4
REMARK    3  A    between atoms: C_12  and  C_13
REMARK    4  A    between atoms: C_18  and  C_19
REMARK                            x       y       z     vdW  Elec       q    Type
REMARK                         _______ _______ _______ _____ _____    ______ ____
ROOT
ATOM      1  C   UNL     1      -0.752   9.367  22.215  0.00  0.00    +0.000 C 
ATOM      2  C   UNL     1      -0.259  10.138  21.016  0.00  0.00    +0.000 C 
ATOM      3  C   UNL     1      -0.575  11.417  20.693  0.00  0.00    +0.000 C 
ATOM      4  C   UNL     1       0.154  12.095  19.535  0.00  0.00    +0.000 C 
ATOM      5  N   UNL     1       0.912  11.187  18.650  0.00  0.00    +0.000 NA
ATOM      6  C   UNL     1       1.135   9.972  19.052  0.00  0.00    +0.000 C 
ATOM      7  N   UNL     1       1.857   9.204  18.204  0.00  0.00    +0.000 N 
ATOM      8  C   UNL     1       2.547   8.051  18.207  0.00  0.00    +0.000 A 
ATOM      9  N   UNL     1       3.197   7.603  17.151  0.00  0.00    +0.000 NA
ATOM     10  C   UNL     1       3.844   6.489  17.592  0.00  0.00    +0.000 A 
ATOM     11  C   UNL     1       4.709   5.618  16.916  0.00  0.00    +0.000 A 
ATOM     12  C   UNL     1       5.261   4.546  17.629  0.00  0.00    +0.000 A 
ATOM     13  C   UNL     1       4.950   4.353  18.979  0.00  0.00    +0.000 A 
ATOM     14  C   UNL     1       4.081   5.219  19.669  0.00  0.00    +0.000 A 
ATOM     15  C   UNL     1       3.551   6.276  18.931  0.00  0.00    +0.000 A 
ATOM     16  O   UNL     1       2.695   7.281  19.334  0.00  0.00    +0.000 OA
ATOM     17  N   UNL     1       0.644   9.455  20.204  0.00  0.00    +0.000 N 
ATOM     18  H   UNL     1       2.019   9.717  17.348  0.00  0.00    +0.000 HD
ATOM     19  H   UNL     1       0.866   8.496  20.450  0.00  0.00    +0.000 HD
ENDROOT
BRANCH   3  20
ATOM     20  C   UNL     1      -1.426  12.286  21.590  0.00  0.00    +0.000 C 
ATOM     21  O   UNL     1      -2.640  12.307  21.407  0.00  0.00    +0.000 OA
ATOM     22  N   UNL     1      -0.767  12.980  22.584  0.00  0.00    +0.000 N 
ATOM     23  C   UNL     1      -1.369  13.821  23.502  0.00  0.00    +0.000 A 
ATOM     24  N   UNL     1      -0.679  14.574  24.335  0.00  0.00    +0.000 NA
ATOM     25  N   UNL     1      -1.492  15.387  25.110  0.00  0.00    +0.000 NA
ATOM     26  C   UNL     1      -2.765  15.184  24.850  0.00  0.00    +0.000 A 
ATOM     27  S   UNL     1      -3.061  13.979  23.676  0.00  0.00    +0.000 S 
ATOM     28  H   UNL     1       0.238  12.979  22.657  0.00  0.00    +0.000 HD
ENDBRANCH   3  20
BRANCH   4  29
ATOM     29  C   UNL     1       1.100  13.211  20.003  0.00  0.00    +0.000 A 
ATOM     30  C   UNL     1       2.322  12.848  20.619  0.00  0.00    +0.000 A 
ATOM     31  C   UNL     1       3.206  13.796  21.123  0.00  0.00    +0.000 A 
ATOM     32  C   UNL     1       2.918  15.143  20.987  0.00  0.00    +0.000 A 
ATOM     33  C   UNL     1       1.759  15.533  20.319  0.00  0.00    +0.000 A 
ATOM     34  C   UNL     1       0.840  14.588  19.803  0.00  0.00    +0.000 A 
BRANCH  34  35
ATOM     35  C   UNL     1      -0.352  15.165  19.068  0.00  0.00    +0.000 C 
ATOM     36  F   UNL     1      -0.233  16.448  18.640  0.00  0.00    +0.000 F 
ATOM     37  F   UNL     1      -0.641  14.441  17.946  0.00  0.00    +0.000 F 
ATOM     38  F   UNL     1      -1.489  15.130  19.821  0.00  0.00    +0.000 F 
ENDBRANCH  34  35
ENDBRANCH   4  29
TORSDOF 3
ENDMDL
MODEL 7
REMARK VINA RESULT:      -7.7      1.843      2.163
REMARK  Name = 
REMARK  4 active torsions:
REMARK  status: ('A' for Active; 'I' for Inactive)
REMARK    1  A    between atoms: C_1  and  C_2
REMARK    2  A    between atoms: C_3  and  C_4
REMARK    3  A    between atoms: C_12  and  C_13
REMARK    4  A    between atoms: C_18  and  C_19
REMARK                            x       y       z     vdW  Elec       q    Type
REMARK                         _______ _______ _______ _____ _____    ______ ____
ROOT
ATOM      1  C   UNL     1       2.366  12.642  18.191  0.00  0.00    +0.000 C 
ATOM      2  C   UNL     1       1.347  12.098  19.162  0.00  0.00    +0.000 C 
ATOM      3  C   UNL     1       0.342  12.794  19.750  0.00  0.00    +0.000 C 
ATOM      4  C   UNL     1      -0.703  12.042  20.573  0.00  0.00    +0.000 C 
ATOM      5  N   UNL     1      -0.342  10.655  20.933  0.00  0.00    +0.000 NA
ATOM      6  C   UNL     1       0.657  10.095  20.321  0.00  0.00    +0.000 C 
ATOM      7  N   UNL     1       0.915   8.817  20.681  0.00  0.00    +0.000 N 
ATOM      8  C   UNL     1       1.605   7.751  20.239  0.00  0.00    +0.000 A 
ATOM      9  N   UNL     1       1.596   6.587  20.857  0.00  0.00    +0.000 NA
ATOM     10  C   UNL     1       2.312   5.761  20.045  0.00  0.00    +0.000 A 
ATOM     11  C   UNL     1       2.609   4.397  20.177  0.00  0.00    +0.000 A 
ATOM     12  C   UNL     1       3.358   3.782  19.166  0.00  0.00    +0.000 A 
ATOM     13  C   UNL     1       3.797   4.514  18.058  0.00  0.00    +0.000 A 
ATOM     14  C   UNL     1       3.509   5.884  17.915  0.00  0.00    +0.000 A 
ATOM     15  C   UNL     1       2.760   6.465  18.938  0.00  0.00    +0.000 A 
ATOM     16  O   UNL     1       2.316   7.766  19.064  0.00  0.00    +0.000 OA
ATOM     17  N   UNL     1       1.449  10.733  19.424  0.00  0.00    +0.000 N 
ATOM     18  H   UNL     1       0.309   8.560  21.448  0.00  0.00    +0.000 HD
ATOM     19  H   UNL     1       2.210  10.226  18.986  0.00  0.00    +0.000 HD
ENDROOT
BRANCH   3  20
ATOM     20  C   UNL     1       0.060  14.240  19.414  0.00  0.00    +0.000 C 
ATOM     21  O   UNL     1      -1.068  14.680  19.617  0.00  0.00    +0.000 OA
ATOM     22  N   UNL     1       1.118  14.978  18.925  0.00  0.00    +0.000 N 
ATOM     23  C   UNL     1       1.060  16.312  18.565  0.00  0.00    +0.000 A 
ATOM     24  N   UNL     1       2.058  16.930  17.966  0.00  0.00    +0.000 NA
ATOM     25  N   UNL     1       1.746  18.241  17.637  0.00  0.00    +0.000 NA
ATOM     26  C   UNL     1       0.535  18.564  18.036  0.00  0.00    +0.000 A 
ATOM     27  S   UNL     1      -0.291  17.316  18.860  0.00  0.00    +0.000 S 
ATOM     28  H   UNL     1       2.010  14.558  18.718  0.00  0.00    +0.000 HD
ENDBRANCH   3  20
BRANCH   4  29
ATOM     29  C   UNL     1      -2.083  12.021  19.901  0.00  0.00    +0.000 A 
ATOM     30  C   UNL     1      -2.190  11.496  18.589  0.00  0.00    +0.000 A 
ATOM     31  C   UNL     1      -3.391  11.495  17.889  0.00  0.00    +0.000 A 
ATOM     32  C   UNL     1      -4.538  11.978  18.493  0.00  0.00    +0.000 A 
ATOM     33  C   UNL     1      -4.481  12.432  19.809  0.00  0.00    +0.000 A 
ATOM     34  C   UNL     1      -3.270  12.450  20.541  0.00  0.00    +0.000 A 
BRANCH  34  35
ATOM     35  C   UNL     1      -3.375  12.934  21.973  0.00  0.00    +0.000 C 
ATOM     36  F   UNL     1      -2.656  14.042  22.289  0.00  0.00    +0.000 F 
ATOM     37  F   UNL     1      -4.665  13.241  22.299  0.00  0.00    +0.000 F 
ATOM     38  F   UNL     1      -2.995  11.979  22.870  0.00  0.00    +0.000 F 
ENDBRANCH  34  35
ENDBRANCH   4  29
TORSDOF 3
ENDMDL
MODEL 8
REMARK VINA RESULT:      -7.6      2.759      4.298
REMARK  Name = 
REMARK  4 active torsions:
REMARK  status: ('A' for Active; 'I' for Inactive)
REMARK    1  A    between atoms: C_1  and  C_2
REMARK    2  A    between atoms: C_3  and  C_4
REMARK    3  A    between atoms: C_12  and  C_13
REMARK    4  A    between atoms: C_18  and  C_19
REMARK                            x       y       z     vdW  Elec       q    Type
REMARK                         _______ _______ _______ _____ _____    ______ ____
ROOT
ATOM      1  C   UNL     1      -1.006  10.222  22.627  0.00  0.00    +0.000 C 
ATOM      2  C   UNL     1      -0.499  10.922  21.390  0.00  0.00    +0.000 C 
ATOM      3  C   UNL     1      -0.725  12.213  21.045  0.00  0.00    +0.000 C 
ATOM      4  C   UNL     1       0.012  12.804  19.844  0.00  0.00    +0.000 C 
ATOM      5  N   UNL     1       0.663  11.818  18.958  0.00  0.00    +0.000 NA
ATOM      6  C   UNL     1       0.805  10.599  19.384  0.00  0.00    +0.000 C 
ATOM      7  N   UNL     1       1.432   9.756  18.532  0.00  0.00    +0.000 N 
ATOM      8  C   UNL     1       2.030   8.552  18.542  0.00  0.00    +0.000 A 
ATOM      9  N   UNL     1       2.603   8.029  17.476  0.00  0.00    +0.000 NA
ATOM     10  C   UNL     1       3.177   6.878  17.925  0.00  0.00    +0.000 A 
ATOM     11  C   UNL     1       3.945   5.925  17.242  0.00  0.00    +0.000 A 
ATOM     12  C   UNL     1       4.437   4.830  17.964  0.00  0.00    +0.000 A 
ATOM     13  C   UNL     1       4.162   4.695  19.329  0.00  0.00    +0.000 A 
ATOM     14  C   UNL     1       3.389   5.643  20.025  0.00  0.00    +0.000 A 
ATOM     15  C   UNL     1       2.917   6.721  19.278  0.00  0.00    +0.000 A 
ATOM     16  O   UNL     1       2.158   7.801  19.684  0.00  0.00    +0.000 OA
ATOM     17  N   UNL     1       0.317  10.150  20.566  0.00  0.00    +0.000 N 
ATOM     18  H   UNL     1       1.603  10.234  17.658  0.00  0.00    +0.000 HD
ATOM     19  H   UNL     1       0.472   9.183  20.830  0.00  0.00    +0.000 HD
ENDROOT
BRANCH   3  20
ATOM     20  C   UNL     1      -1.472  13.169  21.947  0.00  0.00    +0.000 C 
ATOM     21  O   UNL     1      -2.665  13.366  21.735  0.00  0.00    +0.000 OA
ATOM     22  N   UNL     1      -0.752  13.735  22.979  0.00  0.00    +0.000 N 
ATOM     23  C   UNL     1      -1.256  14.626  23.908  0.00  0.00    +0.000 A 
ATOM     24  N   UNL     1      -0.492  15.251  24.781  0.00  0.00    +0.000 NA
ATOM     25  N   UNL     1      -1.205  16.148  25.562  0.00  0.00    +0.000 NA
ATOM     26  C   UNL     1      -2.486  16.134  25.264  0.00  0.00    +0.000 A 
ATOM     27  S   UNL     1      -2.914  15.016  24.045  0.00  0.00    +0.000 S 
ATOM     28  H   UNL     1       0.241  13.590  23.078  0.00  0.00    +0.000 HD
ENDBRANCH   3  20
BRANCH   4  29
ATOM     29  C   UNL     1       1.058  13.852  20.249  0.00  0.00    +0.000 A 
ATOM     30  C   UNL     1       2.282  13.407  20.804  0.00  0.00    +0.000 A 
ATOM     31  C   UNL     1       3.258  14.292  21.250  0.00  0.00    +0.000 A 
ATOM     32  C   UNL     1       3.061  15.655  21.114  0.00  0.00    +0.000 A 
ATOM     33  C   UNL     1       1.899  16.123  20.504  0.00  0.00    +0.000 A 
ATOM     34  C   UNL     1       0.888  15.243  20.047  0.00  0.00    +0.000 A 
BRANCH  34  35
ATOM     35  C   UNL     1      -0.297  15.899  19.369  0.00  0.00    +0.000 C 
ATOM     36  F   UNL     1      -1.495  15.773  19.996  0.00  0.00    +0.000 F 
ATOM     37  F   UNL     1      -0.107  17.244  19.230  0.00  0.00    +0.000 F 
ATOM     38  F   UNL     1      -0.492  15.429  18.103  0.00  0.00    +0.000 F 
ENDBRANCH  34  35
ENDBRANCH   4  29
TORSDOF 3
ENDMDL
MODEL 9
REMARK VINA RESULT:      -7.3      3.017      4.684
REMARK  Name = 
REMARK  4 active torsions:
REMARK  status: ('A' for Active; 'I' for Inactive)
REMARK    1  A    between atoms: C_1  and  C_2
REMARK    2  A    between atoms: C_3  and  C_4
REMARK    3  A    between atoms: C_12  and  C_13
REMARK    4  A    between atoms: C_18  and  C_19
REMARK                            x       y       z     vdW  Elec       q    Type
REMARK                         _______ _______ _______ _____ _____    ______ ____
ROOT
ATOM      1  C   UNL     1      -1.103  10.691  23.085  0.00  0.00    +0.000 C 
ATOM      2  C   UNL     1      -0.631  11.365  21.820  0.00  0.00    +0.000 C 
ATOM      3  C   UNL     1      -0.812  12.666  21.484  0.00  0.00    +0.000 C 
ATOM      4  C   UNL     1      -0.114  13.219  20.242  0.00  0.00    +0.000 C 
ATOM      5  N   UNL     1       0.437  12.201  19.325  0.00  0.00    +0.000 NA
ATOM      6  C   UNL     1       0.542  10.978  19.746  0.00  0.00    +0.000 C 
ATOM      7  N   UNL     1       1.079  10.104  18.864  0.00  0.00    +0.000 N 
ATOM      8  C   UNL     1       1.617   8.872  18.844  0.00  0.00    +0.000 A 
ATOM      9  N   UNL     1       2.104   8.321  17.750  0.00  0.00    +0.000 NA
ATOM     10  C   UNL     1       2.644   7.143  18.169  0.00  0.00    +0.000 A 
ATOM     11  C   UNL     1       3.325   6.153  17.449  0.00  0.00    +0.000 A 
ATOM     12  C   UNL     1       3.802   5.036  18.146  0.00  0.00    +0.000 A 
ATOM     13  C   UNL     1       3.596   4.915  19.524  0.00  0.00    +0.000 A 
ATOM     14  C   UNL     1       2.911   5.900  20.259  0.00  0.00    +0.000 A 
ATOM     15  C   UNL     1       2.452   7.000  19.535  0.00  0.00    +0.000 A 
ATOM     16  O   UNL     1       1.770   8.116  19.980  0.00  0.00    +0.000 OA
ATOM     17  N   UNL     1       0.100  10.553  20.954  0.00  0.00    +0.000 N 
ATOM     18  H   UNL     1       1.225  10.573  17.980  0.00  0.00    +0.000 HD
ATOM     19  H   UNL     1       0.220   9.580  21.212  0.00  0.00    +0.000 HD
ENDROOT
BRANCH   3  20
ATOM     20  C   UNL     1      -1.460  13.658  22.423  0.00  0.00    +0.000 C 
ATOM     21  O   UNL     1      -0.764  14.197  23.279  0.00  0.00    +0.000 OA
ATOM     22  N   UNL     1      -2.801  13.911  22.224  0.00  0.00    +0.000 N 
ATOM     23  C   UNL     1      -3.567  14.785  22.974  0.00  0.00    +0.000 A 
ATOM     24  N   UNL     1      -4.875  14.880  22.839  0.00  0.00    +0.000 NA
ATOM     25  N   UNL     1      -5.436  15.767  23.744  0.00  0.00    +0.000 NA
ATOM     26  C   UNL     1      -4.520  16.330  24.500  0.00  0.00    +0.000 A 
ATOM     27  S   UNL     1      -2.920  15.846  24.146  0.00  0.00    +0.000 S 
ATOM     28  H   UNL     1      -3.346  13.400  21.547  0.00  0.00    +0.000 HD
ENDBRANCH   3  20
BRANCH   4  29
ATOM     29  C   UNL     1       1.003  14.215  20.585  0.00  0.00    +0.000 A 
ATOM     30  C   UNL     1       2.183  13.724  21.196  0.00  0.00    +0.000 A 
ATOM     31  C   UNL     1       3.217  14.566  21.592  0.00  0.00    +0.000 A 
ATOM     32  C   UNL     1       3.125  15.925  21.348  0.00  0.00    +0.000 A 
ATOM     33  C   UNL     1       2.010  16.429  20.682  0.00  0.00    +0.000 A 
ATOM     34  C   UNL     1       0.942  15.594  20.275  0.00  0.00    +0.000 A 
BRANCH  34  35
ATOM     35  C   UNL     1      -0.181  16.282  19.526  0.00  0.00    +0.000 C 
ATOM     36  F   UNL     1      -0.028  17.612  19.300  0.00  0.00    +0.000 F 
ATOM     37  F   UNL     1      -0.366  15.729  18.291  0.00  0.00    +0.000 F 
ATOM     38  F   UNL     1      -1.381  16.151  20.162  0.00  0.00    +0.000 F 
ENDBRANCH  34  35
ENDBRANCH   4  29
TORSDOF 3
ENDMDL
