MODEL 1
REMARK VINA RESULT:      -7.5      0.000      0.000
REMARK  Name = 
REMARK  9 active torsions:
REMARK  status: ('A' for Active; 'I' for Inactive)
REMARK    1  A    between atoms: C_1  and  O_2
REMARK    2  A    between atoms: O_2  and  C_3
REMARK    3  A    between atoms: C_6  and  C_7
REMARK    4  A    between atoms: N_9  and  C_10
REMARK    5  A    between atoms: C_10  and  C_11
REMARK    6  A    between atoms: C_10  and  C_20
REMARK    7  A    between atoms: N_13  and  C_14
REMARK    8  A    between atoms: C_20  and  C_21
REMARK    9  A    between atoms: C_20  and  C_22
REMARK                            x       y       z     vdW  Elec       q    Type
REMARK                         _______ _______ _______ _____ _____    ______ ____
ROOT
ATOM      1  C   UNL     1       4.533   5.960  17.524  0.00  0.00    +0.000 C 
ENDROOT
BRANCH   1   4
ATOM      2  C   UNL     1       2.892   7.821  17.961  0.00  0.00    +0.000 C 
ATOM      3  O   UNL     1       2.975   8.246  16.813  0.00  0.00    +0.000 OA
ATOM      4  N   UNL     1       3.612   6.724  18.387  0.00  0.00    +0.000 N 
ATOM      5  H   UNL     1       3.336   6.259  19.235  0.00  0.00    +0.000 HD
BRANCH   2   9
ATOM      6  C   UNL     1       0.233   9.603  20.859  0.00  0.00    +0.000 A 
ATOM      7  C   UNL     1       0.968   8.458  21.169  0.00  0.00    +0.000 A 
ATOM      8  C   UNL     1       1.812   7.874  20.214  0.00  0.00    +0.000 A 
ATOM      9  C   UNL     1       1.915   8.421  18.927  0.00  0.00    +0.000 A 
ATOM     10  C   UNL     1       1.116   9.524  18.603  0.00  0.00    +0.000 A 
ATOM     11  C   UNL     1       0.289  10.115  19.565  0.00  0.00    +0.000 A 
BRANCH   6  13
ATOM     12  C   UNL     1      -0.245   9.630  23.171  0.00  0.00    +0.000 C 
ATOM     13  O   UNL     1      -0.540  10.118  21.863  0.00  0.00    +0.000 OA
ENDBRANCH   6  13
ENDBRANCH   2   9
ENDBRANCH   1   4
BRANCH   1  14
ATOM     14  C   UNL     1       4.127   4.457  17.519  0.00  0.00    +0.000 C 
ATOM     15  O   UNL     1       4.575   3.624  16.738  0.00  0.00    +0.000 OA
ATOM     16  N   UNL     1       3.129   4.150  18.438  0.00  0.00    +0.000 N 
ATOM     17  H   UNL     1       2.818   4.906  19.044  0.00  0.00    +0.000 HD
BRANCH  16  18
ATOM     18  C   UNL     1       2.557   2.820  18.616  0.00  0.00    +0.000 C 
ATOM     19  C   UNL     1       3.241   2.053  19.758  0.00  0.00    +0.000 C 
ATOM     20  C   UNL     1       2.912   2.630  21.135  0.00  0.00    +0.000 C 
ATOM     21  C   UNL     1       1.407   2.746  21.366  0.00  0.00    +0.000 C 
ATOM     22  C   UNL     1       0.710   3.502  20.240  0.00  0.00    +0.000 C 
ATOM     23  C   UNL     1       1.046   2.912  18.869  0.00  0.00    +0.000 C 
ENDBRANCH  16  18
ENDBRANCH   1  14
BRANCH   1  24
ATOM     24  C   UNL     1       6.001   6.266  17.937  0.00  0.00    +0.000 C 
ATOM     25  C   UNL     1       6.521   5.454  19.129  0.00  0.00    +0.000 C 
ATOM     26  C   UNL     1       6.983   6.157  16.767  0.00  0.00    +0.000 C 
ENDBRANCH   1  24
TORSDOF 6
ENDMDL
MODEL 2
REMARK VINA RESULT:      -7.4      1.455      2.010
REMARK  Name = 
REMARK  9 active torsions:
REMARK  status: ('A' for Active; 'I' for Inactive)
REMARK    1  A    between atoms: C_1  and  O_2
REMARK    2  A    between atoms: O_2  and  C_3
REMARK    3  A    between atoms: C_6  and  C_7
REMARK    4  A    between atoms: N_9  and  C_10
REMARK    5  A    between atoms: C_10  and  C_11
REMARK    6  A    between atoms: C_10  and  C_20
REMARK    7  A    between atoms: N_13  and  C_14
REMARK    8  A    between atoms: C_20  and  C_21
REMARK    9  A    between atoms: C_20  and  C_22
REMARK                            x       y       z     vdW  Elec       q    Type
REMARK                         _______ _______ _______ _____ _____    ______ ____
ROOT
ATOM      1  C   UNL     1       5.036   5.259  17.541  0.00  0.00    +0.000 C 
ENDROOT
BRANCH   1   4
ATOM      2  C   UNL     1       2.912   6.517  18.041  0.00  0.00    +0.000 C 
ATOM      3  O   UNL     1       2.202   5.579  17.689  0.00  0.00    +0.000 OA
ATOM      4  N   UNL     1       4.289   6.445  17.998  0.00  0.00    +0.000 N 
ATOM      5  H   UNL     1       4.828   7.117  18.518  0.00  0.00    +0.000 HD
BRANCH   2   9
ATOM      6  C   UNL     1       1.008  10.053  19.628  0.00  0.00    +0.000 A 
ATOM      7  C   UNL     1       1.502  10.029  18.323  0.00  0.00    +0.000 A 
ATOM      8  C   UNL     1       2.137   8.883  17.823  0.00  0.00    +0.000 A 
ATOM      9  C   UNL     1       2.305   7.753  18.635  0.00  0.00    +0.000 A 
ATOM     10  C   UNL     1       1.875   7.814  19.967  0.00  0.00    +0.000 A 
ATOM     11  C   UNL     1       1.223   8.953  20.455  0.00  0.00    +0.000 A 
BRANCH   6  13
ATOM     12  C   UNL     1       1.238  12.248  20.467  0.00  0.00    +0.000 C 
ATOM     13  O   UNL     1       0.378  11.203  20.016  0.00  0.00    +0.000 OA
ENDBRANCH   6  13
ENDBRANCH   2   9
ENDBRANCH   1   4
BRANCH   1  14
ATOM     14  C   UNL     1       4.913   4.119  18.593  0.00  0.00    +0.000 C 
ATOM     15  O   UNL     1       5.785   3.834  19.407  0.00  0.00    +0.000 OA
ATOM     16  N   UNL     1       3.741   3.379  18.472  0.00  0.00    +0.000 N 
ATOM     17  H   UNL     1       3.076   3.689  17.767  0.00  0.00    +0.000 HD
BRANCH  16  18
ATOM     18  C   UNL     1       3.396   2.244  19.321  0.00  0.00    +0.000 C 
ATOM     19  C   UNL     1       3.432   2.615  20.811  0.00  0.00    +0.000 C 
ATOM     20  C   UNL     1       2.297   3.556  21.213  0.00  0.00    +0.000 C 
ATOM     21  C   UNL     1       0.928   3.012  20.809  0.00  0.00    +0.000 C 
ATOM     22  C   UNL     1       0.873   2.635  19.331  0.00  0.00    +0.000 C 
ATOM     23  C   UNL     1       2.013   1.691  18.946  0.00  0.00    +0.000 C 
ENDBRANCH  16  18
ENDBRANCH   1  14
BRANCH   1  24
ATOM     24  C   UNL     1       6.485   5.677  17.158  0.00  0.00    +0.000 C 
ATOM     25  C   UNL     1       6.947   5.213  15.770  0.00  0.00    +0.000 C 
ATOM     26  C   UNL     1       6.731   7.180  17.311  0.00  0.00    +0.000 C 
ENDBRANCH   1  24
TORSDOF 6
ENDMDL
MODEL 3
REMARK VINA RESULT:      -7.4      1.074      1.444
REMARK  Name = 
REMARK  9 active torsions:
REMARK  status: ('A' for Active; 'I' for Inactive)
REMARK    1  A    between atoms: C_1  and  O_2
REMARK    2  A    between atoms: O_2  and  C_3
REMARK    3  A    between atoms: C_6  and  C_7
REMARK    4  A    between atoms: N_9  and  C_10
REMARK    5  A    between atoms: C_10  and  C_11
REMARK    6  A    between atoms: C_10  and  C_20
REMARK    7  A    between atoms: N_13  and  C_14
REMARK    8  A    between atoms: C_20  and  C_21
REMARK    9  A    between atoms: C_20  and  C_22
REMARK                            x       y       z     vdW  Elec       q    Type
REMARK                         _______ _______ _______ _____ _____    ______ ____
ROOT
ATOM      1  C   UNL     1       5.741   5.850  17.138  0.00  0.00    +0.000 C 
ENDROOT
BRANCH   1   4
ATOM      2  C   UNL     1       3.765   7.398  17.351  0.00  0.00    +0.000 C 
ATOM      3  O   UNL     1       3.688   7.565  16.138  0.00  0.00    +0.000 OA
ATOM      4  N   UNL     1       4.728   6.588  17.916  0.00  0.00    +0.000 N 
ATOM      5  H   UNL     1       4.609   6.278  18.866  0.00  0.00    +0.000 HD
BRANCH   2   9
ATOM      6  C   UNL     1       0.955   9.138  20.131  0.00  0.00    +0.000 A 
ATOM      7  C   UNL     1       1.567   7.912  20.402  0.00  0.00    +0.000 A 
ATOM      8  C   UNL     1       2.461   7.345  19.483  0.00  0.00    +0.000 A 
ATOM      9  C   UNL     1       2.738   7.991  18.270  0.00  0.00    +0.000 A 
ATOM     10  C   UNL     1       2.061   9.181  17.975  0.00  0.00    +0.000 A 
ATOM     11  C   UNL     1       1.184   9.753  18.903  0.00  0.00    +0.000 A 
BRANCH   6  13
ATOM     12  C   UNL     1       0.468   9.271  22.438  0.00  0.00    +0.000 C 
ATOM     13  O   UNL     1       0.122   9.625  21.099  0.00  0.00    +0.000 OA
ENDBRANCH   6  13
ENDBRANCH   2   9
ENDBRANCH   1   4
BRANCH   1  14
ATOM     14  C   UNL     1       5.351   4.346  17.055  0.00  0.00    +0.000 C 
ATOM     15  O   UNL     1       5.782   3.567  16.211  0.00  0.00    +0.000 OA
ATOM     16  N   UNL     1       4.385   3.973  17.984  0.00  0.00    +0.000 N 
ATOM     17  H   UNL     1       4.085   4.687  18.643  0.00  0.00    +0.000 HD
BRANCH  16  18
ATOM     18  C   UNL     1       3.833   2.628  18.099  0.00  0.00    +0.000 C 
ATOM     19  C   UNL     1       3.836   2.132  19.552  0.00  0.00    +0.000 C 
ATOM     20  C   UNL     1       2.826   2.870  20.430  0.00  0.00    +0.000 C 
ATOM     21  C   UNL     1       1.419   2.842  19.836  0.00  0.00    +0.000 C 
ATOM     22  C   UNL     1       1.396   3.329  18.391  0.00  0.00    +0.000 C 
ATOM     23  C   UNL     1       2.409   2.578  17.524  0.00  0.00    +0.000 C 
ENDBRANCH  16  18
ENDBRANCH   1  14
BRANCH   1  24
ATOM     24  C   UNL     1       7.155   6.155  17.710  0.00  0.00    +0.000 C 
ATOM     25  C   UNL     1       7.607   7.615  17.575  0.00  0.00    +0.000 C 
ATOM     26  C   UNL     1       7.322   5.692  19.160  0.00  0.00    +0.000 C 
ENDBRANCH   1  24
TORSDOF 6
ENDMDL
MODEL 4
REMARK VINA RESULT:      -7.4      0.944      1.055
REMARK  Name = 
REMARK  9 active torsions:
REMARK  status: ('A' for Active; 'I' for Inactive)
REMARK    1  A    between atoms: C_1  and  O_2
REMARK    2  A    between atoms: O_2  and  C_3
REMARK    3  A    between atoms: C_6  and  C_7
REMARK    4  A    between atoms: N_9  and  C_10
REMARK    5  A    between atoms: C_10  and  C_11
REMARK    6  A    between atoms: C_10  and  C_20
REMARK    7  A    between atoms: N_13  and  C_14
REMARK    8  A    between atoms: C_20  and  C_21
REMARK    9  A    between atoms: C_20  and  C_22
REMARK                            x       y       z     vdW  Elec       q    Type
REMARK                         _______ _______ _______ _____ _____    ______ ____
ROOT
ATOM      1  C   UNL     1       3.624   6.248  17.464  0.00  0.00    +0.000 C 
ENDROOT
BRANCH   1   4
ATOM      2  C   UNL     1       2.306   8.191  18.375  0.00  0.00    +0.000 C 
ATOM      3  O   UNL     1       2.216   8.725  17.274  0.00  0.00    +0.000 OA
ATOM      4  N   UNL     1       2.971   6.996  18.554  0.00  0.00    +0.000 N 
ATOM      5  H   UNL     1       2.812   6.472  19.398  0.00  0.00    +0.000 HD
BRANCH   2   9
ATOM      6  C   UNL     1       0.449   9.878  21.890  0.00  0.00    +0.000 A 
ATOM      7  C   UNL     1       1.033   8.610  21.925  0.00  0.00    +0.000 A 
ATOM      8  C   UNL     1       1.615   8.062  20.774  0.00  0.00    +0.000 A 
ATOM      9  C   UNL     1       1.599   8.771  19.564  0.00  0.00    +0.000 A 
ATOM     10  C   UNL     1       0.944  10.008  19.521  0.00  0.00    +0.000 A 
ATOM     11  C   UNL     1       0.382  10.560  20.678  0.00  0.00    +0.000 A 
BRANCH   6  13
ATOM     12  C   UNL     1      -1.171  11.234  22.945  0.00  0.00    +0.000 C 
ATOM     13  O   UNL     1      -0.065  10.341  23.070  0.00  0.00    +0.000 OA
ENDBRANCH   6  13
ENDBRANCH   2   9
ENDBRANCH   1   4
BRANCH   1  14
ATOM     14  C   UNL     1       3.222   4.746  17.540  0.00  0.00    +0.000 C 
ATOM     15  O   UNL     1       3.582   3.894  16.734  0.00  0.00    +0.000 OA
ATOM     16  N   UNL     1       2.331   4.463  18.570  0.00  0.00    +0.000 N 
ATOM     17  H   UNL     1       2.087   5.233  19.187  0.00  0.00    +0.000 HD
BRANCH  16  18
ATOM     18  C   UNL     1       1.784   3.138  18.840  0.00  0.00    +0.000 C 
ATOM     19  C   UNL     1       2.887   2.122  19.171  0.00  0.00    +0.000 C 
ATOM     20  C   UNL     1       3.541   2.382  20.528  0.00  0.00    +0.000 C 
ATOM     21  C   UNL     1       2.513   2.473  21.654  0.00  0.00    +0.000 C 
ATOM     22  C   UNL     1       1.407   3.476  21.342  0.00  0.00    +0.000 C 
ATOM     23  C   UNL     1       0.760   3.201  19.983  0.00  0.00    +0.000 C 
ENDBRANCH  16  18
ENDBRANCH   1  14
BRANCH   1  24
ATOM     24  C   UNL     1       5.151   6.544  17.477  0.00  0.00    +0.000 C 
ATOM     25  C   UNL     1       5.963   5.716  18.482  0.00  0.00    +0.000 C 
ATOM     26  C   UNL     1       5.788   6.444  16.088  0.00  0.00    +0.000 C 
ENDBRANCH   1  24
TORSDOF 6
ENDMDL
MODEL 5
REMARK VINA RESULT:      -7.3      0.377      1.246
REMARK  Name = 
REMARK  9 active torsions:
REMARK  status: ('A' for Active; 'I' for Inactive)
REMARK    1  A    between atoms: C_1  and  O_2
REMARK    2  A    between atoms: O_2  and  C_3
REMARK    3  A    between atoms: C_6  and  C_7
REMARK    4  A    between atoms: N_9  and  C_10
REMARK    5  A    between atoms: C_10  and  C_11
REMARK    6  A    between atoms: C_10  and  C_20
REMARK    7  A    between atoms: N_13  and  C_14
REMARK    8  A    between atoms: C_20  and  C_21
REMARK    9  A    between atoms: C_20  and  C_22
REMARK                            x       y       z     vdW  Elec       q    Type
REMARK                         _______ _______ _______ _____ _____    ______ ____
ROOT
ATOM      1  C   UNL     1       4.619   5.717  17.407  0.00  0.00    +0.000 C 
ENDROOT
BRANCH   1   4
ATOM      2  C   UNL     1       2.999   7.575  17.925  0.00  0.00    +0.000 C 
ATOM      3  O   UNL     1       2.924   7.919  16.749  0.00  0.00    +0.000 OA
ATOM      4  N   UNL     1       3.796   6.524  18.327  0.00  0.00    +0.000 N 
ATOM      5  H   UNL     1       3.644   6.115  19.234  0.00  0.00    +0.000 HD
BRANCH   2   9
ATOM      6  C   UNL     1       0.363   9.417  20.806  0.00  0.00    +0.000 A 
ATOM      7  C   UNL     1       0.630  10.033  19.582  0.00  0.00    +0.000 A 
ATOM      8  C   UNL     1       1.504   9.437  18.662  0.00  0.00    +0.000 A 
ATOM      9  C   UNL     1       2.138   8.225  18.967  0.00  0.00    +0.000 A 
ATOM     10  C   UNL     1       1.923   7.654  20.228  0.00  0.00    +0.000 A 
ATOM     11  C   UNL     1       1.034   8.243  21.135  0.00  0.00    +0.000 A 
BRANCH   6  13
ATOM     12  C   UNL     1      -0.421   9.734  23.011  0.00  0.00    +0.000 C 
ATOM     13  O   UNL     1      -0.526  10.058  21.625  0.00  0.00    +0.000 OA
ENDBRANCH   6  13
ENDBRANCH   2   9
ENDBRANCH   1   4
BRANCH   1  14
ATOM     14  C   UNL     1       4.177   4.225  17.473  0.00  0.00    +0.000 C 
ATOM     15  O   UNL     1       4.644   3.336  16.769  0.00  0.00    +0.000 OA
ATOM     16  N   UNL     1       3.125   3.999  18.355  0.00  0.00    +0.000 N 
ATOM     17  H   UNL     1       2.802   4.798  18.895  0.00  0.00    +0.000 HD
BRANCH  16  18
ATOM     18  C   UNL     1       2.513   2.695  18.583  0.00  0.00    +0.000 C 
ATOM     19  C   UNL     1       3.194   1.939  19.733  0.00  0.00    +0.000 C 
ATOM     20  C   UNL     1       2.914   2.566  21.099  0.00  0.00    +0.000 C 
ATOM     21  C   UNL     1       1.419   2.741  21.357  0.00  0.00    +0.000 C 
ATOM     22  C   UNL     1       0.724   3.488  20.222  0.00  0.00    +0.000 C 
ATOM     23  C   UNL     1       1.011   2.846  18.863  0.00  0.00    +0.000 C 
ENDBRANCH  16  18
ENDBRANCH   1  14
BRANCH   1  24
ATOM     24  C   UNL     1       6.125   5.992  17.683  0.00  0.00    +0.000 C 
ATOM     25  C   UNL     1       6.587   7.423  17.381  0.00  0.00    +0.000 C 
ATOM     26  C   UNL     1       6.552   5.597  19.099  0.00  0.00    +0.000 C 
ENDBRANCH   1  24
TORSDOF 6
ENDMDL
MODEL 6
REMARK VINA RESULT:      -7.3      1.713      4.520
REMARK  Name = 
REMARK  9 active torsions:
REMARK  status: ('A' for Active; 'I' for Inactive)
REMARK    1  A    between atoms: C_1  and  O_2
REMARK    2  A    between atoms: O_2  and  C_3
REMARK    3  A    between atoms: C_6  and  C_7
REMARK    4  A    between atoms: N_9  and  C_10
REMARK    5  A    between atoms: C_10  and  C_11
REMARK    6  A    between atoms: C_10  and  C_20
REMARK    7  A    between atoms: N_13  and  C_14
REMARK    8  A    between atoms: C_20  and  C_21
REMARK    9  A    between atoms: C_20  and  C_22
REMARK                            x       y       z     vdW  Elec       q    Type
REMARK                         _______ _______ _______ _____ _____    ______ ____
ROOT
ATOM      1  C   UNL     1       3.391   4.316  20.242  0.00  0.00    +0.000 C 
ENDROOT
BRANCH   1   4
ATOM      2  C   UNL     1       2.638   6.324  18.920  0.00  0.00    +0.000 C 
ATOM      3  O   UNL     1       2.741   5.733  17.849  0.00  0.00    +0.000 OA
ATOM      4  N   UNL     1       2.934   5.713  20.121  0.00  0.00    +0.000 N 
ATOM      5  H   UNL     1       2.605   6.131  20.975  0.00  0.00    +0.000 HD
BRANCH   2   9
ATOM      6  C   UNL     1       1.171  10.374  19.212  0.00  0.00    +0.000 A 
ATOM      7  C   UNL     1       1.030   9.482  20.276  0.00  0.00    +0.000 A 
ATOM      8  C   UNL     1       1.491   8.163  20.164  0.00  0.00    +0.000 A 
ATOM      9  C   UNL     1       2.080   7.715  18.974  0.00  0.00    +0.000 A 
ATOM     10  C   UNL     1       2.146   8.595  17.886  0.00  0.00    +0.000 A 
ATOM     11  C   UNL     1       1.703   9.917  18.009  0.00  0.00    +0.000 A 
BRANCH   6  13
ATOM     12  C   UNL     1      -0.569  11.937  18.882  0.00  0.00    +0.000 C 
ATOM     13  O   UNL     1       0.719  11.647  19.425  0.00  0.00    +0.000 OA
ENDBRANCH   6  13
ENDBRANCH   2   9
ENDBRANCH   1   4
BRANCH   1  14
ATOM     14  C   UNL     1       4.326   3.960  19.049  0.00  0.00    +0.000 C 
ATOM     15  O   UNL     1       4.170   2.989  18.317  0.00  0.00    +0.000 OA
ATOM     16  N   UNL     1       5.424   4.807  18.936  0.00  0.00    +0.000 N 
ATOM     17  H   UNL     1       5.470   5.585  19.590  0.00  0.00    +0.000 HD
BRANCH  16  18
ATOM     18  C   UNL     1       6.460   4.675  17.918  0.00  0.00    +0.000 C 
ATOM     19  C   UNL     1       6.129   5.488  16.659  0.00  0.00    +0.000 C 
ATOM     20  C   UNL     1       6.224   6.997  16.889  0.00  0.00    +0.000 C 
ATOM     21  C   UNL     1       7.574   7.405  17.476  0.00  0.00    +0.000 C 
ATOM     22  C   UNL     1       7.922   6.604  18.727  0.00  0.00    +0.000 C 
ATOM     23  C   UNL     1       7.825   5.098  18.480  0.00  0.00    +0.000 C 
ENDBRANCH  16  18
ENDBRANCH   1  14
BRANCH   1  24
ATOM     24  C   UNL     1       2.160   3.386  20.442  0.00  0.00    +0.000 C 
ATOM     25  C   UNL     1       2.198   2.527  21.713  0.00  0.00    +0.000 C 
ATOM     26  C   UNL     1       0.828   4.136  20.362  0.00  0.00    +0.000 C 
ENDBRANCH   1  24
TORSDOF 6
ENDMDL
MODEL 7
REMARK VINA RESULT:      -7.3      1.571      4.495
REMARK  Name = 
REMARK  9 active torsions:
REMARK  status: ('A' for Active; 'I' for Inactive)
REMARK    1  A    between atoms: C_1  and  O_2
REMARK    2  A    between atoms: O_2  and  C_3
REMARK    3  A    between atoms: C_6  and  C_7
REMARK    4  A    between atoms: N_9  and  C_10
REMARK    5  A    between atoms: C_10  and  C_11
REMARK    6  A    between atoms: C_10  and  C_20
REMARK    7  A    between atoms: N_13  and  C_14
REMARK    8  A    between atoms: C_20  and  C_21
REMARK    9  A    between atoms: C_20  and  C_22
REMARK                            x       y       z     vdW  Elec       q    Type
REMARK                         _______ _______ _______ _____ _____    ______ ____
ROOT
ATOM      1  C   UNL     1       3.376   3.916  20.065  0.00  0.00    +0.000 C 
ENDROOT
BRANCH   1   4
ATOM      2  C   UNL     1       2.649   6.120  19.085  0.00  0.00    +0.000 C 
ATOM      3  O   UNL     1       2.778   5.719  17.932  0.00  0.00    +0.000 OA
ATOM      4  N   UNL     1       2.919   5.315  20.172  0.00  0.00    +0.000 N 
ATOM      5  H   UNL     1       2.569   5.583  21.076  0.00  0.00    +0.000 HD
BRANCH   2   9
ATOM      6  C   UNL     1       0.881  10.002  19.751  0.00  0.00    +0.000 A 
ATOM      7  C   UNL     1       1.445   9.674  18.517  0.00  0.00    +0.000 A 
ATOM      8  C   UNL     1       2.036   8.418  18.317  0.00  0.00    +0.000 A 
ATOM      9  C   UNL     1       2.087   7.483  19.360  0.00  0.00    +0.000 A 
ATOM     10  C   UNL     1       1.587   7.851  20.616  0.00  0.00    +0.000 A 
ATOM     11  C   UNL     1       0.981   9.099  20.805  0.00  0.00    +0.000 A 
BRANCH   6  13
ATOM     12  C   UNL     1       1.194  12.310  20.147  0.00  0.00    +0.000 C 
ATOM     13  O   UNL     1       0.302  11.238  19.842  0.00  0.00    +0.000 OA
ENDBRANCH   6  13
ENDBRANCH   2   9
ENDBRANCH   1   4
BRANCH   1  14
ATOM     14  C   UNL     1       4.229   3.736  18.775  0.00  0.00    +0.000 C 
ATOM     15  O   UNL     1       3.989   2.911  17.900  0.00  0.00    +0.000 OA
ATOM     16  N   UNL     1       5.358   4.547  18.741  0.00  0.00    +0.000 N 
ATOM     17  H   UNL     1       5.475   5.200  19.512  0.00  0.00    +0.000 HD
BRANCH  16  18
ATOM     18  C   UNL     1       6.331   4.553  17.654  0.00  0.00    +0.000 C 
ATOM     19  C   UNL     1       5.937   5.536  16.541  0.00  0.00    +0.000 C 
ATOM     20  C   UNL     1       6.065   6.997  16.972  0.00  0.00    +0.000 C 
ATOM     21  C   UNL     1       7.452   7.313  17.528  0.00  0.00    +0.000 C 
ATOM     22  C   UNL     1       7.862   6.345  18.633  0.00  0.00    +0.000 C 
ATOM     23  C   UNL     1       7.732   4.888  18.186  0.00  0.00    +0.000 C 
ENDBRANCH  16  18
ENDBRANCH   1  14
BRANCH   1  24
ATOM     24  C   UNL     1       2.157   2.961  20.213  0.00  0.00    +0.000 C 
ATOM     25  C   UNL     1       1.670   2.753  21.653  0.00  0.00    +0.000 C 
ATOM     26  C   UNL     1       0.979   3.357  19.319  0.00  0.00    +0.000 C 
ENDBRANCH   1  24
TORSDOF 6
ENDMDL
MODEL 8
REMARK VINA RESULT:      -7.3      2.264      6.246
REMARK  Name = 
REMARK  9 active torsions:
REMARK  status: ('A' for Active; 'I' for Inactive)
REMARK    1  A    between atoms: C_1  and  O_2
REMARK    2  A    between atoms: O_2  and  C_3
REMARK    3  A    between atoms: C_6  and  C_7
REMARK    4  A    between atoms: N_9  and  C_10
REMARK    5  A    between atoms: C_10  and  C_11
REMARK    6  A    between atoms: C_10  and  C_20
REMARK    7  A    between atoms: N_13  and  C_14
REMARK    8  A    between atoms: C_20  and  C_21
REMARK    9  A    between atoms: C_20  and  C_22
REMARK                            x       y       z     vdW  Elec       q    Type
REMARK                         _______ _______ _______ _____ _____    ______ ____
ROOT
ATOM      1  C   UNL     1       2.594   7.205  19.279  0.00  0.00    +0.000 C 
ENDROOT
BRANCH   1   4
ATOM      2  C   UNL     1       4.502   5.961  18.201  0.00  0.00    +0.000 C 
ATOM      3  O   UNL     1       4.974   5.624  19.283  0.00  0.00    +0.000 OA
ATOM      4  N   UNL     1       3.358   6.726  18.111  0.00  0.00    +0.000 N 
ATOM      5  H   UNL     1       2.868   6.770  17.233  0.00  0.00    +0.000 HD
BRANCH   2   9
ATOM      6  C   UNL     1       6.068   4.397  14.494  0.00  0.00    +0.000 A 
ATOM      7  C   UNL     1       6.035   3.611  15.647  0.00  0.00    +0.000 A 
ATOM      8  C   UNL     1       5.544   4.134  16.851  0.00  0.00    +0.000 A 
ATOM      9  C   UNL     1       5.100   5.462  16.919  0.00  0.00    +0.000 A 
ATOM     10  C   UNL     1       5.209   6.265  15.777  0.00  0.00    +0.000 A 
ATOM     11  C   UNL     1       5.681   5.731  14.572  0.00  0.00    +0.000 A 
BRANCH   6  13
ATOM     12  C   UNL     1       5.541   3.455  12.393  0.00  0.00    +0.000 C 
ATOM     13  O   UNL     1       6.535   3.790  13.361  0.00  0.00    +0.000 OA
ENDBRANCH   6  13
ENDBRANCH   2   9
ENDBRANCH   1   4
BRANCH   1  14
ATOM     14  C   UNL     1       1.961   5.995  20.027  0.00  0.00    +0.000 C 
ATOM     15  O   UNL     1       1.491   6.053  21.158  0.00  0.00    +0.000 OA
ATOM     16  N   UNL     1       2.052   4.799  19.322  0.00  0.00    +0.000 N 
ATOM     17  H   UNL     1       2.459   4.848  18.391  0.00  0.00    +0.000 HD
BRANCH  16  18
ATOM     18  C   UNL     1       1.556   3.518  19.811  0.00  0.00    +0.000 C 
ATOM     19  C   UNL     1       1.120   2.598  18.661  0.00  0.00    +0.000 C 
ATOM     20  C   UNL     1       2.301   2.087  17.836  0.00  0.00    +0.000 C 
ATOM     21  C   UNL     1       3.367   1.423  18.706  0.00  0.00    +0.000 C 
ATOM     22  C   UNL     1       3.810   2.322  19.856  0.00  0.00    +0.000 C 
ATOM     23  C   UNL     1       2.618   2.822  20.675  0.00  0.00    +0.000 C 
ENDBRANCH  16  18
ENDBRANCH   1  14
BRANCH   1  24
ATOM     24  C   UNL     1       1.607   8.319  18.830  0.00  0.00    +0.000 C 
ATOM     25  C   UNL     1       1.094   9.222  19.959  0.00  0.00    +0.000 C 
ATOM     26  C   UNL     1       2.159   9.179  17.689  0.00  0.00    +0.000 C 
ENDBRANCH   1  24
TORSDOF 6
ENDMDL
MODEL 9
REMARK VINA RESULT:      -7.2      1.004      1.492
REMARK  Name = 
REMARK  9 active torsions:
REMARK  status: ('A' for Active; 'I' for Inactive)
REMARK    1  A    between atoms: C_1  and  O_2
REMARK    2  A    between atoms: O_2  and  C_3
REMARK    3  A    between atoms: C_6  and  C_7
REMARK    4  A    between atoms: N_9  and  C_10
REMARK    5  A    between atoms: C_10  and  C_11
REMARK    6  A    between atoms: C_10  and  C_20
REMARK    7  A    between atoms: N_13  and  C_14
REMARK    8  A    between atoms: C_20  and  C_21
REMARK    9  A    between atoms: C_20  and  C_22
REMARK                            x       y       z     vdW  Elec       q    Type
REMARK                         _______ _______ _______ _____ _____    ______ ____
ROOT
ATOM      1  C   UNL     1       5.196   5.561  17.641  0.00  0.00    +0.000 C 
ENDROOT
BRANCH   1   4
ATOM      2  C   UNL     1       2.959   6.556  18.235  0.00  0.00    +0.000 C 
ATOM      3  O   UNL     1       2.356   5.816  17.463  0.00  0.00    +0.000 OA
ATOM      4  N   UNL     1       4.330   6.500  18.379  0.00  0.00    +0.000 N 
ATOM      5  H   UNL     1       4.753   6.932  19.182  0.00  0.00    +0.000 HD
BRANCH   2   9
ATOM      6  C   UNL     1       0.642   9.226  20.714  0.00  0.00    +0.000 A 
ATOM      7  C   UNL     1       1.023   9.596  19.423  0.00  0.00    +0.000 A 
ATOM      8  C   UNL     1       1.793   8.731  18.634  0.00  0.00    +0.000 A 
ATOM      9  C   UNL     1       2.209   7.491  19.137  0.00  0.00    +0.000 A 
ATOM     10  C   UNL     1       1.887   7.162  20.460  0.00  0.00    +0.000 A 
ATOM     11  C   UNL     1       1.101   8.021  21.238  0.00  0.00    +0.000 A 
BRANCH   6  13
ATOM     12  C   UNL     1      -0.313   9.842  22.785  0.00  0.00    +0.000 C 
ATOM     13  O   UNL     1      -0.134  10.122  21.397  0.00  0.00    +0.000 OA
ENDBRANCH   6  13
ENDBRANCH   2   9
ENDBRANCH   1   4
BRANCH   1  14
ATOM     14  C   UNL     1       4.663   4.108  17.809  0.00  0.00    +0.000 C 
ATOM     15  O   UNL     1       4.605   3.285  16.902  0.00  0.00    +0.000 OA
ATOM     16  N   UNL     1       4.167   3.844  19.082  0.00  0.00    +0.000 N 
ATOM     17  H   UNL     1       4.257   4.588  19.770  0.00  0.00    +0.000 HD
BRANCH  16  18
ATOM     18  C   UNL     1       3.592   2.568  19.490  0.00  0.00    +0.000 C 
ATOM     19  C   UNL     1       3.406   2.487  21.013  0.00  0.00    +0.000 C 
ATOM     20  C   UNL     1       2.300   3.411  21.522  0.00  0.00    +0.000 C 
ATOM     21  C   UNL     1       0.980   3.186  20.789  0.00  0.00    +0.000 C 
ATOM     22  C   UNL     1       1.145   3.260  19.274  0.00  0.00    +0.000 C 
ATOM     23  C   UNL     1       2.252   2.328  18.779  0.00  0.00    +0.000 C 
ENDBRANCH  16  18
ENDBRANCH   1  14
BRANCH   1  24
ATOM     24  C   UNL     1       6.678   5.793  18.052  0.00  0.00    +0.000 C 
ATOM     25  C   UNL     1       7.632   4.642  17.711  0.00  0.00    +0.000 C 
ATOM     26  C   UNL     1       7.244   7.112  17.517  0.00  0.00    +0.000 C 
ENDBRANCH   1  24
TORSDOF 6
ENDMDL
