MODEL 1
REMARK VINA RESULT:      -6.9      0.000      0.000
REMARK  Name = 
REMARK  4 active torsions:
REMARK  status: ('A' for Active; 'I' for Inactive)
REMARK    1  A    between atoms: C_1  and  C_2
REMARK    2  A    between atoms: C_2  and  O_4
REMARK    3  A    between atoms: O_4  and  C_5
REMARK    4  A    between atoms: C_20  and  C_21
REMARK                            x       y       z     vdW  Elec       q    Type
REMARK                         _______ _______ _______ _____ _____    ______ ____
ROOT
ATOM      1  C   UNL     1      -5.672  13.678  22.514  0.00  0.00    +0.000 C 
ATOM      2  C   UNL     1      -4.212  13.872  22.811  0.00  0.00    +0.000 A 
ATOM      3  C   UNL     1      -3.893  14.359  24.102  0.00  0.00    +0.000 A 
ATOM      4  C   UNL     1      -2.577  14.462  24.514  0.00  0.00    +0.000 A 
ATOM      5  C   UNL     1      -1.566  14.096  23.634  0.00  0.00    +0.000 A 
ATOM      6  C   UNL     1      -1.879  13.600  22.355  0.00  0.00    +0.000 A 
ATOM      7  C   UNL     1      -3.207  13.446  21.906  0.00  0.00    +0.000 A 
ATOM      8  C   UNL     1      -3.580  12.807  20.598  0.00  0.00    +0.000 A 
ATOM      9  C   UNL     1      -2.714  12.323  19.625  0.00  0.00    +0.000 A 
ATOM     10  C   UNL     1      -3.174  11.684  18.471  0.00  0.00    +0.000 A 
ATOM     11  C   UNL     1      -4.499  11.552  18.135  0.00  0.00    +0.000 A 
ATOM     12  C   UNL     1      -5.404  12.177  18.975  0.00  0.00    +0.000 A 
ATOM     13  C   UNL     1      -4.948  12.719  20.220  0.00  0.00    +0.000 A 
ATOM     14  C   UNL     1      -6.030  13.346  21.058  0.00  0.00    +0.000 C 
ATOM     15  N   UNL     1      -6.778  14.267  20.174  0.00  0.00    +0.000 N 
ATOM     16  C   UNL     1      -6.131  15.402  19.658  0.00  0.00    +0.000 C 
ATOM     17  C   UNL     1      -6.869  16.162  18.568  0.00  0.00    +0.000 C 
ATOM     18  O   UNL     1      -5.027  15.786  20.036  0.00  0.00    +0.000 OA
ATOM     19  C   UNL     1      -7.650  13.482  19.303  0.00  0.00    +0.000 C 
ATOM     20  C   UNL     1      -6.839  12.420  18.501  0.00  0.00    +0.000 C 
ATOM     21  O   UNL     1      -2.151  11.311  17.634  0.00  0.00    +0.000 OA
ATOM     22  C   UNL     1      -1.100  12.106  18.199  0.00  0.00    +0.000 C 
ATOM     23  O   UNL     1      -1.348  12.435  19.582  0.00  0.00    +0.000 OA
ENDROOT
BRANCH   1  24
ATOM     24  O   UNL     1      -5.964  12.455  23.281  0.00  0.00    +0.000 OA
BRANCH  24  26
ATOM     25  C   UNL     1      -7.737  13.573  24.324  0.00  0.00    +0.000 C 
ATOM     26  C   UNL     1      -7.210  12.281  23.771  0.00  0.00    +0.000 C 
ATOM     27  O   UNL     1      -7.803  11.211  23.832  0.00  0.00    +0.000 OA
ENDBRANCH  24  26
ENDBRANCH   1  24
TORSDOF 2
ENDMDL
MODEL 2
REMARK VINA RESULT:      -6.7      2.827      6.716
REMARK  Name = 
REMARK  4 active torsions:
REMARK  status: ('A' for Active; 'I' for Inactive)
REMARK    1  A    between atoms: C_1  and  C_2
REMARK    2  A    between atoms: C_2  and  O_4
REMARK    3  A    between atoms: O_4  and  C_5
REMARK    4  A    between atoms: C_20  and  C_21
REMARK                            x       y       z     vdW  Elec       q    Type
REMARK                         _______ _______ _______ _____ _____    ______ ____
ROOT
ATOM      1  C   UNL     1      -0.305  11.134  19.325  0.00  0.00    +0.000 C 
ATOM      2  C   UNL     1      -1.518  10.989  18.449  0.00  0.00    +0.000 A 
ATOM      3  C   UNL     1      -1.418  10.055  17.390  0.00  0.00    +0.000 A 
ATOM      4  C   UNL     1      -2.514   9.763  16.599  0.00  0.00    +0.000 A 
ATOM      5  C   UNL     1      -3.716  10.415  16.848  0.00  0.00    +0.000 A 
ATOM      6  C   UNL     1      -3.822  11.335  17.908  0.00  0.00    +0.000 A 
ATOM      7  C   UNL     1      -2.740  11.636  18.761  0.00  0.00    +0.000 A 
ATOM      8  C   UNL     1      -2.850  12.518  19.973  0.00  0.00    +0.000 A 
ATOM      9  C   UNL     1      -3.978  13.196  20.415  0.00  0.00    +0.000 A 
ATOM     10  C   UNL     1      -3.984  13.937  21.600  0.00  0.00    +0.000 A 
ATOM     11  C   UNL     1      -2.878  14.147  22.386  0.00  0.00    +0.000 A 
ATOM     12  C   UNL     1      -1.682  13.649  21.899  0.00  0.00    +0.000 A 
ATOM     13  C   UNL     1      -1.695  12.784  20.758  0.00  0.00    +0.000 A 
ATOM     14  C   UNL     1      -0.337  12.284  20.343  0.00  0.00    +0.000 C 
ATOM     15  N   UNL     1       0.550  13.466  20.263  0.00  0.00    +0.000 N 
ATOM     16  C   UNL     1       0.303  14.446  19.288  0.00  0.00    +0.000 C 
ATOM     17  C   UNL     1       1.087  15.741  19.420  0.00  0.00    +0.000 C 
ATOM     18  O   UNL     1      -0.500  14.303  18.368  0.00  0.00    +0.000 OA
ATOM     19  C   UNL     1       0.910  13.877  21.618  0.00  0.00    +0.000 C 
ATOM     20  C   UNL     1      -0.358  14.146  22.482  0.00  0.00    +0.000 C 
ATOM     21  O   UNL     1      -5.192  14.548  21.831  0.00  0.00    +0.000 OA
ATOM     22  C   UNL     1      -5.762  14.418  20.522  0.00  0.00    +0.000 C 
ATOM     23  O   UNL     1      -5.189  13.318  19.785  0.00  0.00    +0.000 OA
ENDROOT
BRANCH   1  24
ATOM     24  O   UNL     1      -0.376   9.898  20.124  0.00  0.00    +0.000 OA
BRANCH  24  26
ATOM     25  C   UNL     1       0.979   8.908  21.758  0.00  0.00    +0.000 C 
ATOM     26  C   UNL     1       0.752   9.175  20.298  0.00  0.00    +0.000 C 
ATOM     27  O   UNL     1       1.526   8.847  19.408  0.00  0.00    +0.000 OA
ENDBRANCH  24  26
ENDBRANCH   1  24
TORSDOF 2
ENDMDL
MODEL 3
REMARK VINA RESULT:      -6.6      2.648      6.039
REMARK  Name = 
REMARK  4 active torsions:
REMARK  status: ('A' for Active; 'I' for Inactive)
REMARK    1  A    between atoms: C_1  and  C_2
REMARK    2  A    between atoms: C_2  and  O_4
REMARK    3  A    between atoms: O_4  and  C_5
REMARK    4  A    between atoms: C_20  and  C_21
REMARK                            x       y       z     vdW  Elec       q    Type
REMARK                         _______ _______ _______ _____ _____    ______ ____
ROOT
ATOM      1  C   UNL     1      -0.592  11.498  20.958  0.00  0.00    +0.000 C 
ATOM      2  C   UNL     1      -1.215  11.237  19.616  0.00  0.00    +0.000 A 
ATOM      3  C   UNL     1      -0.487  10.397  18.739  0.00  0.00    +0.000 A 
ATOM      4  C   UNL     1      -1.026  10.003  17.527  0.00  0.00    +0.000 A 
ATOM      5  C   UNL     1      -2.291  10.458  17.174  0.00  0.00    +0.000 A 
ATOM      6  C   UNL     1      -3.022  11.283  18.049  0.00  0.00    +0.000 A 
ATOM      7  C   UNL     1      -2.526  11.681  19.307  0.00  0.00    +0.000 A 
ATOM      8  C   UNL     1      -3.326  12.457  20.315  0.00  0.00    +0.000 A 
ATOM      9  C   UNL     1      -4.620  12.937  20.166  0.00  0.00    +0.000 A 
ATOM     10  C   UNL     1      -5.295  13.591  21.200  0.00  0.00    +0.000 A 
ATOM     11  C   UNL     1      -4.733  13.907  22.413  0.00  0.00    +0.000 A 
ATOM     12  C   UNL     1      -3.387  13.618  22.553  0.00  0.00    +0.000 A 
ATOM     13  C   UNL     1      -2.729  12.835  21.549  0.00  0.00    +0.000 A 
ATOM     14  C   UNL     1      -1.276  12.562  21.829  0.00  0.00    +0.000 C 
ATOM     15  N   UNL     1      -0.652  13.862  22.163  0.00  0.00    +0.000 N 
ATOM     16  C   UNL     1      -0.565  14.858  21.177  0.00  0.00    +0.000 C 
ATOM     17  C   UNL     1      -0.147  16.241  21.648  0.00  0.00    +0.000 C 
ATOM     18  O   UNL     1      -0.812  14.661  19.988  0.00  0.00    +0.000 OA
ATOM     19  C   UNL     1      -1.035  14.233  23.524  0.00  0.00    +0.000 C 
ATOM     20  C   UNL     1      -2.584  14.261  23.686  0.00  0.00    +0.000 C 
ATOM     21  O   UNL     1      -6.551  14.006  20.829  0.00  0.00    +0.000 OA
ATOM     22  C   UNL     1      -6.415  13.881  19.407  0.00  0.00    +0.000 C 
ATOM     23  O   UNL     1      -5.400  12.924  19.038  0.00  0.00    +0.000 OA
ENDROOT
BRANCH   1  24
ATOM     24  O   UNL     1      -0.832  10.216  21.643  0.00  0.00    +0.000 OA
BRANCH  24  26
ATOM     25  C   UNL     1       1.076   8.860  21.720  0.00  0.00    +0.000 C 
ATOM     26  C   UNL     1       0.119   9.737  22.474  0.00  0.00    +0.000 C 
ATOM     27  O   UNL     1       0.160   9.924  23.683  0.00  0.00    +0.000 OA
ENDBRANCH  24  26
ENDBRANCH   1  24
TORSDOF 2
ENDMDL
MODEL 4
REMARK VINA RESULT:      -6.6      4.283      6.143
REMARK  Name = 
REMARK  4 active torsions:
REMARK  status: ('A' for Active; 'I' for Inactive)
REMARK    1  A    between atoms: C_1  and  C_2
REMARK    2  A    between atoms: C_2  and  O_4
REMARK    3  A    between atoms: O_4  and  C_5
REMARK    4  A    between atoms: C_20  and  C_21
REMARK                            x       y       z     vdW  Elec       q    Type
REMARK                         _______ _______ _______ _____ _____    ______ ____
ROOT
ATOM      1  C   UNL     1      -0.803  11.258  21.626  0.00  0.00    +0.000 C 
ATOM      2  C   UNL     1      -1.097  12.681  22.007  0.00  0.00    +0.000 A 
ATOM      3  C   UNL     1      -1.951  12.869  23.120  0.00  0.00    +0.000 A 
ATOM      4  C   UNL     1      -2.190  14.136  23.622  0.00  0.00    +0.000 A 
ATOM      5  C   UNL     1      -1.592  15.228  23.004  0.00  0.00    +0.000 A 
ATOM      6  C   UNL     1      -0.733  15.043  21.905  0.00  0.00    +0.000 A 
ATOM      7  C   UNL     1      -0.433  13.768  21.383  0.00  0.00    +0.000 A 
ATOM      8  C   UNL     1       0.571  13.525  20.293  0.00  0.00    +0.000 A 
ATOM      9  C   UNL     1       1.311  14.480  19.607  0.00  0.00    +0.000 A 
ATOM     10  C   UNL     1       2.272  14.134  18.654  0.00  0.00    +0.000 A 
ATOM     11  C   UNL     1       2.517  12.850  18.233  0.00  0.00    +0.000 A 
ATOM     12  C   UNL     1       1.681  11.872  18.746  0.00  0.00    +0.000 A 
ATOM     13  C   UNL     1       0.787  12.203  19.814  0.00  0.00    +0.000 A 
ATOM     14  C   UNL     1      -0.046  11.050  20.306  0.00  0.00    +0.000 C 
ATOM     15  N   UNL     1      -0.652  10.418  19.113  0.00  0.00    +0.000 N 
ATOM     16  C   UNL     1      -1.589  11.138  18.354  0.00  0.00    +0.000 C 
ATOM     17  C   UNL     1      -1.980  10.534  17.015  0.00  0.00    +0.000 C 
ATOM     18  O   UNL     1      -2.085  12.202  18.717  0.00  0.00    +0.000 OA
ATOM     19  C   UNL     1       0.370   9.629  18.428  0.00  0.00    +0.000 C 
ATOM     20  C   UNL     1       1.611  10.501  18.070  0.00  0.00    +0.000 C 
ATOM     21  O   UNL     1       2.863  15.233  18.081  0.00  0.00    +0.000 OA
ATOM     22  C   UNL     1       1.921  16.232  18.493  0.00  0.00    +0.000 C 
ATOM     23  O   UNL     1       1.198  15.844  19.679  0.00  0.00    +0.000 OA
ENDROOT
BRANCH   1  24
ATOM     24  O   UNL     1       0.140  10.863  22.687  0.00  0.00    +0.000 OA
BRANCH  24  26
ATOM     25  C   UNL     1      -0.430   8.601  22.473  0.00  0.00    +0.000 C 
ATOM     26  C   UNL     1       0.660   9.616  22.659  0.00  0.00    +0.000 C 
ATOM     27  O   UNL     1       1.839   9.339  22.837  0.00  0.00    +0.000 OA
ENDBRANCH  24  26
ENDBRANCH   1  24
TORSDOF 2
ENDMDL
MODEL 5
REMARK VINA RESULT:      -6.5      3.642      5.832
REMARK  Name = 
REMARK  4 active torsions:
REMARK  status: ('A' for Active; 'I' for Inactive)
REMARK    1  A    between atoms: C_1  and  C_2
REMARK    2  A    between atoms: C_2  and  O_4
REMARK    3  A    between atoms: O_4  and  C_5
REMARK    4  A    between atoms: C_20  and  C_21
REMARK                            x       y       z     vdW  Elec       q    Type
REMARK                         _______ _______ _______ _____ _____    ______ ____
ROOT
ATOM      1  C   UNL     1       0.047  10.966  20.739  0.00  0.00    +0.000 C 
ATOM      2  C   UNL     1       0.538  10.177  19.558  0.00  0.00    +0.000 A 
ATOM      3  C   UNL     1       1.758   9.480  19.733  0.00  0.00    +0.000 A 
ATOM      4  C   UNL     1       2.236   8.634  18.749  0.00  0.00    +0.000 A 
ATOM      5  C   UNL     1       1.507   8.488  17.574  0.00  0.00    +0.000 A 
ATOM      6  C   UNL     1       0.288   9.169  17.403  0.00  0.00    +0.000 A 
ATOM      7  C   UNL     1      -0.254  10.015  18.393  0.00  0.00    +0.000 A 
ATOM      8  C   UNL     1      -1.608  10.659  18.295  0.00  0.00    +0.000 A 
ATOM      9  C   UNL     1      -2.500  10.574  17.235  0.00  0.00    +0.000 A 
ATOM     10  C   UNL     1      -3.768  11.161  17.279  0.00  0.00    +0.000 A 
ATOM     11  C   UNL     1      -4.221  11.946  18.311  0.00  0.00    +0.000 A 
ATOM     12  C   UNL     1      -3.306  12.219  19.314  0.00  0.00    +0.000 A 
ATOM     13  C   UNL     1      -2.058  11.518  19.335  0.00  0.00    +0.000 A 
ATOM     14  C   UNL     1      -1.163  11.879  20.490  0.00  0.00    +0.000 C 
ATOM     15  N   UNL     1      -1.088  13.356  20.529  0.00  0.00    +0.000 N 
ATOM     16  C   UNL     1      -0.470  14.042  19.471  0.00  0.00    +0.000 C 
ATOM     17  C   UNL     1      -0.648  15.552  19.450  0.00  0.00    +0.000 C 
ATOM     18  O   UNL     1       0.181  13.487  18.589  0.00  0.00    +0.000 OA
ATOM     19  C   UNL     1      -2.333  13.877  21.091  0.00  0.00    +0.000 C 
ATOM     20  C   UNL     1      -3.569  13.367  20.291  0.00  0.00    +0.000 C 
ATOM     21  O   UNL     1      -4.473  10.978  16.115  0.00  0.00    +0.000 OA
ATOM     22  C   UNL     1      -3.394  10.572  15.263  0.00  0.00    +0.000 C 
ATOM     23  O   UNL     1      -2.297  10.001  16.006  0.00  0.00    +0.000 OA
ENDROOT
BRANCH   1  24
ATOM     24  O   UNL     1      -0.444   9.893  21.621  0.00  0.00    +0.000 OA
BRANCH  24  26
ATOM     25  C   UNL     1      -1.561  11.039  23.332  0.00  0.00    +0.000 C 
ATOM     26  C   UNL     1      -0.448  10.104  22.956  0.00  0.00    +0.000 C 
ATOM     27  O   UNL     1       0.378   9.662  23.744  0.00  0.00    +0.000 OA
ENDBRANCH  24  26
ENDBRANCH   1  24
TORSDOF 2
ENDMDL
MODEL 6
REMARK VINA RESULT:      -6.5      2.116      5.888
REMARK  Name = 
REMARK  4 active torsions:
REMARK  status: ('A' for Active; 'I' for Inactive)
REMARK    1  A    between atoms: C_1  and  C_2
REMARK    2  A    between atoms: C_2  and  O_4
REMARK    3  A    between atoms: O_4  and  C_5
REMARK    4  A    between atoms: C_20  and  C_21
REMARK                            x       y       z     vdW  Elec       q    Type
REMARK                         _______ _______ _______ _____ _____    ______ ____
ROOT
ATOM      1  C   UNL     1      -1.522  12.417  20.688  0.00  0.00    +0.000 C 
ATOM      2  C   UNL     1      -2.480  12.192  19.552  0.00  0.00    +0.000 A 
ATOM      3  C   UNL     1      -1.912  11.759  18.330  0.00  0.00    +0.000 A 
ATOM      4  C   UNL     1      -2.717  11.412  17.260  0.00  0.00    +0.000 A 
ATOM      5  C   UNL     1      -4.097  11.511  17.396  0.00  0.00    +0.000 A 
ATOM      6  C   UNL     1      -4.664  11.929  18.614  0.00  0.00    +0.000 A 
ATOM      7  C   UNL     1      -3.884  12.258  19.741  0.00  0.00    +0.000 A 
ATOM      8  C   UNL     1      -4.458  12.589  21.089  0.00  0.00    +0.000 A 
ATOM      9  C   UNL     1      -5.801  12.671  21.430  0.00  0.00    +0.000 A 
ATOM     10  C   UNL     1      -6.224  12.920  22.739  0.00  0.00    +0.000 A 
ATOM     11  C   UNL     1      -5.379  13.199  23.784  0.00  0.00    +0.000 A 
ATOM     12  C   UNL     1      -4.036  13.315  23.467  0.00  0.00    +0.000 A 
ATOM     13  C   UNL     1      -3.589  12.934  22.161  0.00  0.00    +0.000 A 
ATOM     14  C   UNL     1      -2.106  13.076  21.947  0.00  0.00    +0.000 C 
ATOM     15  N   UNL     1      -1.735  14.436  22.399  0.00  0.00    +0.000 N 
ATOM     16  C   UNL     1      -2.226  15.551  21.701  0.00  0.00    +0.000 C 
ATOM     17  C   UNL     1      -2.016  16.905  22.359  0.00  0.00    +0.000 C 
ATOM     18  O   UNL     1      -2.804  15.475  20.619  0.00  0.00    +0.000 OA
ATOM     19  C   UNL     1      -1.714  14.457  23.860  0.00  0.00    +0.000 C 
ATOM     20  C   UNL     1      -3.077  13.988  24.451  0.00  0.00    +0.000 C 
ATOM     21  O   UNL     1      -7.591  12.987  22.845  0.00  0.00    +0.000 OA
ATOM     22  C   UNL     1      -7.917  13.131  21.457  0.00  0.00    +0.000 C 
ATOM     23  O   UNL     1      -6.888  12.597  20.597  0.00  0.00    +0.000 OA
ENDROOT
BRANCH   1  24
ATOM     24  O   UNL     1      -1.205  11.033  21.079  0.00  0.00    +0.000 OA
BRANCH  24  26
ATOM     25  C   UNL     1      -0.559  10.003  23.080  0.00  0.00    +0.000 C 
ATOM     26  C   UNL     1      -0.145  10.816  21.889  0.00  0.00    +0.000 C 
ATOM     27  O   UNL     1       0.977  11.277  21.723  0.00  0.00    +0.000 OA
ENDBRANCH  24  26
ENDBRANCH   1  24
TORSDOF 2
ENDMDL
MODEL 7
REMARK VINA RESULT:      -6.5      3.617      6.545
REMARK  Name = 
REMARK  4 active torsions:
REMARK  status: ('A' for Active; 'I' for Inactive)
REMARK    1  A    between atoms: C_1  and  C_2
REMARK    2  A    between atoms: C_2  and  O_4
REMARK    3  A    between atoms: O_4  and  C_5
REMARK    4  A    between atoms: C_20  and  C_21
REMARK                            x       y       z     vdW  Elec       q    Type
REMARK                         _______ _______ _______ _____ _____    ______ ____
ROOT
ATOM      1  C   UNL     1      -1.424  11.835  19.211  0.00  0.00    +0.000 C 
ATOM      2  C   UNL     1      -0.070  11.308  18.830  0.00  0.00    +0.000 A 
ATOM      3  C   UNL     1       0.004   9.926  18.529  0.00  0.00    +0.000 A 
ATOM      4  C   UNL     1       1.177   9.367  18.055  0.00  0.00    +0.000 A 
ATOM      5  C   UNL     1       2.293  10.180  17.895  0.00  0.00    +0.000 A 
ATOM      6  C   UNL     1       2.219  11.556  18.182  0.00  0.00    +0.000 A 
ATOM      7  C   UNL     1       1.035  12.175  18.632  0.00  0.00    +0.000 A 
ATOM      8  C   UNL     1       0.887  13.657  18.830  0.00  0.00    +0.000 A 
ATOM      9  C   UNL     1       1.866  14.626  18.656  0.00  0.00    +0.000 A 
ATOM     10  C   UNL     1       1.597  15.990  18.802  0.00  0.00    +0.000 A 
ATOM     11  C   UNL     1       0.392  16.501  19.217  0.00  0.00    +0.000 A 
ATOM     12  C   UNL     1      -0.568  15.573  19.584  0.00  0.00    +0.000 A 
ATOM     13  C   UNL     1      -0.341  14.185  19.313  0.00  0.00    +0.000 A 
ATOM     14  C   UNL     1      -1.469  13.279  19.731  0.00  0.00    +0.000 C 
ATOM     15  N   UNL     1      -1.807  13.631  21.128  0.00  0.00    +0.000 N 
ATOM     16  C   UNL     1      -0.867  13.394  22.144  0.00  0.00    +0.000 C 
ATOM     17  C   UNL     1      -1.173  14.001  23.503  0.00  0.00    +0.000 C 
ATOM     18  O   UNL     1       0.162  12.740  21.979  0.00  0.00    +0.000 OA
ATOM     19  C   UNL     1      -2.563  14.881  21.130  0.00  0.00    +0.000 C 
ATOM     20  C   UNL     1      -1.778  16.017  20.407  0.00  0.00    +0.000 C 
ATOM     21  O   UNL     1       2.713  16.768  18.612  0.00  0.00    +0.000 OA
ATOM     22  C   UNL     1       3.716  15.749  18.715  0.00  0.00    +0.000 C 
ATOM     23  O   UNL     1       3.199  14.441  18.395  0.00  0.00    +0.000 OA
ENDROOT
BRANCH   1  24
ATOM     24  O   UNL     1      -2.103  11.865  17.904  0.00  0.00    +0.000 OA
BRANCH  24  26
ATOM     25  C   UNL     1      -3.298  10.084  16.964  0.00  0.00    +0.000 C 
ATOM     26  C   UNL     1      -3.338  11.328  17.803  0.00  0.00    +0.000 C 
ATOM     27  O   UNL     1      -4.362  11.820  18.261  0.00  0.00    +0.000 OA
ENDBRANCH  24  26
ENDBRANCH   1  24
TORSDOF 2
ENDMDL
MODEL 8
REMARK VINA RESULT:      -6.4     11.028     14.438
REMARK  Name = 
REMARK  4 active torsions:
REMARK  status: ('A' for Active; 'I' for Inactive)
REMARK    1  A    between atoms: C_1  and  C_2
REMARK    2  A    between atoms: C_2  and  O_4
REMARK    3  A    between atoms: O_4  and  C_5
REMARK    4  A    between atoms: C_20  and  C_21
REMARK                            x       y       z     vdW  Elec       q    Type
REMARK                         _______ _______ _______ _____ _____    ______ ____
ROOT
ATOM      1  C   UNL     1       9.560  15.502  17.949  0.00  0.00    +0.000 C 
ATOM      2  C   UNL     1      10.157  14.131  18.101  0.00  0.00    +0.000 A 
ATOM      3  C   UNL     1      11.127  13.760  17.139  0.00  0.00    +0.000 A 
ATOM      4  C   UNL     1      11.820  12.568  17.256  0.00  0.00    +0.000 A 
ATOM      5  C   UNL     1      11.537  11.728  18.327  0.00  0.00    +0.000 A 
ATOM      6  C   UNL     1      10.582  12.101  19.292  0.00  0.00    +0.000 A 
ATOM      7  C   UNL     1       9.878  13.321  19.231  0.00  0.00    +0.000 A 
ATOM      8  C   UNL     1       8.945  13.804  20.305  0.00  0.00    +0.000 A 
ATOM      9  C   UNL     1       8.594  13.137  21.471  0.00  0.00    +0.000 A 
ATOM     10  C   UNL     1       7.765  13.714  22.437  0.00  0.00    +0.000 A 
ATOM     11  C   UNL     1       7.148  14.933  22.300  0.00  0.00    +0.000 A 
ATOM     12  C   UNL     1       7.313  15.563  21.079  0.00  0.00    +0.000 A 
ATOM     13  C   UNL     1       8.260  15.040  20.141  0.00  0.00    +0.000 A 
ATOM     14  C   UNL     1       8.371  15.829  18.864  0.00  0.00    +0.000 C 
ATOM     15  N   UNL     1       6.992  16.031  18.364  0.00  0.00    +0.000 N 
ATOM     16  C   UNL     1       6.244  14.921  17.943  0.00  0.00    +0.000 C 
ATOM     17  C   UNL     1       4.766  15.163  17.681  0.00  0.00    +0.000 C 
ATOM     18  O   UNL     1       6.720  13.798  17.788  0.00  0.00    +0.000 OA
ATOM     19  C   UNL     1       6.347  17.068  19.166  0.00  0.00    +0.000 C 
ATOM     20  C   UNL     1       6.380  16.710  20.683  0.00  0.00    +0.000 C 
ATOM     21  O   UNL     1       7.526  12.870  23.494  0.00  0.00    +0.000 OA
ATOM     22  C   UNL     1       7.962  11.640  22.901  0.00  0.00    +0.000 C 
ATOM     23  O   UNL     1       8.912  11.855  21.836  0.00  0.00    +0.000 OA
ENDROOT
BRANCH   1  24
ATOM     24  O   UNL     1      10.666  16.353  18.421  0.00  0.00    +0.000 OA
BRANCH  24  26
ATOM     25  C   UNL     1      10.868  18.362  19.608  0.00  0.00    +0.000 C 
ATOM     26  C   UNL     1      10.546  17.694  18.303  0.00  0.00    +0.000 C 
ATOM     27  O   UNL     1      10.157  18.283  17.303  0.00  0.00    +0.000 OA
ENDBRANCH  24  26
ENDBRANCH   1  24
TORSDOF 2
ENDMDL
MODEL 9
REMARK VINA RESULT:      -6.3      3.441      6.624
REMARK  Name = 
REMARK  4 active torsions:
REMARK  status: ('A' for Active; 'I' for Inactive)
REMARK    1  A    between atoms: C_1  and  C_2
REMARK    2  A    between atoms: C_2  and  O_4
REMARK    3  A    between atoms: O_4  and  C_5
REMARK    4  A    between atoms: C_20  and  C_21
REMARK                            x       y       z     vdW  Elec       q    Type
REMARK                         _______ _______ _______ _____ _____    ______ ____
ROOT
ATOM      1  C   UNL     1       0.695  12.850  20.865  0.00  0.00    +0.000 C 
ATOM      2  C   UNL     1      -0.562  13.491  21.383  0.00  0.00    +0.000 A 
ATOM      3  C   UNL     1      -0.394  14.492  22.370  0.00  0.00    +0.000 A 
ATOM      4  C   UNL     1      -1.476  15.223  22.827  0.00  0.00    +0.000 A 
ATOM      5  C   UNL     1      -2.738  14.947  22.314  0.00  0.00    +0.000 A 
ATOM      6  C   UNL     1      -2.906  13.961  21.325  0.00  0.00    +0.000 A 
ATOM      7  C   UNL     1      -1.827  13.217  20.805  0.00  0.00    +0.000 A 
ATOM      8  C   UNL     1      -1.951  12.246  19.665  0.00  0.00    +0.000 A 
ATOM      9  C   UNL     1      -3.111  11.895  18.987  0.00  0.00    +0.000 A 
ATOM     10  C   UNL     1      -3.099  11.027  17.891  0.00  0.00    +0.000 A 
ATOM     11  C   UNL     1      -1.982  10.372  17.436  0.00  0.00    +0.000 A 
ATOM     12  C   UNL     1      -0.831  10.539  18.186  0.00  0.00    +0.000 A 
ATOM     13  C   UNL     1      -0.808  11.523  19.226  0.00  0.00    +0.000 A 
ATOM     14  C   UNL     1       0.508  11.632  19.949  0.00  0.00    +0.000 C 
ATOM     15  N   UNL     1       0.902  10.258  20.333  0.00  0.00    +0.000 N 
ATOM     16  C   UNL     1       0.125   9.556  21.270  0.00  0.00    +0.000 C 
ATOM     17  C   UNL     1       0.435   8.077  21.430  0.00  0.00    +0.000 C 
ATOM     18  O   UNL     1      -0.768  10.074  21.937  0.00  0.00    +0.000 OA
ATOM     19  C   UNL     1       1.398   9.561  19.149  0.00  0.00    +0.000 C 
ATOM     20  C   UNL     1       0.344   9.576  18.002  0.00  0.00    +0.000 C 
ATOM     21  O   UNL     1      -4.357  10.796  17.392  0.00  0.00    +0.000 OA
ATOM     22  C   UNL     1      -5.129  11.286  18.495  0.00  0.00    +0.000 C 
ATOM     23  O   UNL     1      -4.402  12.249  19.285  0.00  0.00    +0.000 OA
ENDROOT
BRANCH   1  24
ATOM     24  O   UNL     1       1.228  13.916  19.999  0.00  0.00    +0.000 OA
BRANCH  24  26
ATOM     25  C   UNL     1       2.840  13.975  18.301  0.00  0.00    +0.000 C 
ATOM     26  C   UNL     1       2.560  13.963  19.775  0.00  0.00    +0.000 C 
ATOM     27  O   UNL     1       3.423  13.924  20.642  0.00  0.00    +0.000 OA
ENDBRANCH  24  26
ENDBRANCH   1  24
TORSDOF 2
ENDMDL
