MODEL 1
REMARK VINA RESULT:      -6.8      0.000      0.000
REMARK  Name = 
REMARK  6 active torsions:
REMARK  status: ('A' for Active; 'I' for Inactive)
REMARK    1  A    between atoms: C_1  and  C_2
REMARK    2  A    between atoms: C_2  and  O_3
REMARK    3  A    between atoms: O_3  and  C_4
REMARK    4  A    between atoms: C_7  and  S_8
REMARK    5  A    between atoms: S_8  and  N_11
REMARK    6  A    between atoms: C_14  and  C_15
REMARK                            x       y       z     vdW  Elec       q    Type
REMARK                         _______ _______ _______ _____ _____    ______ ____
ROOT
ATOM      1  C   UNL     1       3.139   4.758  18.670  0.00  0.00    +0.000 A 
ATOM      2  C   UNL     1       3.351   5.807  17.772  0.00  0.00    +0.000 A 
ATOM      3  C   UNL     1       4.569   5.935  17.103  0.00  0.00    +0.000 A 
ATOM      4  C   UNL     1       5.583   5.004  17.342  0.00  0.00    +0.000 A 
ATOM      5  C   UNL     1       5.397   3.978  18.274  0.00  0.00    +0.000 A 
ATOM      6  C   UNL     1       4.173   3.860  18.940  0.00  0.00    +0.000 A 
ENDROOT
BRANCH   4   7
ATOM      7  S   UNL     1       7.152   5.199  16.539  0.00  0.00    +0.000 S 
ATOM      8  O   UNL     1       7.477   6.613  16.506  0.00  0.00    +0.000 OA
ATOM      9  O   UNL     1       8.068   4.208  17.064  0.00  0.00    +0.000 OA
BRANCH   7  10
ATOM     10  N   UNL     1       6.874   4.761  14.940  0.00  0.00    +0.000 N 
ATOM     11  C   UNL     1       7.600   5.212  13.886  0.00  0.00    +0.000 A 
ATOM     12  N   UNL     1       7.195   4.644  12.768  0.00  0.00    +0.000 NA
ATOM     13  C   UNL     1       6.173   3.791  13.133  0.00  0.00    +0.000 A 
ATOM     14  C   UNL     1       5.447   3.000  12.112  0.00  0.00    +0.000 C 
ATOM     15  C   UNL     1       5.983   3.823  14.501  0.00  0.00    +0.000 A 
ENDBRANCH   7  10
ENDBRANCH   4   7
BRANCH   1  16
ATOM     16  O   UNL     1       1.899   4.731  19.241  0.00  0.00    +0.000 OA
BRANCH  16  18
ATOM     17  C   UNL     1       0.799   2.642  18.941  0.00  0.00    +0.000 C 
ATOM     18  C   UNL     1       1.542   3.528  19.925  0.00  0.00    +0.000 C 
ENDBRANCH  16  18
ENDBRANCH   1  16
TORSDOF 4
ENDMDL
MODEL 2
REMARK VINA RESULT:      -6.8      2.690      4.002
REMARK  Name = 
REMARK  6 active torsions:
REMARK  status: ('A' for Active; 'I' for Inactive)
REMARK    1  A    between atoms: C_1  and  C_2
REMARK    2  A    between atoms: C_2  and  O_3
REMARK    3  A    between atoms: O_3  and  C_4
REMARK    4  A    between atoms: C_7  and  S_8
REMARK    5  A    between atoms: S_8  and  N_11
REMARK    6  A    between atoms: C_14  and  C_15
REMARK                            x       y       z     vdW  Elec       q    Type
REMARK                         _______ _______ _______ _____ _____    ______ ____
ROOT
ATOM      1  C   UNL     1       2.233   3.829  18.536  0.00  0.00    +0.000 A 
ATOM      2  C   UNL     1       3.066   2.930  17.866  0.00  0.00    +0.000 A 
ATOM      3  C   UNL     1       4.165   3.386  17.137  0.00  0.00    +0.000 A 
ATOM      4  C   UNL     1       4.426   4.757  17.076  0.00  0.00    +0.000 A 
ATOM      5  C   UNL     1       3.571   5.669  17.704  0.00  0.00    +0.000 A 
ATOM      6  C   UNL     1       2.471   5.201  18.432  0.00  0.00    +0.000 A 
ENDROOT
BRANCH   4   7
ATOM      7  S   UNL     1       5.785   5.343  16.101  0.00  0.00    +0.000 S 
ATOM      8  O   UNL     1       6.589   4.202  15.703  0.00  0.00    +0.000 OA
ATOM      9  O   UNL     1       5.287   6.308  15.142  0.00  0.00    +0.000 OA
BRANCH   7  10
ATOM     10  N   UNL     1       6.739   6.217  17.174  0.00  0.00    +0.000 N 
ATOM     11  C   UNL     1       7.294   5.701  18.299  0.00  0.00    +0.000 A 
ATOM     12  N   UNL     1       8.043   6.602  18.901  0.00  0.00    +0.000 NA
ATOM     13  C   UNL     1       7.964   7.736  18.118  0.00  0.00    +0.000 A 
ATOM     14  C   UNL     1       8.663   8.980  18.515  0.00  0.00    +0.000 C 
ATOM     15  C   UNL     1       7.178   7.500  17.007  0.00  0.00    +0.000 A 
ENDBRANCH   7  10
ENDBRANCH   4   7
BRANCH   1  16
ATOM     16  O   UNL     1       1.207   3.256  19.232  0.00  0.00    +0.000 OA
BRANCH  16  18
ATOM     17  C   UNL     1       1.978   3.282  21.483  0.00  0.00    +0.000 C 
ATOM     18  C   UNL     1       1.576   2.400  20.315  0.00  0.00    +0.000 C 
ENDBRANCH  16  18
ENDBRANCH   1  16
TORSDOF 4
ENDMDL
MODEL 3
REMARK VINA RESULT:      -6.7      2.689      3.872
REMARK  Name = 
REMARK  6 active torsions:
REMARK  status: ('A' for Active; 'I' for Inactive)
REMARK    1  A    between atoms: C_1  and  C_2
REMARK    2  A    between atoms: C_2  and  O_3
REMARK    3  A    between atoms: O_3  and  C_4
REMARK    4  A    between atoms: C_7  and  S_8
REMARK    5  A    between atoms: S_8  and  N_11
REMARK    6  A    between atoms: C_14  and  C_15
REMARK                            x       y       z     vdW  Elec       q    Type
REMARK                         _______ _______ _______ _____ _____    ______ ____
ROOT
ATOM      1  C   UNL     1       2.468   4.139  18.727  0.00  0.00    +0.000 A 
ATOM      2  C   UNL     1       2.589   5.478  18.347  0.00  0.00    +0.000 A 
ATOM      3  C   UNL     1       3.645   5.895  17.536  0.00  0.00    +0.000 A 
ATOM      4  C   UNL     1       4.590   4.960  17.106  0.00  0.00    +0.000 A 
ATOM      5  C   UNL     1       4.504   3.626  17.519  0.00  0.00    +0.000 A 
ATOM      6  C   UNL     1       3.442   3.219  18.334  0.00  0.00    +0.000 A 
ENDROOT
BRANCH   4   7
ATOM      7  S   UNL     1       5.965   5.497  16.125  0.00  0.00    +0.000 S 
ATOM      8  O   UNL     1       6.799   4.345  15.835  0.00  0.00    +0.000 OA
ATOM      9  O   UNL     1       5.477   6.378  15.084  0.00  0.00    +0.000 OA
BRANCH   7  10
ATOM     10  N   UNL     1       6.875   6.466  17.154  0.00  0.00    +0.000 N 
ATOM     11  C   UNL     1       7.546   6.009  18.241  0.00  0.00    +0.000 A 
ATOM     12  N   UNL     1       8.223   6.985  18.811  0.00  0.00    +0.000 NA
ATOM     13  C   UNL     1       7.975   8.107  18.046  0.00  0.00    +0.000 A 
ATOM     14  C   UNL     1       8.554   9.419  18.417  0.00  0.00    +0.000 C 
ATOM     15  C   UNL     1       7.160   7.790  16.977  0.00  0.00    +0.000 A 
ENDBRANCH   7  10
ENDBRANCH   4   7
BRANCH   1  16
ATOM     16  O   UNL     1       1.380   3.856  19.502  0.00  0.00    +0.000 OA
BRANCH  16  18
ATOM     17  C   UNL     1       1.525   2.679  21.565  0.00  0.00    +0.000 C 
ATOM     18  C   UNL     1       1.537   4.048  20.909  0.00  0.00    +0.000 C 
ENDBRANCH  16  18
ENDBRANCH   1  16
TORSDOF 4
ENDMDL
MODEL 4
REMARK VINA RESULT:      -6.7      0.697      1.297
REMARK  Name = 
REMARK  6 active torsions:
REMARK  status: ('A' for Active; 'I' for Inactive)
REMARK    1  A    between atoms: C_1  and  C_2
REMARK    2  A    between atoms: C_2  and  O_3
REMARK    3  A    between atoms: O_3  and  C_4
REMARK    4  A    between atoms: C_7  and  S_8
REMARK    5  A    between atoms: S_8  and  N_11
REMARK    6  A    between atoms: C_14  and  C_15
REMARK                            x       y       z     vdW  Elec       q    Type
REMARK                         _______ _______ _______ _____ _____    ______ ____
ROOT
ATOM      1  C   UNL     1       2.856   4.800  18.042  0.00  0.00    +0.000 A 
ATOM      2  C   UNL     1       3.516   3.699  17.492  0.00  0.00    +0.000 A 
ATOM      3  C   UNL     1       4.813   3.823  16.991  0.00  0.00    +0.000 A 
ATOM      4  C   UNL     1       5.449   5.066  17.040  0.00  0.00    +0.000 A 
ATOM      5  C   UNL     1       4.780   6.185  17.546  0.00  0.00    +0.000 A 
ATOM      6  C   UNL     1       3.480   6.049  18.044  0.00  0.00    +0.000 A 
ENDROOT
BRANCH   4   7
ATOM      7  S   UNL     1       7.073   5.241  16.351  0.00  0.00    +0.000 S 
ATOM      8  O   UNL     1       7.407   6.653  16.318  0.00  0.00    +0.000 OA
ATOM      9  O   UNL     1       7.944   4.256  16.959  0.00  0.00    +0.000 OA
BRANCH   7  10
ATOM     10  N   UNL     1       6.911   4.777  14.744  0.00  0.00    +0.000 N 
ATOM     11  C   UNL     1       7.678   5.250  13.729  0.00  0.00    +0.000 A 
ATOM     12  N   UNL     1       7.367   4.655  12.596  0.00  0.00    +0.000 NA
ATOM     13  C   UNL     1       6.363   3.760  12.909  0.00  0.00    +0.000 A 
ATOM     14  C   UNL     1       5.735   2.928  11.857  0.00  0.00    +0.000 C 
ATOM     15  C   UNL     1       6.090   3.796  14.263  0.00  0.00    +0.000 A 
ENDBRANCH   7  10
ENDBRANCH   4   7
BRANCH   1  16
ATOM     16  O   UNL     1       1.602   4.542  18.517  0.00  0.00    +0.000 OA
BRANCH  16  18
ATOM     17  C   UNL     1       1.669   4.342  20.887  0.00  0.00    +0.000 C 
ATOM     18  C   UNL     1       1.509   3.590  19.578  0.00  0.00    +0.000 C 
ENDBRANCH  16  18
ENDBRANCH   1  16
TORSDOF 4
ENDMDL
MODEL 5
REMARK VINA RESULT:      -6.6      2.842      3.646
REMARK  Name = 
REMARK  6 active torsions:
REMARK  status: ('A' for Active; 'I' for Inactive)
REMARK    1  A    between atoms: C_1  and  C_2
REMARK    2  A    between atoms: C_2  and  O_3
REMARK    3  A    between atoms: O_3  and  C_4
REMARK    4  A    between atoms: C_7  and  S_8
REMARK    5  A    between atoms: S_8  and  N_11
REMARK    6  A    between atoms: C_14  and  C_15
REMARK                            x       y       z     vdW  Elec       q    Type
REMARK                         _______ _______ _______ _____ _____    ______ ____
ROOT
ATOM      1  C   UNL     1       2.187   7.969  18.680  0.00  0.00    +0.000 A 
ATOM      2  C   UNL     1       3.144   7.843  17.670  0.00  0.00    +0.000 A 
ATOM      3  C   UNL     1       4.062   6.793  17.686  0.00  0.00    +0.000 A 
ATOM      4  C   UNL     1       4.023   5.864  18.729  0.00  0.00    +0.000 A 
ATOM      5  C   UNL     1       3.100   6.007  19.770  0.00  0.00    +0.000 A 
ATOM      6  C   UNL     1       2.184   7.065  19.745  0.00  0.00    +0.000 A 
ENDROOT
BRANCH   4   7
ATOM      7  S   UNL     1       5.226   4.564  18.785  0.00  0.00    +0.000 S 
ATOM      8  O   UNL     1       6.299   4.971  19.674  0.00  0.00    +0.000 OA
ATOM      9  O   UNL     1       4.537   3.299  18.937  0.00  0.00    +0.000 OA
BRANCH   7  10
ATOM     10  N   UNL     1       5.900   4.535  17.246  0.00  0.00    +0.000 N 
ATOM     11  C   UNL     1       7.171   4.913  16.959  0.00  0.00    +0.000 A 
ATOM     12  N   UNL     1       7.437   4.716  15.684  0.00  0.00    +0.000 NA
ATOM     13  C   UNL     1       6.285   4.183  15.141  0.00  0.00    +0.000 A 
ATOM     14  C   UNL     1       6.205   3.864  13.697  0.00  0.00    +0.000 C 
ATOM     15  C   UNL     1       5.320   4.026  16.118  0.00  0.00    +0.000 A 
ENDBRANCH   7  10
ENDBRANCH   4   7
BRANCH   1  16
ATOM     16  O   UNL     1       1.333   9.025  18.537  0.00  0.00    +0.000 OA
BRANCH  16  18
ATOM     17  C   UNL     1      -0.389   9.970  19.880  0.00  0.00    +0.000 C 
ATOM     18  C   UNL     1       1.111   9.823  19.701  0.00  0.00    +0.000 C 
ENDBRANCH  16  18
ENDBRANCH   1  16
TORSDOF 4
ENDMDL
MODEL 6
REMARK VINA RESULT:      -6.6      2.730      3.831
REMARK  Name = 
REMARK  6 active torsions:
REMARK  status: ('A' for Active; 'I' for Inactive)
REMARK    1  A    between atoms: C_1  and  C_2
REMARK    2  A    between atoms: C_2  and  O_3
REMARK    3  A    between atoms: O_3  and  C_4
REMARK    4  A    between atoms: C_7  and  S_8
REMARK    5  A    between atoms: S_8  and  N_11
REMARK    6  A    between atoms: C_14  and  C_15
REMARK                            x       y       z     vdW  Elec       q    Type
REMARK                         _______ _______ _______ _____ _____    ______ ____
ROOT
ATOM      1  C   UNL     1       2.338   7.875  18.754  0.00  0.00    +0.000 A 
ATOM      2  C   UNL     1       2.317   6.893  19.747  0.00  0.00    +0.000 A 
ATOM      3  C   UNL     1       3.189   5.805  19.691  0.00  0.00    +0.000 A 
ATOM      4  C   UNL     1       4.087   5.701  18.626  0.00  0.00    +0.000 A 
ATOM      5  C   UNL     1       4.085   6.654  17.602  0.00  0.00    +0.000 A 
ATOM      6  C   UNL     1       3.205   7.740  17.668  0.00  0.00    +0.000 A 
ENDROOT
BRANCH   4   7
ATOM      7  S   UNL     1       5.154   4.290  18.520  0.00  0.00    +0.000 S 
ATOM      8  O   UNL     1       6.241   4.466  19.466  0.00  0.00    +0.000 OA
ATOM      9  O   UNL     1       4.340   3.092  18.496  0.00  0.00    +0.000 OA
BRANCH   7  10
ATOM     10  N   UNL     1       5.857   4.395  16.997  0.00  0.00    +0.000 N 
ATOM     11  C   UNL     1       7.089   4.909  16.757  0.00  0.00    +0.000 A 
ATOM     12  N   UNL     1       7.398   4.796  15.481  0.00  0.00    +0.000 NA
ATOM     13  C   UNL     1       6.316   4.175  14.890  0.00  0.00    +0.000 A 
ATOM     14  C   UNL     1       6.297   3.913  13.432  0.00  0.00    +0.000 C 
ATOM     15  C   UNL     1       5.353   3.881  15.836  0.00  0.00    +0.000 A 
ENDBRANCH   7  10
ENDBRANCH   4   7
BRANCH   1  16
ATOM     16  O   UNL     1       1.452   8.898  18.936  0.00  0.00    +0.000 OA
BRANCH  16  18
ATOM     17  C   UNL     1       0.844  11.192  18.765  0.00  0.00    +0.000 C 
ATOM     18  C   UNL     1       1.675  10.076  18.158  0.00  0.00    +0.000 C 
ENDBRANCH  16  18
ENDBRANCH   1  16
TORSDOF 4
ENDMDL
MODEL 7
REMARK VINA RESULT:      -6.5      2.913      3.932
REMARK  Name = 
REMARK  6 active torsions:
REMARK  status: ('A' for Active; 'I' for Inactive)
REMARK    1  A    between atoms: C_1  and  C_2
REMARK    2  A    between atoms: C_2  and  O_3
REMARK    3  A    between atoms: O_3  and  C_4
REMARK    4  A    between atoms: C_7  and  S_8
REMARK    5  A    between atoms: S_8  and  N_11
REMARK    6  A    between atoms: C_14  and  C_15
REMARK                            x       y       z     vdW  Elec       q    Type
REMARK                         _______ _______ _______ _____ _____    ______ ____
ROOT
ATOM      1  C   UNL     1       2.130   7.544  19.480  0.00  0.00    +0.000 A 
ATOM      2  C   UNL     1       2.139   6.450  20.348  0.00  0.00    +0.000 A 
ATOM      3  C   UNL     1       2.847   5.291  20.026  0.00  0.00    +0.000 A 
ATOM      4  C   UNL     1       3.548   5.230  18.818  0.00  0.00    +0.000 A 
ATOM      5  C   UNL     1       3.507   6.302  17.921  0.00  0.00    +0.000 A 
ATOM      6  C   UNL     1       2.793   7.458  18.253  0.00  0.00    +0.000 A 
ENDROOT
BRANCH   4   7
ATOM      7  S   UNL     1       4.398   3.738  18.378  0.00  0.00    +0.000 S 
ATOM      8  O   UNL     1       5.158   3.288  19.530  0.00  0.00    +0.000 OA
ATOM      9  O   UNL     1       3.478   2.869  17.674  0.00  0.00    +0.000 OA
BRANCH   7  10
ATOM     10  N   UNL     1       5.539   4.213  17.240  0.00  0.00    +0.000 N 
ATOM     11  C   UNL     1       6.797   4.623  17.542  0.00  0.00    +0.000 A 
ATOM     12  N   UNL     1       7.482   4.864  16.442  0.00  0.00    +0.000 NA
ATOM     13  C   UNL     1       6.622   4.587  15.399  0.00  0.00    +0.000 A 
ATOM     14  C   UNL     1       7.048   4.782  13.994  0.00  0.00    +0.000 C 
ATOM     15  C   UNL     1       5.407   4.139  15.882  0.00  0.00    +0.000 A 
ENDBRANCH   7  10
ENDBRANCH   4   7
BRANCH   1  16
ATOM     16  O   UNL     1       1.420   8.624  19.921  0.00  0.00    +0.000 OA
BRANCH  16  18
ATOM     17  C   UNL     1       0.360   9.888  21.636  0.00  0.00    +0.000 C 
ATOM     18  C   UNL     1       0.825   8.506  21.215  0.00  0.00    +0.000 C 
ENDBRANCH  16  18
ENDBRANCH   1  16
TORSDOF 4
ENDMDL
MODEL 8
REMARK VINA RESULT:      -6.5      2.947      4.117
REMARK  Name = 
REMARK  6 active torsions:
REMARK  status: ('A' for Active; 'I' for Inactive)
REMARK    1  A    between atoms: C_1  and  C_2
REMARK    2  A    between atoms: C_2  and  O_3
REMARK    3  A    between atoms: O_3  and  C_4
REMARK    4  A    between atoms: C_7  and  S_8
REMARK    5  A    between atoms: S_8  and  N_11
REMARK    6  A    between atoms: C_14  and  C_15
REMARK                            x       y       z     vdW  Elec       q    Type
REMARK                         _______ _______ _______ _____ _____    ______ ____
ROOT
ATOM      1  C   UNL     1       2.871   4.470  18.230  0.00  0.00    +0.000 A 
ATOM      2  C   UNL     1       3.800   3.841  17.399  0.00  0.00    +0.000 A 
ATOM      3  C   UNL     1       5.169   4.035  17.586  0.00  0.00    +0.000 A 
ATOM      4  C   UNL     1       5.608   4.873  18.615  0.00  0.00    +0.000 A 
ATOM      5  C   UNL     1       4.684   5.545  19.423  0.00  0.00    +0.000 A 
ATOM      6  C   UNL     1       3.314   5.343  19.225  0.00  0.00    +0.000 A 
ENDROOT
BRANCH   4   7
ATOM      7  S   UNL     1       7.343   5.170  18.818  0.00  0.00    +0.000 S 
ATOM      8  O   UNL     1       7.641   5.192  20.238  0.00  0.00    +0.000 OA
ATOM      9  O   UNL     1       8.070   4.327  17.890  0.00  0.00    +0.000 OA
BRANCH   7  10
ATOM     10  N   UNL     1       7.576   6.745  18.282  0.00  0.00    +0.000 N 
ATOM     11  C   UNL     1       6.866   7.327  17.283  0.00  0.00    +0.000 A 
ATOM     12  N   UNL     1       7.223   8.586  17.132  0.00  0.00    +0.000 NA
ATOM     13  C   UNL     1       8.198   8.813  18.082  0.00  0.00    +0.000 A 
ATOM     14  C   UNL     1       8.865  10.131  18.183  0.00  0.00    +0.000 C 
ATOM     15  C   UNL     1       8.406   7.676  18.840  0.00  0.00    +0.000 A 
ENDBRANCH   7  10
ENDBRANCH   4   7
BRANCH   1  16
ATOM     16  O   UNL     1       1.565   4.180  17.957  0.00  0.00    +0.000 OA
BRANCH  16  18
ATOM     17  C   UNL     1       1.008   3.094  20.000  0.00  0.00    +0.000 C 
ATOM     18  C   UNL     1       1.063   2.952  18.489  0.00  0.00    +0.000 C 
ENDBRANCH  16  18
ENDBRANCH   1  16
TORSDOF 4
ENDMDL
MODEL 9
REMARK VINA RESULT:      -6.5      2.767      3.807
REMARK  Name = 
REMARK  6 active torsions:
REMARK  status: ('A' for Active; 'I' for Inactive)
REMARK    1  A    between atoms: C_1  and  C_2
REMARK    2  A    between atoms: C_2  and  O_3
REMARK    3  A    between atoms: O_3  and  C_4
REMARK    4  A    between atoms: C_7  and  S_8
REMARK    5  A    between atoms: S_8  and  N_11
REMARK    6  A    between atoms: C_14  and  C_15
REMARK                            x       y       z     vdW  Elec       q    Type
REMARK                         _______ _______ _______ _____ _____    ______ ____
ROOT
ATOM      1  C   UNL     1       1.876   3.867  18.411  0.00  0.00    +0.000 A 
ATOM      2  C   UNL     1       2.221   5.218  18.486  0.00  0.00    +0.000 A 
ATOM      3  C   UNL     1       3.304   5.718  17.762  0.00  0.00    +0.000 A 
ATOM      4  C   UNL     1       4.050   4.851  16.960  0.00  0.00    +0.000 A 
ATOM      5  C   UNL     1       3.742   3.487  16.914  0.00  0.00    +0.000 A 
ATOM      6  C   UNL     1       2.654   2.997  17.645  0.00  0.00    +0.000 A 
ENDROOT
BRANCH   4   7
ATOM      7  S   UNL     1       5.463   5.469  16.086  0.00  0.00    +0.000 S 
ATOM      8  O   UNL     1       6.040   4.381  15.319  0.00  0.00    +0.000 OA
ATOM      9  O   UNL     1       5.115   6.739  15.482  0.00  0.00    +0.000 OA
BRANCH   7  10
ATOM     10  N   UNL     1       6.587   5.826  17.283  0.00  0.00    +0.000 N 
ATOM     11  C   UNL     1       7.298   6.980  17.346  0.00  0.00    +0.000 A 
ATOM     12  N   UNL     1       8.047   7.004  18.430  0.00  0.00    +0.000 NA
ATOM     13  C   UNL     1       7.793   5.816  19.085  0.00  0.00    +0.000 A 
ATOM     14  C   UNL     1       8.497   5.479  20.344  0.00  0.00    +0.000 C 
ATOM     15  C   UNL     1       6.848   5.079  18.397  0.00  0.00    +0.000 A 
ENDBRANCH   7  10
ENDBRANCH   4   7
BRANCH   1  16
ATOM     16  O   UNL     1       0.783   3.509  19.148  0.00  0.00    +0.000 OA
BRANCH  16  18
ATOM     17  C   UNL     1       1.560   2.751  21.266  0.00  0.00    +0.000 C 
ATOM     18  C   UNL     1       0.814   3.853  20.535  0.00  0.00    +0.000 C 
ENDBRANCH  16  18
ENDBRANCH   1  16
TORSDOF 4
ENDMDL
