MODEL 1
REMARK VINA RESULT:      -7.3      0.000      0.000
REMARK  Name = 
REMARK  4 active torsions:
REMARK  status: ('A' for Active; 'I' for Inactive)
REMARK    1  A    between atoms: N_11  and  C_12
REMARK    2  A    between atoms: C_12  and  C_13
REMARK    3  A    between atoms: C_13  and  N_14
REMARK    4  A    between atoms: N_17  and  C_18
REMARK                            x       y       z     vdW  Elec       q    Type
REMARK                         _______ _______ _______ _____ _____    ______ ____
ROOT
ATOM      1  C   UNL     1       3.399   4.928  18.988  0.00  0.00    +0.000 C 
ENDROOT
BRANCH   1  12
ATOM      2  O   UNL     1       2.103   5.158  21.445  0.00  0.00    +0.000 OA
ATOM      3  C   UNL     1       2.072   6.121  20.678  0.00  0.00    +0.000 A 
ATOM      4  N   UNL     1       1.380   7.249  21.056  0.00  0.00    +0.000 N 
ATOM      5  C   UNL     1       1.323   8.375  20.271  0.00  0.00    +0.000 A 
ATOM      6  C   UNL     1       0.658   9.597  20.542  0.00  0.00    +0.000 A 
ATOM      7  C   UNL     1       0.842  10.505  19.515  0.00  0.00    +0.000 A 
ATOM      8  S   UNL     1       1.804   9.856  18.246  0.00  0.00    +0.000 S 
ATOM      9  C   UNL     1       1.977   8.382  19.070  0.00  0.00    +0.000 A 
ATOM     10  C   UNL     1       2.725   7.254  18.574  0.00  0.00    +0.000 A 
ATOM     11  O   UNL     1       3.339   7.248  17.508  0.00  0.00    +0.000 OA
ATOM     12  N   UNL     1       2.700   6.140  19.434  0.00  0.00    +0.000 N 
ATOM     13  H   UNL     1       0.912   7.224  21.952  0.00  0.00    +0.000 HD
ENDBRANCH   1  12
BRANCH   1  14
ATOM     14  C   UNL     1       4.922   4.954  19.300  0.00  0.00    +0.000 C 
BRANCH  14  15
ATOM     15  N   UNL     1       5.730   4.143  18.366  0.00  0.00    +0.000 NA
ATOM     16  C   UNL     1       4.960   3.579  17.236  0.00  0.00    +0.000 C 
ATOM     17  C   UNL     1       4.618   4.593  16.129  0.00  0.00    +0.000 C 
ATOM     18  N   UNL     1       5.845   5.145  15.548  0.00  0.00    +0.000 N 
ATOM     19  C   UNL     1       6.772   5.735  16.534  0.00  0.00    +0.000 C 
ATOM     20  C   UNL     1       6.915   4.866  17.826  0.00  0.00    +0.000 C 
BRANCH  18  21
ATOM     21  C   UNL     1       6.316   4.711  14.314  0.00  0.00    +0.000 A 
ATOM     22  C   UNL     1       7.431   5.322  13.716  0.00  0.00    +0.000 A 
ATOM     23  C   UNL     1       7.874   4.959  12.433  0.00  0.00    +0.000 A 
ATOM     24  C   UNL     1       7.219   3.960  11.724  0.00  0.00    +0.000 A 
ATOM     25  C   UNL     1       6.118   3.329  12.295  0.00  0.00    +0.000 A 
ATOM     26  C   UNL     1       5.675   3.708  13.568  0.00  0.00    +0.000 A 
ENDBRANCH  18  21
ENDBRANCH  14  15
ENDBRANCH   1  14
TORSDOF 4
ENDMDL
MODEL 2
REMARK VINA RESULT:      -7.1      2.387      7.767
REMARK  Name = 
REMARK  4 active torsions:
REMARK  status: ('A' for Active; 'I' for Inactive)
REMARK    1  A    between atoms: N_11  and  C_12
REMARK    2  A    between atoms: C_12  and  C_13
REMARK    3  A    between atoms: C_13  and  N_14
REMARK    4  A    between atoms: N_17  and  C_18
REMARK                            x       y       z     vdW  Elec       q    Type
REMARK                         _______ _______ _______ _____ _____    ______ ____
ROOT
ATOM      1  C   UNL     1       4.121   4.236  19.421  0.00  0.00    +0.000 C 
ENDROOT
BRANCH   1  12
ATOM      2  O   UNL     1       6.750   5.107  19.737  0.00  0.00    +0.000 OA
ATOM      3  C   UNL     1       6.344   4.882  18.596  0.00  0.00    +0.000 A 
ATOM      4  N   UNL     1       7.193   5.096  17.535  0.00  0.00    +0.000 N 
ATOM      5  C   UNL     1       6.827   4.840  16.236  0.00  0.00    +0.000 A 
ATOM      6  C   UNL     1       7.601   5.007  15.060  0.00  0.00    +0.000 A 
ATOM      7  C   UNL     1       6.891   4.628  13.936  0.00  0.00    +0.000 A 
ATOM      8  S   UNL     1       5.305   4.090  14.327  0.00  0.00    +0.000 S 
ATOM      9  C   UNL     1       5.574   4.354  15.981  0.00  0.00    +0.000 A 
ATOM     10  C   UNL     1       4.603   4.100  17.016  0.00  0.00    +0.000 A 
ATOM     11  O   UNL     1       3.481   3.642  16.811  0.00  0.00    +0.000 OA
ATOM     12  N   UNL     1       5.060   4.420  18.308  0.00  0.00    +0.000 N 
ATOM     13  H   UNL     1       8.117   5.447  17.748  0.00  0.00    +0.000 HD
ENDBRANCH   1  12
BRANCH   1  14
ATOM     14  C   UNL     1       3.574   5.578  19.985  0.00  0.00    +0.000 C 
BRANCH  14  15
ATOM     15  N   UNL     1       2.228   5.924  19.486  0.00  0.00    +0.000 NA
ATOM     16  C   UNL     1       1.363   6.579  20.493  0.00  0.00    +0.000 C 
ATOM     17  C   UNL     1       1.695   8.060  20.751  0.00  0.00    +0.000 C 
ATOM     18  N   UNL     1       1.545   8.838  19.519  0.00  0.00    +0.000 N 
ATOM     19  C   UNL     1       2.318   8.318  18.374  0.00  0.00    +0.000 C 
ATOM     20  C   UNL     1       2.248   6.760  18.254  0.00  0.00    +0.000 C 
BRANCH  18  21
ATOM     21  C   UNL     1       0.431   9.643  19.307  0.00  0.00    +0.000 A 
ATOM     22  C   UNL     1      -0.192   9.689  18.048  0.00  0.00    +0.000 A 
ATOM     23  C   UNL     1      -1.265  10.556  17.785  0.00  0.00    +0.000 A 
ATOM     24  C   UNL     1      -1.753  11.387  18.786  0.00  0.00    +0.000 A 
ATOM     25  C   UNL     1      -1.164  11.356  20.046  0.00  0.00    +0.000 A 
ATOM     26  C   UNL     1      -0.085  10.498  20.293  0.00  0.00    +0.000 A 
ENDBRANCH  18  21
ENDBRANCH  14  15
ENDBRANCH   1  14
TORSDOF 4
ENDMDL
MODEL 3
REMARK VINA RESULT:      -7.1      0.982      1.074
REMARK  Name = 
REMARK  4 active torsions:
REMARK  status: ('A' for Active; 'I' for Inactive)
REMARK    1  A    between atoms: N_11  and  C_12
REMARK    2  A    between atoms: C_12  and  C_13
REMARK    3  A    between atoms: C_13  and  N_14
REMARK    4  A    between atoms: N_17  and  C_18
REMARK                            x       y       z     vdW  Elec       q    Type
REMARK                         _______ _______ _______ _____ _____    ______ ____
ROOT
ATOM      1  C   UNL     1       3.159   6.066  18.431  0.00  0.00    +0.000 C 
ENDROOT
BRANCH   1  12
ATOM      2  O   UNL     1       2.041   5.687  20.956  0.00  0.00    +0.000 OA
ATOM      3  C   UNL     1       1.844   6.762  20.387  0.00  0.00    +0.000 A 
ATOM      4  N   UNL     1       1.063   7.709  21.010  0.00  0.00    +0.000 N 
ATOM      5  C   UNL     1       0.822   8.942  20.456  0.00  0.00    +0.000 A 
ATOM      6  C   UNL     1       0.049  10.004  20.990  0.00  0.00    +0.000 A 
ATOM      7  C   UNL     1       0.052  11.098  20.145  0.00  0.00    +0.000 A 
ATOM      8  S   UNL     1       0.977  10.813  18.724  0.00  0.00    +0.000 S 
ATOM      9  C   UNL     1       1.375   9.247  19.243  0.00  0.00    +0.000 A 
ATOM     10  C   UNL     1       2.202   8.328  18.502  0.00  0.00    +0.000 A 
ATOM     11  O   UNL     1       2.728   8.590  17.422  0.00  0.00    +0.000 OA
ATOM     12  N   UNL     1       2.368   7.082  19.136  0.00  0.00    +0.000 N 
ATOM     13  H   UNL     1       0.672   7.464  21.910  0.00  0.00    +0.000 HD
ENDBRANCH   1  12
BRANCH   1  14
ATOM     14  C   UNL     1       4.445   5.653  19.202  0.00  0.00    +0.000 C 
BRANCH  14  15
ATOM     15  N   UNL     1       5.651   5.597  18.352  0.00  0.00    +0.000 NA
ATOM     16  C   UNL     1       5.900   4.270  17.746  0.00  0.00    +0.000 C 
ATOM     17  C   UNL     1       4.989   3.935  16.551  0.00  0.00    +0.000 C 
ATOM     18  N   UNL     1       5.178   4.913  15.477  0.00  0.00    +0.000 N 
ATOM     19  C   UNL     1       4.999   6.317  15.897  0.00  0.00    +0.000 C 
ATOM     20  C   UNL     1       5.666   6.627  17.276  0.00  0.00    +0.000 C 
BRANCH  18  21
ATOM     21  C   UNL     1       5.930   4.607  14.348  0.00  0.00    +0.000 A 
ATOM     22  C   UNL     1       7.135   5.281  14.085  0.00  0.00    +0.000 A 
ATOM     23  C   UNL     1       7.869   5.050  12.910  0.00  0.00    +0.000 A 
ATOM     24  C   UNL     1       7.422   4.123  11.976  0.00  0.00    +0.000 A 
ATOM     25  C   UNL     1       6.238   3.433  12.215  0.00  0.00    +0.000 A 
ATOM     26  C   UNL     1       5.506   3.680  13.382  0.00  0.00    +0.000 A 
ENDBRANCH  18  21
ENDBRANCH  14  15
ENDBRANCH   1  14
TORSDOF 4
ENDMDL
MODEL 4
REMARK VINA RESULT:      -7.0      5.016      7.573
REMARK  Name = 
REMARK  4 active torsions:
REMARK  status: ('A' for Active; 'I' for Inactive)
REMARK    1  A    between atoms: N_11  and  C_12
REMARK    2  A    between atoms: C_12  and  C_13
REMARK    3  A    between atoms: C_13  and  N_14
REMARK    4  A    between atoms: N_17  and  C_18
REMARK                            x       y       z     vdW  Elec       q    Type
REMARK                         _______ _______ _______ _____ _____    ______ ____
ROOT
ATOM      1  C   UNL     1       1.339  12.092  19.917  0.00  0.00    +0.000 C 
ENDROOT
BRANCH   1  12
ATOM      2  O   UNL     1      -1.373  12.700  19.700  0.00  0.00    +0.000 OA
ATOM      3  C   UNL     1      -0.555  13.580  19.429  0.00  0.00    +0.000 A 
ATOM      4  N   UNL     1      -1.016  14.807  19.007  0.00  0.00    +0.000 N 
ATOM      5  C   UNL     1      -0.171  15.849  18.715  0.00  0.00    +0.000 A 
ATOM      6  C   UNL     1      -0.510  17.155  18.282  0.00  0.00    +0.000 A 
ATOM      7  C   UNL     1       0.619  17.932  18.104  0.00  0.00    +0.000 A 
ATOM      8  S   UNL     1       2.061  17.064  18.453  0.00  0.00    +0.000 S 
ATOM      9  C   UNL     1       1.179  15.668  18.847  0.00  0.00    +0.000 A 
ATOM     10  C   UNL     1       1.768  14.424  19.273  0.00  0.00    +0.000 A 
ATOM     11  O   UNL     1       2.976  14.248  19.420  0.00  0.00    +0.000 OA
ATOM     12  N   UNL     1       0.825  13.409  19.521  0.00  0.00    +0.000 N 
ATOM     13  H   UNL     1      -2.018  14.919  18.926  0.00  0.00    +0.000 HD
ENDBRANCH   1  12
BRANCH   1  14
ATOM     14  C   UNL     1       1.684  11.183  18.703  0.00  0.00    +0.000 C 
BRANCH  14  15
ATOM     15  N   UNL     1       0.873   9.951  18.639  0.00  0.00    +0.000 NA
ATOM     16  C   UNL     1       1.383   8.943  17.682  0.00  0.00    +0.000 C 
ATOM     17  C   UNL     1       2.613   8.160  18.178  0.00  0.00    +0.000 C 
ATOM     18  N   UNL     1       2.290   7.428  19.404  0.00  0.00    +0.000 N 
ATOM     19  C   UNL     1       1.731   8.267  20.483  0.00  0.00    +0.000 C 
ATOM     20  C   UNL     1       0.678   9.299  19.964  0.00  0.00    +0.000 C 
BRANCH  18  21
ATOM     21  C   UNL     1       2.050   6.058  19.383  0.00  0.00    +0.000 A 
ATOM     22  C   UNL     1       2.146   5.331  18.185  0.00  0.00    +0.000 A 
ATOM     23  C   UNL     1       1.826   3.965  18.122  0.00  0.00    +0.000 A 
ATOM     24  C   UNL     1       1.418   3.288  19.265  0.00  0.00    +0.000 A 
ATOM     25  C   UNL     1       1.324   3.979  20.469  0.00  0.00    +0.000 A 
ATOM     26  C   UNL     1       1.631   5.345  20.518  0.00  0.00    +0.000 A 
ENDBRANCH  18  21
ENDBRANCH  14  15
ENDBRANCH   1  14
TORSDOF 4
ENDMDL
MODEL 5
REMARK VINA RESULT:      -7.0      2.989      6.833
REMARK  Name = 
REMARK  4 active torsions:
REMARK  status: ('A' for Active; 'I' for Inactive)
REMARK    1  A    between atoms: N_11  and  C_12
REMARK    2  A    between atoms: C_12  and  C_13
REMARK    3  A    between atoms: C_13  and  N_14
REMARK    4  A    between atoms: N_17  and  C_18
REMARK                            x       y       z     vdW  Elec       q    Type
REMARK                         _______ _______ _______ _____ _____    ______ ____
ROOT
ATOM      1  C   UNL     1       3.186   2.355  17.936  0.00  0.00    +0.000 C 
ENDROOT
BRANCH   1  12
ATOM      2  O   UNL     1       4.568   2.666  20.336  0.00  0.00    +0.000 OA
ATOM      3  C   UNL     1       4.908   3.357  19.375  0.00  0.00    +0.000 A 
ATOM      4  N   UNL     1       5.930   4.264  19.537  0.00  0.00    +0.000 N 
ATOM      5  C   UNL     1       6.388   5.049  18.507  0.00  0.00    +0.000 A 
ATOM      6  C   UNL     1       7.430   6.010  18.537  0.00  0.00    +0.000 A 
ATOM      7  C   UNL     1       7.611   6.589  17.294  0.00  0.00    +0.000 A 
ATOM      8  S   UNL     1       6.512   5.967  16.127  0.00  0.00    +0.000 S 
ATOM      9  C   UNL     1       5.812   4.929  17.273  0.00  0.00    +0.000 A 
ATOM     10  C   UNL     1       4.732   4.016  16.994  0.00  0.00    +0.000 A 
ATOM     11  O   UNL     1       4.216   3.876  15.886  0.00  0.00    +0.000 OA
ATOM     12  N   UNL     1       4.313   3.278  18.116  0.00  0.00    +0.000 N 
ATOM     13  H   UNL     1       6.346   4.329  20.457  0.00  0.00    +0.000 HD
ENDBRANCH   1  12
BRANCH   1  14
ATOM     14  C   UNL     1       2.224   2.322  19.157  0.00  0.00    +0.000 C 
BRANCH  14  15
ATOM     15  N   UNL     1       1.207   3.393  19.137  0.00  0.00    +0.000 NA
ATOM     16  C   UNL     1       1.048   4.097  20.429  0.00  0.00    +0.000 C 
ATOM     17  C   UNL     1       2.167   5.106  20.747  0.00  0.00    +0.000 C 
ATOM     18  N   UNL     1       2.218   6.149  19.720  0.00  0.00    +0.000 N 
ATOM     19  C   UNL     1       2.346   5.638  18.341  0.00  0.00    +0.000 C 
ATOM     20  C   UNL     1       1.429   4.402  18.065  0.00  0.00    +0.000 C 
BRANCH  18  21
ATOM     21  C   UNL     1       1.694   7.416  19.954  0.00  0.00    +0.000 A 
ATOM     22  C   UNL     1       1.742   8.408  18.959  0.00  0.00    +0.000 A 
ATOM     23  C   UNL     1       1.297   9.718  19.200  0.00  0.00    +0.000 A 
ATOM     24  C   UNL     1       0.774  10.062  20.440  0.00  0.00    +0.000 A 
ATOM     25  C   UNL     1       0.702   9.099  21.441  0.00  0.00    +0.000 A 
ATOM     26  C   UNL     1       1.162   7.799  21.196  0.00  0.00    +0.000 A 
ENDBRANCH  18  21
ENDBRANCH  14  15
ENDBRANCH   1  14
TORSDOF 4
ENDMDL
MODEL 6
REMARK VINA RESULT:      -6.9      2.544      7.641
REMARK  Name = 
REMARK  4 active torsions:
REMARK  status: ('A' for Active; 'I' for Inactive)
REMARK    1  A    between atoms: N_11  and  C_12
REMARK    2  A    between atoms: C_12  and  C_13
REMARK    3  A    between atoms: C_13  and  N_14
REMARK    4  A    between atoms: N_17  and  C_18
REMARK                            x       y       z     vdW  Elec       q    Type
REMARK                         _______ _______ _______ _____ _____    ______ ____
ROOT
ATOM      1  C   UNL     1       2.567   4.821  19.891  0.00  0.00    +0.000 C 
ENDROOT
BRANCH   1  12
ATOM      2  O   UNL     1       1.605   3.698  17.528  0.00  0.00    +0.000 OA
ATOM      3  C   UNL     1       2.800   3.991  17.590  0.00  0.00    +0.000 A 
ATOM      4  N   UNL     1       3.605   3.727  16.505  0.00  0.00    +0.000 N 
ATOM      5  C   UNL     1       4.940   4.050  16.483  0.00  0.00    +0.000 A 
ATOM      6  C   UNL     1       5.873   3.842  15.437  0.00  0.00    +0.000 A 
ATOM      7  C   UNL     1       7.125   4.317  15.782  0.00  0.00    +0.000 A 
ATOM      8  S   UNL     1       7.145   4.991  17.363  0.00  0.00    +0.000 S 
ATOM      9  C   UNL     1       5.495   4.659  17.575  0.00  0.00    +0.000 A 
ATOM     10  C   UNL     1       4.745   4.975  18.766  0.00  0.00    +0.000 A 
ATOM     11  O   UNL     1       5.219   5.542  19.748  0.00  0.00    +0.000 OA
ATOM     12  N   UNL     1       3.397   4.579  18.704  0.00  0.00    +0.000 N 
ATOM     13  H   UNL     1       3.170   3.284  15.706  0.00  0.00    +0.000 HD
ENDBRANCH   1  12
BRANCH   1  14
ATOM     14  C   UNL     1       1.622   6.046  19.735  0.00  0.00    +0.000 C 
BRANCH  14  15
ATOM     15  N   UNL     1       2.310   7.345  19.881  0.00  0.00    +0.000 NA
ATOM     16  C   UNL     1       2.535   8.054  18.602  0.00  0.00    +0.000 C 
ATOM     17  C   UNL     1       1.281   8.734  18.022  0.00  0.00    +0.000 C 
ATOM     18  N   UNL     1       0.766   9.737  18.957  0.00  0.00    +0.000 N 
ATOM     19  C   UNL     1       0.504   9.222  20.316  0.00  0.00    +0.000 C 
ATOM     20  C   UNL     1       1.633   8.270  20.831  0.00  0.00    +0.000 C 
BRANCH  18  21
ATOM     21  C   UNL     1       0.986  11.094  18.750  0.00  0.00    +0.000 A 
ATOM     22  C   UNL     1       2.230  11.558  18.288  0.00  0.00    +0.000 A 
ATOM     23  C   UNL     1       2.504  12.929  18.153  0.00  0.00    +0.000 A 
ATOM     24  C   UNL     1       1.529  13.870  18.460  0.00  0.00    +0.000 A 
ATOM     25  C   UNL     1       0.285  13.441  18.910  0.00  0.00    +0.000 A 
ATOM     26  C   UNL     1       0.026  12.073  19.055  0.00  0.00    +0.000 A 
ENDBRANCH  18  21
ENDBRANCH  14  15
ENDBRANCH   1  14
TORSDOF 4
ENDMDL
MODEL 7
REMARK VINA RESULT:      -6.9      2.950      6.913
REMARK  Name = 
REMARK  4 active torsions:
REMARK  status: ('A' for Active; 'I' for Inactive)
REMARK    1  A    between atoms: N_11  and  C_12
REMARK    2  A    between atoms: C_12  and  C_13
REMARK    3  A    between atoms: C_13  and  N_14
REMARK    4  A    between atoms: N_17  and  C_18
REMARK                            x       y       z     vdW  Elec       q    Type
REMARK                         _______ _______ _______ _____ _____    ______ ____
ROOT
ATOM      1  C   UNL     1       3.463   2.898  17.558  0.00  0.00    +0.000 C 
ENDROOT
BRANCH   1  12
ATOM      2  O   UNL     1       4.699   2.737  20.051  0.00  0.00    +0.000 OA
ATOM      3  C   UNL     1       5.112   3.576  19.249  0.00  0.00    +0.000 A 
ATOM      4  N   UNL     1       6.140   4.408  19.629  0.00  0.00    +0.000 N 
ATOM      5  C   UNL     1       6.677   5.348  18.784  0.00  0.00    +0.000 A 
ATOM      6  C   UNL     1       7.734   6.256  19.044  0.00  0.00    +0.000 A 
ATOM      7  C   UNL     1       8.003   7.039  17.937  0.00  0.00    +0.000 A 
ATOM      8  S   UNL     1       6.968   6.668  16.617  0.00  0.00    +0.000 S 
ATOM      9  C   UNL     1       6.177   5.466  17.516  0.00  0.00    +0.000 A 
ATOM     10  C   UNL     1       5.097   4.651  17.017  0.00  0.00    +0.000 A 
ATOM     11  O   UNL     1       4.649   4.724  15.875  0.00  0.00    +0.000 OA
ATOM     12  N   UNL     1       4.595   3.739  17.964  0.00  0.00    +0.000 N 
ATOM     13  H   UNL     1       6.499   4.296  20.568  0.00  0.00    +0.000 HD
ENDBRANCH   1  12
BRANCH   1  14
ATOM     14  C   UNL     1       2.425   2.681  18.696  0.00  0.00    +0.000 C 
BRANCH  14  15
ATOM     15  N   UNL     1       1.372   3.715  18.740  0.00  0.00    +0.000 NA
ATOM     16  C   UNL     1       1.111   4.252  20.094  0.00  0.00    +0.000 C 
ATOM     17  C   UNL     1       2.171   5.248  20.599  0.00  0.00    +0.000 C 
ATOM     18  N   UNL     1       2.244   6.410  19.709  0.00  0.00    +0.000 N 
ATOM     19  C   UNL     1       2.471   6.074  18.290  0.00  0.00    +0.000 C 
ATOM     20  C   UNL     1       1.619   4.853  17.812  0.00  0.00    +0.000 C 
BRANCH  18  21
ATOM     21  C   UNL     1       1.660   7.623  20.059  0.00  0.00    +0.000 A 
ATOM     22  C   UNL     1       1.068   7.797  21.322  0.00  0.00    +0.000 A 
ATOM     23  C   UNL     1       0.399   8.982  21.667  0.00  0.00    +0.000 A 
ATOM     24  C   UNL     1       0.322  10.032  20.760  0.00  0.00    +0.000 A 
ATOM     25  C   UNL     1       0.908   9.893  19.506  0.00  0.00    +0.000 A 
ATOM     26  C   UNL     1       1.560   8.701  19.166  0.00  0.00    +0.000 A 
ENDBRANCH  18  21
ENDBRANCH  14  15
ENDBRANCH   1  14
TORSDOF 4
ENDMDL
MODEL 8
REMARK VINA RESULT:      -6.8      1.053      1.889
REMARK  Name = 
REMARK  4 active torsions:
REMARK  status: ('A' for Active; 'I' for Inactive)
REMARK    1  A    between atoms: N_11  and  C_12
REMARK    2  A    between atoms: C_12  and  C_13
REMARK    3  A    between atoms: C_13  and  N_14
REMARK    4  A    between atoms: N_17  and  C_18
REMARK                            x       y       z     vdW  Elec       q    Type
REMARK                         _______ _______ _______ _____ _____    ______ ____
ROOT
ATOM      1  C   UNL     1       3.463   5.173  19.168  0.00  0.00    +0.000 C 
ENDROOT
BRANCH   1  12
ATOM      2  O   UNL     1       3.672   7.252  17.324  0.00  0.00    +0.000 OA
ATOM      3  C   UNL     1       2.965   7.424  18.318  0.00  0.00    +0.000 A 
ATOM      4  N   UNL     1       2.338   8.637  18.484  0.00  0.00    +0.000 N 
ATOM      5  C   UNL     1       1.509   8.897  19.548  0.00  0.00    +0.000 A 
ATOM      6  C   UNL     1       0.800  10.091  19.833  0.00  0.00    +0.000 A 
ATOM      7  C   UNL     1       0.056   9.966  20.992  0.00  0.00    +0.000 A 
ATOM      8  S   UNL     1       0.240   8.416  21.712  0.00  0.00    +0.000 S 
ATOM      9  C   UNL     1       1.296   7.919  20.480  0.00  0.00    +0.000 A 
ATOM     10  C   UNL     1       1.908   6.616  20.407  0.00  0.00    +0.000 A 
ATOM     11  O   UNL     1       1.711   5.715  21.220  0.00  0.00    +0.000 OA
ATOM     12  N   UNL     1       2.760   6.455  19.299  0.00  0.00    +0.000 N 
ATOM     13  H   UNL     1       2.504   9.343  17.778  0.00  0.00    +0.000 HD
ENDBRANCH   1  12
BRANCH   1  14
ATOM     14  C   UNL     1       4.998   5.295  19.386  0.00  0.00    +0.000 C 
BRANCH  14  15
ATOM     15  N   UNL     1       5.793   4.433  18.487  0.00  0.00    +0.000 NA
ATOM     16  C   UNL     1       5.003   3.792  17.413  0.00  0.00    +0.000 C 
ATOM     17  C   UNL     1       4.626   4.731  16.252  0.00  0.00    +0.000 C 
ATOM     18  N   UNL     1       5.834   5.256  15.610  0.00  0.00    +0.000 N 
ATOM     19  C   UNL     1       6.777   5.915  16.535  0.00  0.00    +0.000 C 
ATOM     20  C   UNL     1       6.958   5.131  17.875  0.00  0.00    +0.000 C 
BRANCH  18  21
ATOM     21  C   UNL     1       6.281   4.749  14.394  0.00  0.00    +0.000 A 
ATOM     22  C   UNL     1       7.434   5.268  13.780  0.00  0.00    +0.000 A 
ATOM     23  C   UNL     1       7.857   4.831  12.514  0.00  0.00    +0.000 A 
ATOM     24  C   UNL     1       7.145   3.848  11.839  0.00  0.00    +0.000 A 
ATOM     25  C   UNL     1       6.006   3.307  12.427  0.00  0.00    +0.000 A 
ATOM     26  C   UNL     1       5.583   3.760  13.683  0.00  0.00    +0.000 A 
ENDBRANCH  18  21
ENDBRANCH  14  15
ENDBRANCH   1  14
TORSDOF 4
ENDMDL
MODEL 9
REMARK VINA RESULT:      -6.8      5.025      7.441
REMARK  Name = 
REMARK  4 active torsions:
REMARK  status: ('A' for Active; 'I' for Inactive)
REMARK    1  A    between atoms: N_11  and  C_12
REMARK    2  A    between atoms: C_12  and  C_13
REMARK    3  A    between atoms: C_13  and  N_14
REMARK    4  A    between atoms: N_17  and  C_18
REMARK                            x       y       z     vdW  Elec       q    Type
REMARK                         _______ _______ _______ _____ _____    ______ ____
ROOT
ATOM      1  C   UNL     1       0.333  12.628  19.144  0.00  0.00    +0.000 C 
ENDROOT
BRANCH   1  12
ATOM      2  O   UNL     1       1.377  13.563  21.553  0.00  0.00    +0.000 OA
ATOM      3  C   UNL     1       0.169  13.329  21.493  0.00  0.00    +0.000 A 
ATOM      4  N   UNL     1      -0.600  13.513  22.620  0.00  0.00    +0.000 N 
ATOM      5  C   UNL     1      -1.957  13.304  22.627  0.00  0.00    +0.000 A 
ATOM      6  C   UNL     1      -2.861  13.462  23.708  0.00  0.00    +0.000 A 
ATOM      7  C   UNL     1      -4.156  13.170  23.323  0.00  0.00    +0.000 A 
ATOM      8  S   UNL     1      -4.248  12.702  21.672  0.00  0.00    +0.000 S 
ATOM      9  C   UNL     1      -2.574  12.899  21.476  0.00  0.00    +0.000 A 
ATOM     10  C   UNL     1      -1.864  12.669  20.242  0.00  0.00    +0.000 A 
ATOM     11  O   UNL     1      -2.402  12.328  19.190  0.00  0.00    +0.000 OA
ATOM     12  N   UNL     1      -0.477  12.882  20.342  0.00  0.00    +0.000 N 
ATOM     13  H   UNL     1      -0.123  13.822  23.457  0.00  0.00    +0.000 HD
ENDBRANCH   1  12
BRANCH   1  14
ATOM     14  C   UNL     1       1.249  11.379  19.282  0.00  0.00    +0.000 C 
BRANCH  14  15
ATOM     15  N   UNL     1       0.533  10.099  19.113  0.00  0.00    +0.000 NA
ATOM     16  C   UNL     1       1.084   9.237  18.043  0.00  0.00    +0.000 C 
ATOM     17  C   UNL     1       2.387   8.509  18.420  0.00  0.00    +0.000 C 
ATOM     18  N   UNL     1       2.166   7.633  19.573  0.00  0.00    +0.000 N 
ATOM     19  C   UNL     1       1.584   8.311  20.748  0.00  0.00    +0.000 C 
ATOM     20  C   UNL     1       0.437   9.303  20.368  0.00  0.00    +0.000 C 
BRANCH  18  21
ATOM     21  C   UNL     1       2.031   6.258  19.417  0.00  0.00    +0.000 A 
ATOM     22  C   UNL     1       2.221   5.655  18.162  0.00  0.00    +0.000 A 
ATOM     23  C   UNL     1       2.008   4.281  17.961  0.00  0.00    +0.000 A 
ATOM     24  C   UNL     1       1.614   3.473  19.020  0.00  0.00    +0.000 A 
ATOM     25  C   UNL     1       1.428   4.039  20.277  0.00  0.00    +0.000 A 
ATOM     26  C   UNL     1       1.629   5.412  20.464  0.00  0.00    +0.000 A 
ENDBRANCH  18  21
ENDBRANCH  14  15
ENDBRANCH   1  14
TORSDOF 4
ENDMDL
