MODEL 1
REMARK VINA RESULT:      -8.4      0.000      0.000
REMARK  Name = 
REMARK  9 active torsions:
REMARK  status: ('A' for Active; 'I' for Inactive)
REMARK    1  A    between atoms: C_1  and  C_2
REMARK    2  A    between atoms: C_2  and  C_3
REMARK    3  A    between atoms: C_2  and  N_4
REMARK    4  A    between atoms: C_2  and  C_5
REMARK    5  A    between atoms: C_6  and  C_7
REMARK    6  A    between atoms: C_12  and  C_13
REMARK    7  A    between atoms: C_13  and  C_15
REMARK    8  A    between atoms: C_18  and  N_19
REMARK    9  A    between atoms: N_19  and  C_20
REMARK                            x       y       z     vdW  Elec       q    Type
REMARK                         _______ _______ _______ _____ _____    ______ ____
ROOT
ATOM      1  C   UNL     1      -0.441  11.865  18.740  0.00  0.00    +0.000 C 
ATOM      2  O   UNL     1       0.220  12.853  18.438  0.00  0.00    +0.000 OA
ENDROOT
BRANCH   1   8
ATOM      3  C   UNL     1      -3.949  12.478  20.075  0.00  0.00    +0.000 A 
ATOM      4  C   UNL     1      -4.723  11.909  19.067  0.00  0.00    +0.000 A 
ATOM      5  C   UNL     1      -4.120  11.385  17.914  0.00  0.00    +0.000 A 
ATOM      6  C   UNL     1      -2.729  11.369  17.779  0.00  0.00    +0.000 A 
ATOM      7 CL   UNL     1      -2.097  10.572  16.379  0.00  0.00    +0.000 Cl
ATOM      8  C   UNL     1      -1.935  11.927  18.789  0.00  0.00    +0.000 A 
ATOM      9  C   UNL     1      -2.562  12.533  19.903  0.00  0.00    +0.000 A 
BRANCH   3  11
ATOM     10  C   UNL     1      -5.032  13.332  22.335  0.00  0.00    +0.000 C 
ATOM     11  C   UNL     1      -4.556  12.947  21.290  0.00  0.00    +0.000 C 
BRANCH  10  13
ATOM     12  C   UNL     1      -6.617  12.752  24.141  0.00  0.00    +0.000 C 
ATOM     13  C   UNL     1      -5.633  13.797  23.608  0.00  0.00    +0.000 C 
ATOM     14  C   UNL     1      -6.358  15.135  23.412  0.00  0.00    +0.000 C 
BRANCH  13  15
ATOM     15  N   UNL     1      -4.576  13.976  24.614  0.00  0.00    +0.000 NA
ATOM     16  H   UNL     1      -3.771  14.422  24.175  0.00  0.00    +0.000 HD
ATOM     17  H   UNL     1      -4.252  13.066  24.931  0.00  0.00    +0.000 HD
ENDBRANCH  13  15
ENDBRANCH  10  13
ENDBRANCH   3  11
ENDBRANCH   1   8
BRANCH   1  18
ATOM     18  C   UNL     1       0.284  10.605  19.078  0.00  0.00    +0.000 A 
ATOM     19  C   UNL     1       1.091  10.009  18.107  0.00  0.00    +0.000 A 
ATOM     20  C   UNL     1       1.765   8.819  18.395  0.00  0.00    +0.000 A 
ATOM     21  C   UNL     1       1.665   8.215  19.661  0.00  0.00    +0.000 A 
ATOM     22  C   UNL     1       0.872   8.831  20.629  0.00  0.00    +0.000 A 
ATOM     23  C   UNL     1       0.157   9.993  20.332  0.00  0.00    +0.000 A 
BRANCH  21  24
ATOM     24  N   UNL     1       2.393   7.062  20.016  0.00  0.00    +0.000 N 
ATOM     25  H   UNL     1       3.048   7.194  20.781  0.00  0.00    +0.000 HD
BRANCH  24  26
ATOM     26  C   UNL     1       2.059   5.723  19.749  0.00  0.00    +0.000 A 
ATOM     27  C   UNL     1       1.449   4.940  20.740  0.00  0.00    +0.000 A 
ATOM     28  C   UNL     1       1.264   3.573  20.557  0.00  0.00    +0.000 A 
ATOM     29  C   UNL     1       1.648   2.989  19.357  0.00  0.00    +0.000 A 
ATOM     30  F   UNL     1       1.490   1.670  19.194  0.00  0.00    +0.000 F 
ATOM     31  C   UNL     1       2.203   3.746  18.333  0.00  0.00    +0.000 A 
ATOM     32  C   UNL     1       2.413   5.106  18.541  0.00  0.00    +0.000 A 
ATOM     33  F   UNL     1       3.001   5.827  17.571  0.00  0.00    +0.000 F 
ENDBRANCH  24  26
ENDBRANCH  21  24
ENDBRANCH   1  18
TORSDOF 7
ENDMDL
MODEL 2
REMARK VINA RESULT:      -8.3      0.790      1.035
REMARK  Name = 
REMARK  9 active torsions:
REMARK  status: ('A' for Active; 'I' for Inactive)
REMARK    1  A    between atoms: C_1  and  C_2
REMARK    2  A    between atoms: C_2  and  C_3
REMARK    3  A    between atoms: C_2  and  N_4
REMARK    4  A    between atoms: C_2  and  C_5
REMARK    5  A    between atoms: C_6  and  C_7
REMARK    6  A    between atoms: C_12  and  C_13
REMARK    7  A    between atoms: C_13  and  C_15
REMARK    8  A    between atoms: C_18  and  N_19
REMARK    9  A    between atoms: N_19  and  C_20
REMARK                            x       y       z     vdW  Elec       q    Type
REMARK                         _______ _______ _______ _____ _____    ______ ____
ROOT
ATOM      1  C   UNL     1      -0.037  11.771  18.770  0.00  0.00    +0.000 C 
ATOM      2  O   UNL     1       0.669  12.697  18.386  0.00  0.00    +0.000 OA
ENDROOT
BRANCH   1   8
ATOM      3  C   UNL     1      -3.367  12.790  20.300  0.00  0.00    +0.000 A 
ATOM      4  C   UNL     1      -4.262  12.170  19.433  0.00  0.00    +0.000 A 
ATOM      5  C   UNL     1      -3.799  11.475  18.305  0.00  0.00    +0.000 A 
ATOM      6  C   UNL     1      -2.429  11.340  18.062  0.00  0.00    +0.000 A 
ATOM      7 CL   UNL     1      -1.977  10.345  16.721  0.00  0.00    +0.000 Cl
ATOM      8  C   UNL     1      -1.514  11.948  18.931  0.00  0.00    +0.000 A 
ATOM      9  C   UNL     1      -2.000  12.722  20.012  0.00  0.00    +0.000 A 
BRANCH   3  11
ATOM     10  C   UNL     1      -4.215  14.021  22.485  0.00  0.00    +0.000 C 
ATOM     11  C   UNL     1      -3.832  13.438  21.496  0.00  0.00    +0.000 C 
BRANCH  10  13
ATOM     12  C   UNL     1      -5.273  16.083  23.345  0.00  0.00    +0.000 C 
ATOM     13  C   UNL     1      -4.676  14.721  23.709  0.00  0.00    +0.000 C 
ATOM     14  C   UNL     1      -3.519  14.911  24.697  0.00  0.00    +0.000 C 
BRANCH  13  15
ATOM     15  N   UNL     1      -5.728  13.927  24.361  0.00  0.00    +0.000 NA
ATOM     16  H   UNL     1      -5.306  13.347  25.086  0.00  0.00    +0.000 HD
ATOM     17  H   UNL     1      -6.131  13.280  23.687  0.00  0.00    +0.000 HD
ENDBRANCH  13  15
ENDBRANCH  10  13
ENDBRANCH   3  11
ENDBRANCH   1   8
BRANCH   1  18
ATOM     18  C   UNL     1       0.616  10.469  19.093  0.00  0.00    +0.000 A 
ATOM     19  C   UNL     1       1.374   9.831  18.109  0.00  0.00    +0.000 A 
ATOM     20  C   UNL     1       1.980   8.602  18.384  0.00  0.00    +0.000 A 
ATOM     21  C   UNL     1       1.860   7.998  19.648  0.00  0.00    +0.000 A 
ATOM     22  C   UNL     1       1.118   8.656  20.629  0.00  0.00    +0.000 A 
ATOM     23  C   UNL     1       0.469   9.859  20.346  0.00  0.00    +0.000 A 
BRANCH  21  24
ATOM     24  N   UNL     1       2.524   6.803  19.989  0.00  0.00    +0.000 N 
ATOM     25  H   UNL     1       3.187   6.890  20.753  0.00  0.00    +0.000 HD
BRANCH  24  26
ATOM     26  C   UNL     1       2.115   5.487  19.709  0.00  0.00    +0.000 A 
ATOM     27  C   UNL     1       1.481   4.723  20.699  0.00  0.00    +0.000 A 
ATOM     28  C   UNL     1       1.221   3.371  20.500  0.00  0.00    +0.000 A 
ATOM     29  C   UNL     1       1.553   2.786  19.285  0.00  0.00    +0.000 A 
ATOM     30  F   UNL     1       1.322   1.479  19.106  0.00  0.00    +0.000 F 
ATOM     31  C   UNL     1       2.130   3.528  18.262  0.00  0.00    +0.000 A 
ATOM     32  C   UNL     1       2.415   4.872  18.486  0.00  0.00    +0.000 A 
ATOM     33  F   UNL     1       3.024   5.575  17.516  0.00  0.00    +0.000 F 
ENDBRANCH  24  26
ENDBRANCH  21  24
ENDBRANCH   1  18
TORSDOF 7
ENDMDL
MODEL 3
REMARK VINA RESULT:      -8.2      1.038      1.346
REMARK  Name = 
REMARK  9 active torsions:
REMARK  status: ('A' for Active; 'I' for Inactive)
REMARK    1  A    between atoms: C_1  and  C_2
REMARK    2  A    between atoms: C_2  and  C_3
REMARK    3  A    between atoms: C_2  and  N_4
REMARK    4  A    between atoms: C_2  and  C_5
REMARK    5  A    between atoms: C_6  and  C_7
REMARK    6  A    between atoms: C_12  and  C_13
REMARK    7  A    between atoms: C_13  and  C_15
REMARK    8  A    between atoms: C_18  and  N_19
REMARK    9  A    between atoms: N_19  and  C_20
REMARK                            x       y       z     vdW  Elec       q    Type
REMARK                         _______ _______ _______ _____ _____    ______ ____
ROOT
ATOM      1  C   UNL     1       0.001  11.742  18.872  0.00  0.00    +0.000 C 
ATOM      2  O   UNL     1       0.703  12.713  18.613  0.00  0.00    +0.000 OA
ENDROOT
BRANCH   1   8
ATOM      3  C   UNL     1      -3.452  12.674  20.168  0.00  0.00    +0.000 A 
ATOM      4  C   UNL     1      -4.269  12.000  19.264  0.00  0.00    +0.000 A 
ATOM      5  C   UNL     1      -3.712  11.295  18.186  0.00  0.00    +0.000 A 
ATOM      6  C   UNL     1      -2.325  11.206  18.031  0.00  0.00    +0.000 A 
ATOM      7 CL   UNL     1      -1.756  10.195  16.747  0.00  0.00    +0.000 Cl
ATOM      8  C   UNL     1      -1.488  11.868  18.937  0.00  0.00    +0.000 A 
ATOM      9  C   UNL     1      -2.067  12.650  19.965  0.00  0.00    +0.000 A 
BRANCH   3  11
ATOM     10  C   UNL     1      -4.449  13.881  22.302  0.00  0.00    +0.000 C 
ATOM     11  C   UNL     1      -4.012  13.333  21.315  0.00  0.00    +0.000 C 
BRANCH  10  13
ATOM     12  C   UNL     1      -6.385  13.975  23.837  0.00  0.00    +0.000 C 
ATOM     13  C   UNL     1      -5.003  14.546  23.507  0.00  0.00    +0.000 C 
ATOM     14  C   UNL     1      -5.108  16.062  23.293  0.00  0.00    +0.000 C 
BRANCH  13  15
ATOM     15  N   UNL     1      -4.122  14.292  24.656  0.00  0.00    +0.000 NA
ATOM     16  H   UNL     1      -3.284  14.865  24.567  0.00  0.00    +0.000 HD
ATOM     17  H   UNL     1      -3.802  13.326  24.631  0.00  0.00    +0.000 HD
ENDBRANCH  13  15
ENDBRANCH  10  13
ENDBRANCH   3  11
ENDBRANCH   1   8
BRANCH   1  18
ATOM     18  C   UNL     1       0.670  10.436  19.140  0.00  0.00    +0.000 A 
ATOM     19  C   UNL     1       1.452   9.860  18.137  0.00  0.00    +0.000 A 
ATOM     20  C   UNL     1       2.073   8.627  18.359  0.00  0.00    +0.000 A 
ATOM     21  C   UNL     1       1.945   7.959  19.589  0.00  0.00    +0.000 A 
ATOM     22  C   UNL     1       1.179   8.556  20.591  0.00  0.00    +0.000 A 
ATOM     23  C   UNL     1       0.515   9.762  20.358  0.00  0.00    +0.000 A 
BRANCH  21  24
ATOM     24  N   UNL     1       2.622   6.759  19.880  0.00  0.00    +0.000 N 
ATOM     25  H   UNL     1       3.280   6.820  20.652  0.00  0.00    +0.000 HD
BRANCH  24  26
ATOM     26  C   UNL     1       2.234   5.452  19.538  0.00  0.00    +0.000 A 
ATOM     27  C   UNL     1       1.967   5.126  18.200  0.00  0.00    +0.000 A 
ATOM     28  C   UNL     1       1.422   3.892  17.860  0.00  0.00    +0.000 A 
ATOM     29  C   UNL     1       1.183   2.956  18.857  0.00  0.00    +0.000 A 
ATOM     30  F   UNL     1       0.637   1.779  18.530  0.00  0.00    +0.000 F 
ATOM     31  C   UNL     1       1.489   3.225  20.185  0.00  0.00    +0.000 A 
ATOM     32  C   UNL     1       2.004   4.475  20.516  0.00  0.00    +0.000 A 
ATOM     33  F   UNL     1       2.246   4.755  21.808  0.00  0.00    +0.000 F 
ENDBRANCH  24  26
ENDBRANCH  21  24
ENDBRANCH   1  18
TORSDOF 7
ENDMDL
MODEL 4
REMARK VINA RESULT:      -8.2      0.726      1.290
REMARK  Name = 
REMARK  9 active torsions:
REMARK  status: ('A' for Active; 'I' for Inactive)
REMARK    1  A    between atoms: C_1  and  C_2
REMARK    2  A    between atoms: C_2  and  C_3
REMARK    3  A    between atoms: C_2  and  N_4
REMARK    4  A    between atoms: C_2  and  C_5
REMARK    5  A    between atoms: C_6  and  C_7
REMARK    6  A    between atoms: C_12  and  C_13
REMARK    7  A    between atoms: C_13  and  C_15
REMARK    8  A    between atoms: C_18  and  N_19
REMARK    9  A    between atoms: N_19  and  C_20
REMARK                            x       y       z     vdW  Elec       q    Type
REMARK                         _______ _______ _______ _____ _____    ______ ____
ROOT
ATOM      1  C   UNL     1      -0.479  11.785  18.846  0.00  0.00    +0.000 C 
ATOM      2  O   UNL     1       0.149  12.819  18.646  0.00  0.00    +0.000 OA
ENDROOT
BRANCH   1   8
ATOM      3  C   UNL     1      -4.089  12.369  19.891  0.00  0.00    +0.000 A 
ATOM      4  C   UNL     1      -4.772  11.647  18.915  0.00  0.00    +0.000 A 
ATOM      5  C   UNL     1      -4.073  11.022  17.870  0.00  0.00    +0.000 A 
ATOM      6  C   UNL     1      -2.676  11.062  17.820  0.00  0.00    +0.000 A 
ATOM      7 CL   UNL     1      -1.922  10.139  16.566  0.00  0.00    +0.000 Cl
ATOM      8  C   UNL     1      -1.974  11.775  18.800  0.00  0.00    +0.000 A 
ATOM      9  C   UNL     1      -2.698  12.475  19.794  0.00  0.00    +0.000 A 
BRANCH   3  11
ATOM     10  C   UNL     1      -5.358  13.465  21.939  0.00  0.00    +0.000 C 
ATOM     11  C   UNL     1      -4.792  12.946  21.003  0.00  0.00    +0.000 C 
BRANCH  10  13
ATOM     12  C   UNL     1      -5.123  15.065  23.809  0.00  0.00    +0.000 C 
ATOM     13  C   UNL     1      -6.055  14.083  23.093  0.00  0.00    +0.000 C 
ATOM     14  C   UNL     1      -6.531  13.010  24.080  0.00  0.00    +0.000 C 
BRANCH  13  15
ATOM     15  N   UNL     1      -7.223  14.837  22.616  0.00  0.00    +0.000 NA
ATOM     16  H   UNL     1      -6.907  15.705  22.186  0.00  0.00    +0.000 HD
ATOM     17  H   UNL     1      -7.797  15.111  23.409  0.00  0.00    +0.000 HD
ENDBRANCH  13  15
ENDBRANCH  10  13
ENDBRANCH   3  11
ENDBRANCH   1   8
BRANCH   1  18
ATOM     18  C   UNL     1       0.285  10.542  19.158  0.00  0.00    +0.000 A 
ATOM     19  C   UNL     1       0.113   9.939  20.406  0.00  0.00    +0.000 A 
ATOM     20  C   UNL     1       0.831   8.784  20.726  0.00  0.00    +0.000 A 
ATOM     21  C   UNL     1       1.714   8.196  19.803  0.00  0.00    +0.000 A 
ATOM     22  C   UNL     1       1.861   8.796  18.552  0.00  0.00    +0.000 A 
ATOM     23  C   UNL     1       1.184   9.978  18.244  0.00  0.00    +0.000 A 
BRANCH  21  24
ATOM     24  N   UNL     1       2.392   6.988  20.057  0.00  0.00    +0.000 N 
ATOM     25  H   UNL     1       3.068   7.032  20.815  0.00  0.00    +0.000 HD
BRANCH  24  26
ATOM     26  C   UNL     1       1.989   5.689  19.702  0.00  0.00    +0.000 A 
ATOM     27  C   UNL     1       1.310   4.885  20.630  0.00  0.00    +0.000 A 
ATOM     28  C   UNL     1       1.051   3.546  20.359  0.00  0.00    +0.000 A 
ATOM     29  C   UNL     1       1.431   3.013  19.135  0.00  0.00    +0.000 A 
ATOM     30  F   UNL     1       1.202   1.718  18.887  0.00  0.00    +0.000 F 
ATOM     31  C   UNL     1       2.054   3.796  18.171  0.00  0.00    +0.000 A 
ATOM     32  C   UNL     1       2.336   5.126  18.466  0.00  0.00    +0.000 A 
ATOM     33  F   UNL     1       2.989   5.868  17.555  0.00  0.00    +0.000 F 
ENDBRANCH  24  26
ENDBRANCH  21  24
ENDBRANCH   1  18
TORSDOF 7
ENDMDL
MODEL 5
REMARK VINA RESULT:      -8.1      5.331     11.574
REMARK  Name = 
REMARK  9 active torsions:
REMARK  status: ('A' for Active; 'I' for Inactive)
REMARK    1  A    between atoms: C_1  and  C_2
REMARK    2  A    between atoms: C_2  and  C_3
REMARK    3  A    between atoms: C_2  and  N_4
REMARK    4  A    between atoms: C_2  and  C_5
REMARK    5  A    between atoms: C_6  and  C_7
REMARK    6  A    between atoms: C_12  and  C_13
REMARK    7  A    between atoms: C_13  and  C_15
REMARK    8  A    between atoms: C_18  and  N_19
REMARK    9  A    between atoms: N_19  and  C_20
REMARK                            x       y       z     vdW  Elec       q    Type
REMARK                         _______ _______ _______ _____ _____    ______ ____
ROOT
ATOM      1  C   UNL     1       3.784   5.070  18.615  0.00  0.00    +0.000 C 
ATOM      2  O   UNL     1       3.337   4.089  19.199  0.00  0.00    +0.000 OA
ENDROOT
BRANCH   1   8
ATOM      3  C   UNL     1       6.044   4.407  15.628  0.00  0.00    +0.000 A 
ATOM      4  C   UNL     1       7.303   4.560  16.204  0.00  0.00    +0.000 A 
ATOM      5  C   UNL     1       7.431   4.947  17.547  0.00  0.00    +0.000 A 
ATOM      6  C   UNL     1       6.300   5.130  18.349  0.00  0.00    +0.000 A 
ATOM      7 CL   UNL     1       6.587   5.469  20.022  0.00  0.00    +0.000 Cl
ATOM      8  C   UNL     1       5.027   4.969  17.788  0.00  0.00    +0.000 A 
ATOM      9  C   UNL     1       4.914   4.668  16.410  0.00  0.00    +0.000 A 
BRANCH   3  11
ATOM     10  C   UNL     1       5.790   3.505  13.152  0.00  0.00    +0.000 C 
ATOM     11  C   UNL     1       5.907   3.939  14.277  0.00  0.00    +0.000 C 
BRANCH  10  13
ATOM     12  C   UNL     1       6.695   3.649  10.856  0.00  0.00    +0.000 C 
ATOM     13  C   UNL     1       5.659   2.987  11.769  0.00  0.00    +0.000 C 
ATOM     14  C   UNL     1       4.249   3.247  11.222  0.00  0.00    +0.000 C 
BRANCH  13  15
ATOM     15  N   UNL     1       5.908   1.539  11.760  0.00  0.00    +0.000 NA
ATOM     16  H   UNL     1       6.889   1.369  11.979  0.00  0.00    +0.000 HD
ATOM     17  H   UNL     1       5.765   1.176  10.821  0.00  0.00    +0.000 HD
ENDBRANCH  13  15
ENDBRANCH  10  13
ENDBRANCH   3  11
ENDBRANCH   1   8
BRANCH   1  18
ATOM     18  C   UNL     1       3.068   6.370  18.764  0.00  0.00    +0.000 A 
ATOM     19  C   UNL     1       2.362   6.621  19.942  0.00  0.00    +0.000 A 
ATOM     20  C   UNL     1       1.670   7.825  20.096  0.00  0.00    +0.000 A 
ATOM     21  C   UNL     1       1.686   8.808  19.091  0.00  0.00    +0.000 A 
ATOM     22  C   UNL     1       2.413   8.554  17.928  0.00  0.00    +0.000 A 
ATOM     23  C   UNL     1       3.066   7.333  17.746  0.00  0.00    +0.000 A 
BRANCH  21  24
ATOM     24  N   UNL     1       1.071  10.066  19.243  0.00  0.00    +0.000 N 
ATOM     25  H   UNL     1       1.716  10.845  19.334  0.00  0.00    +0.000 HD
BRANCH  24  26
ATOM     26  C   UNL     1      -0.242  10.425  18.890  0.00  0.00    +0.000 A 
ATOM     27  C   UNL     1      -0.827   9.897  17.730  0.00  0.00    +0.000 A 
ATOM     28  C   UNL     1      -2.055  10.364  17.273  0.00  0.00    +0.000 A 
ATOM     29  C   UNL     1      -2.728  11.334  18.004  0.00  0.00    +0.000 A 
ATOM     30  F   UNL     1      -3.898  11.799  17.549  0.00  0.00    +0.000 F 
ATOM     31  C   UNL     1      -2.204  11.838  19.187  0.00  0.00    +0.000 A 
ATOM     32  C   UNL     1      -0.960  11.385  19.617  0.00  0.00    +0.000 A 
ATOM     33  F   UNL     1      -0.427  11.913  20.732  0.00  0.00    +0.000 F 
ENDBRANCH  24  26
ENDBRANCH  21  24
ENDBRANCH   1  18
TORSDOF 7
ENDMDL
MODEL 6
REMARK VINA RESULT:      -8.1      1.036      1.703
REMARK  Name = 
REMARK  9 active torsions:
REMARK  status: ('A' for Active; 'I' for Inactive)
REMARK    1  A    between atoms: C_1  and  C_2
REMARK    2  A    between atoms: C_2  and  C_3
REMARK    3  A    between atoms: C_2  and  N_4
REMARK    4  A    between atoms: C_2  and  C_5
REMARK    5  A    between atoms: C_6  and  C_7
REMARK    6  A    between atoms: C_12  and  C_13
REMARK    7  A    between atoms: C_13  and  C_15
REMARK    8  A    between atoms: C_18  and  N_19
REMARK    9  A    between atoms: N_19  and  C_20
REMARK                            x       y       z     vdW  Elec       q    Type
REMARK                         _______ _______ _______ _____ _____    ______ ____
ROOT
ATOM      1  C   UNL     1      -0.740  11.914  18.641  0.00  0.00    +0.000 C 
ATOM      2  O   UNL     1      -0.120  12.898  18.250  0.00  0.00    +0.000 OA
ENDROOT
BRANCH   1   8
ATOM      3  C   UNL     1      -4.257  12.337  20.026  0.00  0.00    +0.000 A 
ATOM      4  C   UNL     1      -5.019  11.798  18.993  0.00  0.00    +0.000 A 
ATOM      5  C   UNL     1      -4.408  11.356  17.810  0.00  0.00    +0.000 A 
ATOM      6  C   UNL     1      -3.017  11.394  17.667  0.00  0.00    +0.000 A 
ATOM      7 CL   UNL     1      -2.371  10.694  16.223  0.00  0.00    +0.000 Cl
ATOM      8  C   UNL     1      -2.235  11.923  18.701  0.00  0.00    +0.000 A 
ATOM      9  C   UNL     1      -2.873  12.448  19.849  0.00  0.00    +0.000 A 
BRANCH   3  11
ATOM     10  C   UNL     1      -5.409  13.011  22.312  0.00  0.00    +0.000 C 
ATOM     11  C   UNL     1      -4.869  12.721  21.268  0.00  0.00    +0.000 C 
BRANCH  10  13
ATOM     12  C   UNL     1      -7.317  12.525  23.807  0.00  0.00    +0.000 C 
ATOM     13  C   UNL     1      -6.069  13.384  23.587  0.00  0.00    +0.000 C 
ATOM     14  C   UNL     1      -6.458  14.868  23.585  0.00  0.00    +0.000 C 
BRANCH  13  15
ATOM     15  N   UNL     1      -5.149  13.139  24.706  0.00  0.00    +0.000 NA
ATOM     16  H   UNL     1      -4.293  12.716  24.348  0.00  0.00    +0.000 HD
ATOM     17  H   UNL     1      -5.557  12.452  25.337  0.00  0.00    +0.000 HD
ENDBRANCH  13  15
ENDBRANCH  10  13
ENDBRANCH   3  11
ENDBRANCH   1   8
BRANCH   1  18
ATOM     18  C   UNL     1       0.035  10.715  19.074  0.00  0.00    +0.000 A 
ATOM     19  C   UNL     1      -0.067  10.288  20.399  0.00  0.00    +0.000 A 
ATOM     20  C   UNL     1       0.664   9.178  20.832  0.00  0.00    +0.000 A 
ATOM     21  C   UNL     1       1.490   8.461  19.948  0.00  0.00    +0.000 A 
ATOM     22  C   UNL     1       1.566   8.885  18.622  0.00  0.00    +0.000 A 
ATOM     23  C   UNL     1       0.878  10.023  18.195  0.00  0.00    +0.000 A 
BRANCH  21  24
ATOM     24  N   UNL     1       2.176   7.290  20.325  0.00  0.00    +0.000 N 
ATOM     25  H   UNL     1       2.209   7.122  21.326  0.00  0.00    +0.000 HD
BRANCH  24  26
ATOM     26  C   UNL     1       2.450   6.165  19.529  0.00  0.00    +0.000 A 
ATOM     27  C   UNL     1       3.415   6.241  18.513  0.00  0.00    +0.000 A 
ATOM     28  C   UNL     1       3.584   5.198  17.608  0.00  0.00    +0.000 A 
ATOM     29  C   UNL     1       2.816   4.049  17.744  0.00  0.00    +0.000 A 
ATOM     30  F   UNL     1       2.964   3.057  16.857  0.00  0.00    +0.000 F 
ATOM     31  C   UNL     1       1.892   3.918  18.773  0.00  0.00    +0.000 A 
ATOM     32  C   UNL     1       1.710   4.981  19.652  0.00  0.00    +0.000 A 
ATOM     33  F   UNL     1       0.777   4.875  20.613  0.00  0.00    +0.000 F 
ENDBRANCH  24  26
ENDBRANCH  21  24
ENDBRANCH   1  18
TORSDOF 7
ENDMDL
MODEL 7
REMARK VINA RESULT:      -8.1      1.228      1.623
REMARK  Name = 
REMARK  9 active torsions:
REMARK  status: ('A' for Active; 'I' for Inactive)
REMARK    1  A    between atoms: C_1  and  C_2
REMARK    2  A    between atoms: C_2  and  C_3
REMARK    3  A    between atoms: C_2  and  N_4
REMARK    4  A    between atoms: C_2  and  C_5
REMARK    5  A    between atoms: C_6  and  C_7
REMARK    6  A    between atoms: C_12  and  C_13
REMARK    7  A    between atoms: C_13  and  C_15
REMARK    8  A    between atoms: C_18  and  N_19
REMARK    9  A    between atoms: N_19  and  C_20
REMARK                            x       y       z     vdW  Elec       q    Type
REMARK                         _______ _______ _______ _____ _____    ______ ____
ROOT
ATOM      1  C   UNL     1       0.309  11.748  18.812  0.00  0.00    +0.000 C 
ATOM      2  O   UNL     1       1.043  12.627  18.375  0.00  0.00    +0.000 OA
ENDROOT
BRANCH   1   8
ATOM      3  C   UNL     1      -2.850  13.081  20.459  0.00  0.00    +0.000 A 
ATOM      4  C   UNL     1      -3.833  12.419  19.729  0.00  0.00    +0.000 A 
ATOM      5  C   UNL     1      -3.486  11.589  18.652  0.00  0.00    +0.000 A 
ATOM      6  C   UNL     1      -2.145  11.363  18.327  0.00  0.00    +0.000 A 
ATOM      7 CL   UNL     1      -1.838  10.213  17.071  0.00  0.00    +0.000 Cl
ATOM      8  C   UNL     1      -1.143  12.013  19.058  0.00  0.00    +0.000 A 
ATOM      9  C   UNL     1      -1.512  12.918  20.082  0.00  0.00    +0.000 A 
BRANCH   3  11
ATOM     10  C   UNL     1      -3.482  14.572  22.553  0.00  0.00    +0.000 C 
ATOM     11  C   UNL     1      -3.195  13.872  21.608  0.00  0.00    +0.000 C 
BRANCH  10  13
ATOM     12  C   UNL     1      -3.146  14.875  24.984  0.00  0.00    +0.000 C 
ATOM     13  C   UNL     1      -3.824  15.418  23.723  0.00  0.00    +0.000 C 
ATOM     14  C   UNL     1      -5.343  15.466  23.934  0.00  0.00    +0.000 C 
BRANCH  13  15
ATOM     15  N   UNL     1      -3.335  16.786  23.499  0.00  0.00    +0.000 NA
ATOM     16  H   UNL     1      -4.108  17.367  23.177  0.00  0.00    +0.000 HD
ATOM     17  H   UNL     1      -2.655  16.783  22.742  0.00  0.00    +0.000 HD
ENDBRANCH  13  15
ENDBRANCH  10  13
ENDBRANCH   3  11
ENDBRANCH   1   8
BRANCH   1  18
ATOM     18  C   UNL     1       0.904  10.412  19.111  0.00  0.00    +0.000 A 
ATOM     19  C   UNL     1       0.689   9.845  20.368  0.00  0.00    +0.000 A 
ATOM     20  C   UNL     1       1.251   8.603  20.677  0.00  0.00    +0.000 A 
ATOM     21  C   UNL     1       2.017   7.895  19.733  0.00  0.00    +0.000 A 
ATOM     22  C   UNL     1       2.205   8.464  18.473  0.00  0.00    +0.000 A 
ATOM     23  C   UNL     1       1.689   9.727  18.175  0.00  0.00    +0.000 A 
BRANCH  21  24
ATOM     24  N   UNL     1       2.529   6.606  19.977  0.00  0.00    +0.000 N 
ATOM     25  H   UNL     1       3.182   6.550  20.753  0.00  0.00    +0.000 HD
BRANCH  24  26
ATOM     26  C   UNL     1       1.978   5.376  19.579  0.00  0.00    +0.000 A 
ATOM     27  C   UNL     1       1.223   4.619  20.487  0.00  0.00    +0.000 A 
ATOM     28  C   UNL     1       0.810   3.328  20.171  0.00  0.00    +0.000 A 
ATOM     29  C   UNL     1       1.113   2.804  18.921  0.00  0.00    +0.000 A 
ATOM     30  F   UNL     1       0.735   1.554  18.629  0.00  0.00    +0.000 F 
ATOM     31  C   UNL     1       1.810   3.548  17.978  0.00  0.00    +0.000 A 
ATOM     32  C   UNL     1       2.244   4.826  18.318  0.00  0.00    +0.000 A 
ATOM     33  F   UNL     1       2.966   5.524  17.425  0.00  0.00    +0.000 F 
ENDBRANCH  24  26
ENDBRANCH  21  24
ENDBRANCH   1  18
TORSDOF 7
ENDMDL
MODEL 8
REMARK VINA RESULT:      -8.0      1.230      1.571
REMARK  Name = 
REMARK  9 active torsions:
REMARK  status: ('A' for Active; 'I' for Inactive)
REMARK    1  A    between atoms: C_1  and  C_2
REMARK    2  A    between atoms: C_2  and  C_3
REMARK    3  A    between atoms: C_2  and  N_4
REMARK    4  A    between atoms: C_2  and  C_5
REMARK    5  A    between atoms: C_6  and  C_7
REMARK    6  A    between atoms: C_12  and  C_13
REMARK    7  A    between atoms: C_13  and  C_15
REMARK    8  A    between atoms: C_18  and  N_19
REMARK    9  A    between atoms: N_19  and  C_20
REMARK                            x       y       z     vdW  Elec       q    Type
REMARK                         _______ _______ _______ _____ _____    ______ ____
ROOT
ATOM      1  C   UNL     1      -0.778  11.760  18.665  0.00  0.00    +0.000 C 
ATOM      2  O   UNL     1      -0.174  12.789  18.385  0.00  0.00    +0.000 OA
ENDROOT
BRANCH   1   8
ATOM      3  C   UNL     1      -4.412  12.152  19.714  0.00  0.00    +0.000 A 
ATOM      4  C   UNL     1      -5.064  11.482  18.682  0.00  0.00    +0.000 A 
ATOM      5  C   UNL     1      -4.339  10.957  17.602  0.00  0.00    +0.000 A 
ATOM      6  C   UNL     1      -2.943  11.045  17.568  0.00  0.00    +0.000 A 
ATOM      7 CL   UNL     1      -2.151  10.240  16.257  0.00  0.00    +0.000 Cl
ATOM      8  C   UNL     1      -2.271  11.706  18.603  0.00  0.00    +0.000 A 
ATOM      9  C   UNL     1      -3.024  12.309  19.639  0.00  0.00    +0.000 A 
BRANCH   3  11
ATOM     10  C   UNL     1      -5.748  12.987  21.842  0.00  0.00    +0.000 C 
ATOM     11  C   UNL     1      -5.142  12.625  20.859  0.00  0.00    +0.000 C 
BRANCH  10  13
ATOM     12  C   UNL     1      -7.916  13.871  22.634  0.00  0.00    +0.000 C 
ATOM     13  C   UNL     1      -6.503  13.440  23.036  0.00  0.00    +0.000 C 
ATOM     14  C   UNL     1      -5.784  14.607  23.724  0.00  0.00    +0.000 C 
BRANCH  13  15
ATOM     15  N   UNL     1      -6.623  12.330  23.991  0.00  0.00    +0.000 NA
ATOM     16  H   UNL     1      -7.512  11.855  23.840  0.00  0.00    +0.000 HD
ATOM     17  H   UNL     1      -6.662  12.700  24.938  0.00  0.00    +0.000 HD
ENDBRANCH  13  15
ENDBRANCH  10  13
ENDBRANCH   3  11
ENDBRANCH   1   8
BRANCH   1  18
ATOM     18  C   UNL     1       0.013  10.567  19.088  0.00  0.00    +0.000 A 
ATOM     19  C   UNL     1       0.878   9.971  18.170  0.00  0.00    +0.000 A 
ATOM     20  C   UNL     1       1.616   8.842  18.538  0.00  0.00    +0.000 A 
ATOM     21  C   UNL     1       1.522   8.302  19.833  0.00  0.00    +0.000 A 
ATOM     22  C   UNL     1       0.670   8.921  20.749  0.00  0.00    +0.000 A 
ATOM     23  C   UNL     1      -0.107  10.018  20.371  0.00  0.00    +0.000 A 
BRANCH  21  24
ATOM     24  N   UNL     1       2.309   7.218  20.268  0.00  0.00    +0.000 N 
ATOM     25  H   UNL     1       2.452   7.175  21.273  0.00  0.00    +0.000 HD
BRANCH  24  26
ATOM     26  C   UNL     1       2.568   6.019  19.583  0.00  0.00    +0.000 A 
ATOM     27  C   UNL     1       3.567   5.972  18.599  0.00  0.00    +0.000 A 
ATOM     28  C   UNL     1       3.726   4.848  17.795  0.00  0.00    +0.000 A 
ATOM     29  C   UNL     1       2.913   3.743  18.003  0.00  0.00    +0.000 A 
ATOM     30  F   UNL     1       3.053   2.672  17.212  0.00  0.00    +0.000 F 
ATOM     31  C   UNL     1       1.951   3.734  19.006  0.00  0.00    +0.000 A 
ATOM     32  C   UNL     1       1.781   4.876  19.782  0.00  0.00    +0.000 A 
ATOM     33  F   UNL     1       0.813   4.888  20.715  0.00  0.00    +0.000 F 
ENDBRANCH  24  26
ENDBRANCH  21  24
ENDBRANCH   1  18
TORSDOF 7
ENDMDL
MODEL 9
REMARK VINA RESULT:      -7.9      1.920      2.568
REMARK  Name = 
REMARK  9 active torsions:
REMARK  status: ('A' for Active; 'I' for Inactive)
REMARK    1  A    between atoms: C_1  and  C_2
REMARK    2  A    between atoms: C_2  and  C_3
REMARK    3  A    between atoms: C_2  and  N_4
REMARK    4  A    between atoms: C_2  and  C_5
REMARK    5  A    between atoms: C_6  and  C_7
REMARK    6  A    between atoms: C_12  and  C_13
REMARK    7  A    between atoms: C_13  and  C_15
REMARK    8  A    between atoms: C_18  and  N_19
REMARK    9  A    between atoms: N_19  and  C_20
REMARK                            x       y       z     vdW  Elec       q    Type
REMARK                         _______ _______ _______ _____ _____    ______ ____
ROOT
ATOM      1  C   UNL     1      -0.129  11.513  19.313  0.00  0.00    +0.000 C 
ATOM      2  O   UNL     1      -0.444  11.910  18.196  0.00  0.00    +0.000 OA
ENDROOT
BRANCH   1   8
ATOM      3  C   UNL     1      -2.195  13.041  22.117  0.00  0.00    +0.000 A 
ATOM      4  C   UNL     1      -1.270  13.907  22.692  0.00  0.00    +0.000 A 
ATOM      5  C   UNL     1       0.052  13.955  22.222  0.00  0.00    +0.000 A 
ATOM      6  C   UNL     1       0.450  13.177  21.130  0.00  0.00    +0.000 A 
ATOM      7 CL   UNL     1       2.063  13.423  20.554  0.00  0.00    +0.000 Cl
ATOM      8  C   UNL     1      -0.472  12.308  20.534  0.00  0.00    +0.000 A 
ATOM      9  C   UNL     1      -1.774  12.205  21.077  0.00  0.00    +0.000 A 
BRANCH   3  11
ATOM     10  C   UNL     1      -4.712  13.068  22.938  0.00  0.00    +0.000 C 
ATOM     11  C   UNL     1      -3.567  13.043  22.545  0.00  0.00    +0.000 C 
BRANCH  10  13
ATOM     12  C   UNL     1      -7.039  12.478  22.350  0.00  0.00    +0.000 C 
ATOM     13  C   UNL     1      -6.117  13.081  23.413  0.00  0.00    +0.000 C 
ATOM     14  C   UNL     1      -6.569  14.510  23.738  0.00  0.00    +0.000 C 
BRANCH  13  15
ATOM     15  N   UNL     1      -6.232  12.262  24.629  0.00  0.00    +0.000 NA
ATOM     16  H   UNL     1      -6.552  11.329  24.372  0.00  0.00    +0.000 HD
ATOM     17  H   UNL     1      -6.955  12.649  25.231  0.00  0.00    +0.000 HD
ENDBRANCH  13  15
ENDBRANCH  10  13
ENDBRANCH   3  11
ENDBRANCH   1   8
BRANCH   1  18
ATOM     18  C   UNL     1       0.621  10.228  19.423  0.00  0.00    +0.000 A 
ATOM     19  C   UNL     1       0.557   9.510  20.618  0.00  0.00    +0.000 A 
ATOM     20  C   UNL     1       1.266   8.313  20.751  0.00  0.00    +0.000 A 
ATOM     21  C   UNL     1       2.031   7.799  19.689  0.00  0.00    +0.000 A 
ATOM     22  C   UNL     1       2.070   8.516  18.493  0.00  0.00    +0.000 A 
ATOM     23  C   UNL     1       1.405   9.738  18.371  0.00  0.00    +0.000 A 
BRANCH  21  24
ATOM     24  N   UNL     1       2.692   6.557  19.755  0.00  0.00    +0.000 N 
ATOM     25  H   UNL     1       3.521   6.548  20.342  0.00  0.00    +0.000 HD
BRANCH  24  26
ATOM     26  C   UNL     1       2.159   5.288  19.467  0.00  0.00    +0.000 A 
ATOM     27  C   UNL     1       1.377   4.621  20.421  0.00  0.00    +0.000 A 
ATOM     28  C   UNL     1       0.982   3.302  20.225  0.00  0.00    +0.000 A 
ATOM     29  C   UNL     1       1.330   2.656  19.046  0.00  0.00    +0.000 A 
ATOM     30  F   UNL     1       0.968   1.379  18.871  0.00  0.00    +0.000 F 
ATOM     31  C   UNL     1       2.055   3.306  18.056  0.00  0.00    +0.000 A 
ATOM     32  C   UNL     1       2.472   4.615  18.278  0.00  0.00    +0.000 A 
ATOM     33  F   UNL     1       3.221   5.224  17.343  0.00  0.00    +0.000 F 
ENDBRANCH  24  26
ENDBRANCH  21  24
ENDBRANCH   1  18
TORSDOF 7
ENDMDL
