MODEL 1
REMARK VINA RESULT:      -9.3      0.000      0.000
REMARK  Name = 
REMARK  4 active torsions:
REMARK  status: ('A' for Active; 'I' for Inactive)
REMARK    1  A    between atoms: C_1  and  C_2
REMARK    2  A    between atoms: C_5  and  C_6
REMARK    3  A    between atoms: C_6  and  N_7
REMARK    4  A    between atoms: C_21  and  C_22
REMARK                            x       y       z     vdW  Elec       q    Type
REMARK                         _______ _______ _______ _____ _____    ______ ____
ROOT
ATOM      1  N   UNL     1       3.223   5.415  19.099  0.00  0.00    +0.000 N 
ATOM      2  C   UNL     1       2.851   5.080  17.822  0.00  0.00    +0.000 C 
ATOM      3  O   UNL     1       1.713   4.892  17.415  0.00  0.00    +0.000 OA
ATOM      4  C   UNL     1       4.095   5.037  16.956  0.00  0.00    +0.000 C 
ATOM      5  C   UNL     1       4.382   3.764  16.140  0.00  0.00    +0.000 C 
ATOM      6  C   UNL     1       5.709   4.039  15.488  0.00  0.00    +0.000 A 
ATOM      7  C   UNL     1       6.661   4.771  16.185  0.00  0.00    +0.000 A 
ATOM      8  N   UNL     1       7.610   5.175  15.282  0.00  0.00    +0.000 N 
ATOM      9  C   UNL     1       7.262   4.751  14.017  0.00  0.00    +0.000 A 
ATOM     10  C   UNL     1       7.829   5.070  12.777  0.00  0.00    +0.000 A 
ATOM     11  C   UNL     1       7.291   4.462  11.639  0.00  0.00    +0.000 A 
ATOM     12  C   UNL     1       6.238   3.555  11.744  0.00  0.00    +0.000 A 
ATOM     13  C   UNL     1       5.644   3.287  12.984  0.00  0.00    +0.000 A 
ATOM     14  C   UNL     1       6.144   3.918  14.140  0.00  0.00    +0.000 A 
ATOM     15  C   UNL     1       6.552   5.228  17.625  0.00  0.00    +0.000 C 
ATOM     16  N   UNL     1       5.126   5.237  17.966  0.00  0.00    +0.000 N 
ATOM     17  C   UNL     1       4.587   5.402  19.226  0.00  0.00    +0.000 C 
ATOM     18  O   UNL     1       5.222   5.475  20.266  0.00  0.00    +0.000 OA
ATOM     19  H   UNL     1       8.371   5.813  15.477  0.00  0.00    +0.000 HD
ENDROOT
BRANCH  15  20
ATOM     20  C   UNL     1       7.145   6.602  17.871  0.00  0.00    +0.000 A 
ATOM     21  C   UNL     1       8.196   6.779  18.792  0.00  0.00    +0.000 A 
ATOM     22  C   UNL     1       8.789   8.025  18.955  0.00  0.00    +0.000 A 
ATOM     23  C   UNL     1       8.334   9.111  18.211  0.00  0.00    +0.000 A 
ATOM     24 CL   UNL     1       9.091  10.645  18.395  0.00  0.00    +0.000 Cl
ATOM     25  C   UNL     1       7.282   8.960  17.308  0.00  0.00    +0.000 A 
ATOM     26  C   UNL     1       6.689   7.711  17.140  0.00  0.00    +0.000 A 
ENDBRANCH  15  20
BRANCH   1  27
ATOM     27  C   UNL     1       2.304   5.567  20.205  0.00  0.00    +0.000 C 
BRANCH  27  32
ATOM     28  C   UNL     1      -0.302  10.787  20.586  0.00  0.00    +0.000 C 
ATOM     29  C   UNL     1       0.442   9.483  20.527  0.00  0.00    +0.000 A 
ATOM     30  C   UNL     1       1.300   9.186  19.463  0.00  0.00    +0.000 A 
ATOM     31  C   UNL     1       1.943   7.944  19.387  0.00  0.00    +0.000 A 
ATOM     32  C   UNL     1       1.731   6.963  20.368  0.00  0.00    +0.000 A 
ATOM     33  C   UNL     1       0.907   7.282  21.457  0.00  0.00    +0.000 A 
ATOM     34  C   UNL     1       0.265   8.525  21.533  0.00  0.00    +0.000 A 
ENDBRANCH  27  32
ENDBRANCH   1  27
TORSDOF 3
ENDMDL
MODEL 2
REMARK VINA RESULT:      -7.9      7.880     11.902
REMARK  Name = 
REMARK  4 active torsions:
REMARK  status: ('A' for Active; 'I' for Inactive)
REMARK    1  A    between atoms: C_1  and  C_2
REMARK    2  A    between atoms: C_5  and  C_6
REMARK    3  A    between atoms: C_6  and  N_7
REMARK    4  A    between atoms: C_21  and  C_22
REMARK                            x       y       z     vdW  Elec       q    Type
REMARK                         _______ _______ _______ _____ _____    ______ ____
ROOT
ATOM      1  N   UNL     1       2.259  14.902  18.477  0.00  0.00    +0.000 N 
ATOM      2  C   UNL     1       1.601  15.657  19.414  0.00  0.00    +0.000 C 
ATOM      3  O   UNL     1       1.689  16.866  19.574  0.00  0.00    +0.000 OA
ATOM      4  C   UNL     1       0.679  14.747  20.201  0.00  0.00    +0.000 C 
ATOM      5  C   UNL     1       0.785  14.738  21.736  0.00  0.00    +0.000 C 
ATOM      6  C   UNL     1      -0.194  13.681  22.165  0.00  0.00    +0.000 A 
ATOM      7  C   UNL     1      -0.356  12.553  21.370  0.00  0.00    +0.000 A 
ATOM      8  N   UNL     1      -1.511  11.932  21.770  0.00  0.00    +0.000 N 
ATOM      9  C   UNL     1      -2.111  12.661  22.775  0.00  0.00    +0.000 A 
ATOM     10  C   UNL     1      -3.373  12.509  23.362  0.00  0.00    +0.000 A 
ATOM     11  C   UNL     1      -3.717  13.381  24.400  0.00  0.00    +0.000 A 
ATOM     12  C   UNL     1      -2.823  14.354  24.842  0.00  0.00    +0.000 A 
ATOM     13  C   UNL     1      -1.586  14.531  24.209  0.00  0.00    +0.000 A 
ATOM     14  C   UNL     1      -1.233  13.690  23.135  0.00  0.00    +0.000 A 
ATOM     15  C   UNL     1       0.465  12.202  20.147  0.00  0.00    +0.000 C 
ATOM     16  N   UNL     1       1.061  13.450  19.657  0.00  0.00    +0.000 N 
ATOM     17  C   UNL     1       2.031  13.566  18.683  0.00  0.00    +0.000 C 
ATOM     18  O   UNL     1       2.610  12.637  18.143  0.00  0.00    +0.000 OA
ATOM     19  H   UNL     1      -1.943  11.144  21.305  0.00  0.00    +0.000 HD
ENDROOT
BRANCH  15  20
ATOM     20  C   UNL     1      -0.344  11.553  19.040  0.00  0.00    +0.000 A 
ATOM     21  C   UNL     1      -0.070  10.236  18.626  0.00  0.00    +0.000 A 
ATOM     22  C   UNL     1      -0.865   9.618  17.667  0.00  0.00    +0.000 A 
ATOM     23  C   UNL     1      -1.934  10.310  17.104  0.00  0.00    +0.000 A 
ATOM     24 CL   UNL     1      -2.933   9.531  15.939  0.00  0.00    +0.000 Cl
ATOM     25  C   UNL     1      -2.209  11.623  17.487  0.00  0.00    +0.000 A 
ATOM     26  C   UNL     1      -1.417  12.242  18.450  0.00  0.00    +0.000 A 
ENDBRANCH  15  20
BRANCH   1  27
ATOM     27  C   UNL     1       3.215  15.427  17.527  0.00  0.00    +0.000 C 
BRANCH  27  32
ATOM     28  C   UNL     1       8.790  16.143  19.135  0.00  0.00    +0.000 C 
ATOM     29  C   UNL     1       7.343  15.914  18.801  0.00  0.00    +0.000 A 
ATOM     30  C   UNL     1       6.919  14.728  18.192  0.00  0.00    +0.000 A 
ATOM     31  C   UNL     1       5.578  14.549  17.830  0.00  0.00    +0.000 A 
ATOM     32  C   UNL     1       4.631  15.559  18.056  0.00  0.00    +0.000 A 
ATOM     33  C   UNL     1       5.050  16.728  18.709  0.00  0.00    +0.000 A 
ATOM     34  C   UNL     1       6.392  16.906  19.071  0.00  0.00    +0.000 A 
ENDBRANCH  27  32
ENDBRANCH   1  27
TORSDOF 3
ENDMDL
MODEL 3
REMARK VINA RESULT:      -7.6      7.933     12.017
REMARK  Name = 
REMARK  4 active torsions:
REMARK  status: ('A' for Active; 'I' for Inactive)
REMARK    1  A    between atoms: C_1  and  C_2
REMARK    2  A    between atoms: C_5  and  C_6
REMARK    3  A    between atoms: C_6  and  N_7
REMARK    4  A    between atoms: C_21  and  C_22
REMARK                            x       y       z     vdW  Elec       q    Type
REMARK                         _______ _______ _______ _____ _____    ______ ____
ROOT
ATOM      1  N   UNL     1       2.110  15.006  18.566  0.00  0.00    +0.000 N 
ATOM      2  C   UNL     1       1.456  15.775  19.495  0.00  0.00    +0.000 C 
ATOM      3  O   UNL     1       1.527  16.989  19.621  0.00  0.00    +0.000 OA
ATOM      4  C   UNL     1       0.564  14.872  20.322  0.00  0.00    +0.000 C 
ATOM      5  C   UNL     1       0.698  14.905  21.855  0.00  0.00    +0.000 C 
ATOM      6  C   UNL     1      -0.256  13.844  22.329  0.00  0.00    +0.000 A 
ATOM      7  C   UNL     1      -0.414  12.693  21.567  0.00  0.00    +0.000 A 
ATOM      8  N   UNL     1      -1.551  12.065  22.004  0.00  0.00    +0.000 N 
ATOM      9  C   UNL     1      -2.144  12.810  23.001  0.00  0.00    +0.000 A 
ATOM     10  C   UNL     1      -3.393  12.654  23.615  0.00  0.00    +0.000 A 
ATOM     11  C   UNL     1      -3.733  13.547  24.635  0.00  0.00    +0.000 A 
ATOM     12  C   UNL     1      -2.847  14.545  25.035  0.00  0.00    +0.000 A 
ATOM     13  C   UNL     1      -1.625  14.726  24.375  0.00  0.00    +0.000 A 
ATOM     14  C   UNL     1      -1.277  13.862  23.318  0.00  0.00    +0.000 A 
ATOM     15  C   UNL     1       0.391  12.324  20.339  0.00  0.00    +0.000 C 
ATOM     16  N   UNL     1       0.957  13.567  19.806  0.00  0.00    +0.000 N 
ATOM     17  C   UNL     1       1.908  13.673  18.811  0.00  0.00    +0.000 C 
ATOM     18  O   UNL     1       2.493  12.739  18.285  0.00  0.00    +0.000 OA
ATOM     19  H   UNL     1      -1.978  11.258  21.568  0.00  0.00    +0.000 HD
ENDROOT
BRANCH  15  20
ATOM     20  C   UNL     1      -0.427  11.633  19.264  0.00  0.00    +0.000 A 
ATOM     21  C   UNL     1      -1.509  12.289  18.649  0.00  0.00    +0.000 A 
ATOM     22  C   UNL     1      -2.204  11.682  17.610  0.00  0.00    +0.000 A 
ATOM     23  C   UNL     1      -1.835  10.409  17.180  0.00  0.00    +0.000 A 
ATOM     24 CL   UNL     1      -2.680   9.674  15.874  0.00  0.00    +0.000 Cl
ATOM     25  C   UNL     1      -0.778   9.735  17.790  0.00  0.00    +0.000 A 
ATOM     26  C   UNL     1      -0.077  10.344  18.829  0.00  0.00    +0.000 A 
ENDBRANCH  15  20
BRANCH   1  27
ATOM     27  C   UNL     1       3.040  15.521  17.585  0.00  0.00    +0.000 C 
BRANCH  27  32
ATOM     28  C   UNL     1       8.393  15.889  19.907  0.00  0.00    +0.000 C 
ATOM     29  C   UNL     1       7.047  15.846  19.240  0.00  0.00    +0.000 A 
ATOM     30  C   UNL     1       6.110  16.866  19.435  0.00  0.00    +0.000 A 
ATOM     31  C   UNL     1       4.836  16.787  18.857  0.00  0.00    +0.000 A 
ATOM     32  C   UNL     1       4.465  15.679  18.081  0.00  0.00    +0.000 A 
ATOM     33  C   UNL     1       5.423  14.681  17.850  0.00  0.00    +0.000 A 
ATOM     34  C   UNL     1       6.698  14.761  18.428  0.00  0.00    +0.000 A 
ENDBRANCH  27  32
ENDBRANCH   1  27
TORSDOF 3
ENDMDL
MODEL 4
REMARK VINA RESULT:      -7.1      8.676     12.616
REMARK  Name = 
REMARK  4 active torsions:
REMARK  status: ('A' for Active; 'I' for Inactive)
REMARK    1  A    between atoms: C_1  and  C_2
REMARK    2  A    between atoms: C_5  and  C_6
REMARK    3  A    between atoms: C_6  and  N_7
REMARK    4  A    between atoms: C_21  and  C_22
REMARK                            x       y       z     vdW  Elec       q    Type
REMARK                         _______ _______ _______ _____ _____    ______ ____
ROOT
ATOM      1  N   UNL     1      -0.012  15.959  20.900  0.00  0.00    +0.000 N 
ATOM      2  C   UNL     1      -1.130  16.232  20.154  0.00  0.00    +0.000 C 
ATOM      3  O   UNL     1      -1.254  17.113  19.314  0.00  0.00    +0.000 OA
ATOM      4  C   UNL     1      -2.196  15.210  20.496  0.00  0.00    +0.000 C 
ATOM      5  C   UNL     1      -3.584  15.710  20.933  0.00  0.00    +0.000 C 
ATOM      6  C   UNL     1      -4.337  14.452  21.269  0.00  0.00    +0.000 A 
ATOM      7  C   UNL     1      -3.651  13.393  21.850  0.00  0.00    +0.000 A 
ATOM      8  N   UNL     1      -4.444  12.281  21.739  0.00  0.00    +0.000 N 
ATOM      9  C   UNL     1      -5.604  12.598  21.063  0.00  0.00    +0.000 A 
ATOM     10  C   UNL     1      -6.614  11.761  20.573  0.00  0.00    +0.000 A 
ATOM     11  C   UNL     1      -7.710  12.361  19.947  0.00  0.00    +0.000 A 
ATOM     12  C   UNL     1      -7.798  13.747  19.835  0.00  0.00    +0.000 A 
ATOM     13  C   UNL     1      -6.755  14.570  20.280  0.00  0.00    +0.000 A 
ATOM     14  C   UNL     1      -5.622  13.985  20.879  0.00  0.00    +0.000 A 
ATOM     15  C   UNL     1      -2.210  13.415  22.313  0.00  0.00    +0.000 C 
ATOM     16  N   UNL     1      -1.542  14.502  21.589  0.00  0.00    +0.000 N 
ATOM     17  C   UNL     1      -0.280  15.000  21.842  0.00  0.00    +0.000 C 
ATOM     18  O   UNL     1       0.441  14.670  22.770  0.00  0.00    +0.000 OA
ATOM     19  H   UNL     1      -4.166  11.337  21.977  0.00  0.00    +0.000 HD
ENDROOT
BRANCH  15  20
ATOM     20  C   UNL     1      -1.474  12.111  22.068  0.00  0.00    +0.000 A 
ATOM     21  C   UNL     1      -1.003  11.780  20.783  0.00  0.00    +0.000 A 
ATOM     22  C   UNL     1      -0.261  10.623  20.580  0.00  0.00    +0.000 A 
ATOM     23  C   UNL     1       0.011   9.778  21.653  0.00  0.00    +0.000 A 
ATOM     24 CL   UNL     1       0.955   8.362  21.402  0.00  0.00    +0.000 Cl
ATOM     25  C   UNL     1      -0.463  10.079  22.929  0.00  0.00    +0.000 A 
ATOM     26  C   UNL     1      -1.204  11.240  23.136  0.00  0.00    +0.000 A 
ENDBRANCH  15  20
BRANCH   1  27
ATOM     27  C   UNL     1       1.220  16.714  20.835  0.00  0.00    +0.000 C 
BRANCH  27  32
ATOM     28  C   UNL     1       5.730  14.599  17.774  0.00  0.00    +0.000 C 
ATOM     29  C   UNL     1       4.528  15.061  18.549  0.00  0.00    +0.000 A 
ATOM     30  C   UNL     1       3.408  15.593  17.901  0.00  0.00    +0.000 A 
ATOM     31  C   UNL     1       2.319  16.076  18.637  0.00  0.00    +0.000 A 
ATOM     32  C   UNL     1       2.329  16.052  20.039  0.00  0.00    +0.000 A 
ATOM     33  C   UNL     1       3.434  15.476  20.684  0.00  0.00    +0.000 A 
ATOM     34  C   UNL     1       4.524  14.992  19.948  0.00  0.00    +0.000 A 
ENDBRANCH  27  32
ENDBRANCH   1  27
TORSDOF 3
ENDMDL
MODEL 5
REMARK VINA RESULT:      -7.1      6.509     10.492
REMARK  Name = 
REMARK  4 active torsions:
REMARK  status: ('A' for Active; 'I' for Inactive)
REMARK    1  A    between atoms: C_1  and  C_2
REMARK    2  A    between atoms: C_5  and  C_6
REMARK    3  A    between atoms: C_6  and  N_7
REMARK    4  A    between atoms: C_21  and  C_22
REMARK                            x       y       z     vdW  Elec       q    Type
REMARK                         _______ _______ _______ _____ _____    ______ ____
ROOT
ATOM      1  N   UNL     1      -3.094  12.446  19.896  0.00  0.00    +0.000 N 
ATOM      2  C   UNL     1      -2.586  13.568  20.501  0.00  0.00    +0.000 C 
ATOM      3  O   UNL     1      -3.191  14.350  21.221  0.00  0.00    +0.000 OA
ATOM      4  C   UNL     1      -1.107  13.658  20.181  0.00  0.00    +0.000 C 
ATOM      5  C   UNL     1      -0.563  14.959  19.564  0.00  0.00    +0.000 C 
ATOM      6  C   UNL     1       0.888  14.663  19.305  0.00  0.00    +0.000 A 
ATOM      7  C   UNL     1       1.253  13.381  18.913  0.00  0.00    +0.000 A 
ATOM      8  N   UNL     1       2.609  13.272  19.076  0.00  0.00    +0.000 N 
ATOM      9  C   UNL     1       3.112  14.444  19.602  0.00  0.00    +0.000 A 
ATOM     10  C   UNL     1       4.394  14.730  20.089  0.00  0.00    +0.000 A 
ATOM     11  C   UNL     1       4.643  16.030  20.540  0.00  0.00    +0.000 A 
ATOM     12  C   UNL     1       3.651  17.007  20.486  0.00  0.00    +0.000 A 
ATOM     13  C   UNL     1       2.358  16.693  20.049  0.00  0.00    +0.000 A 
ATOM     14  C   UNL     1       2.073  15.380  19.626  0.00  0.00    +0.000 A 
ATOM     15  C   UNL     1       0.303  12.248  18.585  0.00  0.00    +0.000 C 
ATOM     16  N   UNL     1      -0.974  12.554  19.239  0.00  0.00    +0.000 N 
ATOM     17  C   UNL     1      -2.170  11.892  19.049  0.00  0.00    +0.000 C 
ATOM     18  O   UNL     1      -2.370  11.006  18.233  0.00  0.00    +0.000 OA
ATOM     19  H   UNL     1       3.145  12.421  18.972  0.00  0.00    +0.000 HD
ENDROOT
BRANCH  15  20
ATOM     20  C   UNL     1       0.799  10.890  19.042  0.00  0.00    +0.000 A 
ATOM     21  C   UNL     1       0.621  10.469  20.374  0.00  0.00    +0.000 A 
ATOM     22  C   UNL     1       1.006   9.192  20.768  0.00  0.00    +0.000 A 
ATOM     23  C   UNL     1       1.581   8.326  19.841  0.00  0.00    +0.000 A 
ATOM     24 CL   UNL     1       2.027   6.737  20.326  0.00  0.00    +0.000 Cl
ATOM     25  C   UNL     1       1.782   8.731  18.522  0.00  0.00    +0.000 A 
ATOM     26  C   UNL     1       1.394  10.008  18.124  0.00  0.00    +0.000 A 
ENDBRANCH  15  20
BRANCH   1  27
ATOM     27  C   UNL     1      -4.472  12.020  19.988  0.00  0.00    +0.000 C 
BRANCH  27  32
ATOM     28  C   UNL     1      -7.738  14.991  16.156  0.00  0.00    +0.000 C 
ATOM     29  C   UNL     1      -6.976  14.187  17.171  0.00  0.00    +0.000 A 
ATOM     30  C   UNL     1      -6.841  14.628  18.492  0.00  0.00    +0.000 A 
ATOM     31  C   UNL     1      -6.078  13.901  19.414  0.00  0.00    +0.000 A 
ATOM     32  C   UNL     1      -5.420  12.722  19.034  0.00  0.00    +0.000 A 
ATOM     33  C   UNL     1      -5.596  12.258  17.722  0.00  0.00    +0.000 A 
ATOM     34  C   UNL     1      -6.360  12.986  16.799  0.00  0.00    +0.000 A 
ENDBRANCH  27  32
ENDBRANCH   1  27
TORSDOF 3
ENDMDL
MODEL 6
REMARK VINA RESULT:      -7.0      5.857     11.697
REMARK  Name = 
REMARK  4 active torsions:
REMARK  status: ('A' for Active; 'I' for Inactive)
REMARK    1  A    between atoms: C_1  and  C_2
REMARK    2  A    between atoms: C_5  and  C_6
REMARK    3  A    between atoms: C_6  and  N_7
REMARK    4  A    between atoms: C_21  and  C_22
REMARK                            x       y       z     vdW  Elec       q    Type
REMARK                         _______ _______ _______ _____ _____    ______ ____
ROOT
ATOM      1  N   UNL     1      -0.781  11.293  20.775  0.00  0.00    +0.000 N 
ATOM      2  C   UNL     1      -0.871  11.405  22.139  0.00  0.00    +0.000 C 
ATOM      3  O   UNL     1      -1.096  10.504  22.935  0.00  0.00    +0.000 OA
ATOM      4  C   UNL     1      -0.581  12.842  22.522  0.00  0.00    +0.000 C 
ATOM      5  C   UNL     1      -1.604  13.595  23.391  0.00  0.00    +0.000 C 
ATOM      6  C   UNL     1      -1.042  14.986  23.496  0.00  0.00    +0.000 A 
ATOM      7  C   UNL     1      -0.374  15.525  22.404  0.00  0.00    +0.000 A 
ATOM      8  N   UNL     1       0.323  16.618  22.848  0.00  0.00    +0.000 N 
ATOM      9  C   UNL     1       0.147  16.765  24.208  0.00  0.00    +0.000 A 
ATOM     10  C   UNL     1       0.791  17.622  25.109  0.00  0.00    +0.000 A 
ATOM     11  C   UNL     1       0.386  17.584  26.446  0.00  0.00    +0.000 A 
ATOM     12  C   UNL     1      -0.637  16.734  26.859  0.00  0.00    +0.000 A 
ATOM     13  C   UNL     1      -1.235  15.842  25.959  0.00  0.00    +0.000 A 
ATOM     14  C   UNL     1      -0.816  15.834  24.614  0.00  0.00    +0.000 A 
ATOM     15  C   UNL     1      -0.256  14.892  21.033  0.00  0.00    +0.000 C 
ATOM     16  N   UNL     1      -0.487  13.453  21.202  0.00  0.00    +0.000 N 
ATOM     17  C   UNL     1      -0.663  12.528  20.194  0.00  0.00    +0.000 C 
ATOM     18  O   UNL     1      -0.745  12.783  19.002  0.00  0.00    +0.000 OA
ATOM     19  H   UNL     1       0.987  17.151  22.301  0.00  0.00    +0.000 HD
ENDROOT
BRANCH  15  20
ATOM     20  C   UNL     1       1.091  15.119  20.374  0.00  0.00    +0.000 A 
ATOM     21  C   UNL     1       2.257  14.527  20.895  0.00  0.00    +0.000 A 
ATOM     22  C   UNL     1       3.475  14.673  20.242  0.00  0.00    +0.000 A 
ATOM     23  C   UNL     1       3.546  15.420  19.068  0.00  0.00    +0.000 A 
ATOM     24 CL   UNL     1       5.050  15.573  18.248  0.00  0.00    +0.000 Cl
ATOM     25  C   UNL     1       2.405  16.030  18.547  0.00  0.00    +0.000 A 
ATOM     26  C   UNL     1       1.183  15.881  19.198  0.00  0.00    +0.000 A 
ENDBRANCH  15  20
BRANCH   1  27
ATOM     27  C   UNL     1      -0.979  10.063  20.040  0.00  0.00    +0.000 C 
BRANCH  27  32
ATOM     28  C   UNL     1       3.634   7.272  17.779  0.00  0.00    +0.000 C 
ATOM     29  C   UNL     1       2.507   8.049  18.399  0.00  0.00    +0.000 A 
ATOM     30  C   UNL     1       2.091   7.800  19.711  0.00  0.00    +0.000 A 
ATOM     31  C   UNL     1       1.000   8.489  20.258  0.00  0.00    +0.000 A 
ATOM     32  C   UNL     1       0.291   9.433  19.501  0.00  0.00    +0.000 A 
ATOM     33  C   UNL     1       0.740   9.713  18.202  0.00  0.00    +0.000 A 
ATOM     34  C   UNL     1       1.832   9.025  17.655  0.00  0.00    +0.000 A 
ENDBRANCH  27  32
ENDBRANCH   1  27
TORSDOF 3
ENDMDL
MODEL 7
REMARK VINA RESULT:      -6.9      8.828     12.657
REMARK  Name = 
REMARK  4 active torsions:
REMARK  status: ('A' for Active; 'I' for Inactive)
REMARK    1  A    between atoms: C_1  and  C_2
REMARK    2  A    between atoms: C_5  and  C_6
REMARK    3  A    between atoms: C_6  and  N_7
REMARK    4  A    between atoms: C_21  and  C_22
REMARK                            x       y       z     vdW  Elec       q    Type
REMARK                         _______ _______ _______ _____ _____    ______ ____
ROOT
ATOM      1  N   UNL     1      -0.137  16.206  21.141  0.00  0.00    +0.000 N 
ATOM      2  C   UNL     1      -1.213  16.439  20.322  0.00  0.00    +0.000 C 
ATOM      3  O   UNL     1      -1.325  17.334  19.496  0.00  0.00    +0.000 OA
ATOM      4  C   UNL     1      -2.242  15.353  20.563  0.00  0.00    +0.000 C 
ATOM      5  C   UNL     1      -3.684  15.766  20.910  0.00  0.00    +0.000 C 
ATOM      6  C   UNL     1      -4.388  14.462  21.162  0.00  0.00    +0.000 A 
ATOM      7  C   UNL     1      -3.687  13.426  21.766  0.00  0.00    +0.000 A 
ATOM      8  N   UNL     1      -4.408  12.276  21.573  0.00  0.00    +0.000 N 
ATOM      9  C   UNL     1      -5.533  12.549  20.823  0.00  0.00    +0.000 A 
ATOM     10  C   UNL     1      -6.457  11.672  20.242  0.00  0.00    +0.000 A 
ATOM     11  C   UNL     1      -7.538  12.230  19.553  0.00  0.00    +0.000 A 
ATOM     12  C   UNL     1      -7.694  13.612  19.466  0.00  0.00    +0.000 A 
ATOM     13  C   UNL     1      -6.732  14.477  20.004  0.00  0.00    +0.000 A 
ATOM     14  C   UNL     1      -5.614  13.937  20.670  0.00  0.00    +0.000 A 
ATOM     15  C   UNL     1      -2.286  13.512  22.333  0.00  0.00    +0.000 C 
ATOM     16  N   UNL     1      -1.630  14.652  21.684  0.00  0.00    +0.000 N 
ATOM     17  C   UNL     1      -0.417  15.209  22.038  0.00  0.00    +0.000 C 
ATOM     18  O   UNL     1       0.253  14.893  23.008  0.00  0.00    +0.000 OA
ATOM     19  H   UNL     1      -4.096  11.342  21.809  0.00  0.00    +0.000 HD
ENDROOT
BRANCH  15  20
ATOM     20  C   UNL     1      -1.464  12.256  22.112  0.00  0.00    +0.000 A 
ATOM     21  C   UNL     1      -1.260  11.335  23.157  0.00  0.00    +0.000 A 
ATOM     22  C   UNL     1      -0.575  10.148  22.928  0.00  0.00    +0.000 A 
ATOM     23  C   UNL     1      -0.075   9.871  21.657  0.00  0.00    +0.000 A 
ATOM     24 CL   UNL     1       0.747   8.387  21.372  0.00  0.00    +0.000 Cl
ATOM     25  C   UNL     1      -0.250  10.780  20.614  0.00  0.00    +0.000 A 
ATOM     26  C   UNL     1      -0.940  11.968  20.840  0.00  0.00    +0.000 A 
ENDBRANCH  15  20
BRANCH   1  27
ATOM     27  C   UNL     1       1.053  17.027  21.182  0.00  0.00    +0.000 C 
BRANCH  27  32
ATOM     28  C   UNL     1       5.228  14.659  17.843  0.00  0.00    +0.000 C 
ATOM     29  C   UNL     1       4.213  15.337  18.720  0.00  0.00    +0.000 A 
ATOM     30  C   UNL     1       4.200  15.133  20.104  0.00  0.00    +0.000 A 
ATOM     31  C   UNL     1       3.213  15.722  20.905  0.00  0.00    +0.000 A 
ATOM     32  C   UNL     1       2.206  16.518  20.338  0.00  0.00    +0.000 A 
ATOM     33  C   UNL     1       2.250  16.757  18.956  0.00  0.00    +0.000 A 
ATOM     34  C   UNL     1       3.238  16.168  18.156  0.00  0.00    +0.000 A 
ENDBRANCH  27  32
ENDBRANCH   1  27
TORSDOF 3
ENDMDL
MODEL 8
REMARK VINA RESULT:      -6.9      6.059     11.434
REMARK  Name = 
REMARK  4 active torsions:
REMARK  status: ('A' for Active; 'I' for Inactive)
REMARK    1  A    between atoms: C_1  and  C_2
REMARK    2  A    between atoms: C_5  and  C_6
REMARK    3  A    between atoms: C_6  and  N_7
REMARK    4  A    between atoms: C_21  and  C_22
REMARK                            x       y       z     vdW  Elec       q    Type
REMARK                         _______ _______ _______ _____ _____    ______ ____
ROOT
ATOM      1  N   UNL     1      -0.395  11.852  20.401  0.00  0.00    +0.000 N 
ATOM      2  C   UNL     1      -0.484  12.109  21.745  0.00  0.00    +0.000 C 
ATOM      3  O   UNL     1      -0.859  11.337  22.616  0.00  0.00    +0.000 OA
ATOM      4  C   UNL     1       0.023  13.515  21.999  0.00  0.00    +0.000 C 
ATOM      5  C   UNL     1      -0.880  14.499  22.764  0.00  0.00    +0.000 C 
ATOM      6  C   UNL     1      -0.108  15.789  22.752  0.00  0.00    +0.000 A 
ATOM      7  C   UNL     1       0.651  16.108  21.634  0.00  0.00    +0.000 A 
ATOM      8  N   UNL     1       1.505  17.118  21.993  0.00  0.00    +0.000 N 
ATOM      9  C   UNL     1       1.336  17.423  23.327  0.00  0.00    +0.000 A 
ATOM     10  C   UNL     1       2.095  18.253  24.160  0.00  0.00    +0.000 A 
ATOM     11  C   UNL     1       1.671  18.410  25.483  0.00  0.00    +0.000 A 
ATOM     12  C   UNL     1       0.521  17.773  25.946  0.00  0.00    +0.000 A 
ATOM     13  C   UNL     1      -0.197  16.901  25.117  0.00  0.00    +0.000 A 
ATOM     14  C   UNL     1       0.233  16.697  23.791  0.00  0.00    +0.000 A 
ATOM     15  C   UNL     1       0.686  15.334  20.333  0.00  0.00    +0.000 C 
ATOM     16  N   UNL     1       0.229  13.972  20.631  0.00  0.00    +0.000 N 
ATOM     17  C   UNL     1      -0.076  12.992  19.709  0.00  0.00    +0.000 C 
ATOM     18  O   UNL     1      -0.101  13.139  18.497  0.00  0.00    +0.000 OA
ATOM     19  H   UNL     1       2.252  17.486  21.417  0.00  0.00    +0.000 HD
ENDROOT
BRANCH  15  20
ATOM     20  C   UNL     1       2.060  15.284  19.694  0.00  0.00    +0.000 A 
ATOM     21  C   UNL     1       3.147  14.692  20.367  0.00  0.00    +0.000 A 
ATOM     22  C   UNL     1       4.384  14.578  19.745  0.00  0.00    +0.000 A 
ATOM     23  C   UNL     1       4.556  15.061  18.449  0.00  0.00    +0.000 A 
ATOM     24 CL   UNL     1       6.081  14.890  17.673  0.00  0.00    +0.000 Cl
ATOM     25  C   UNL     1       3.497  15.667  17.774  0.00  0.00    +0.000 A 
ATOM     26  C   UNL     1       2.255  15.779  18.394  0.00  0.00    +0.000 A 
ENDBRANCH  15  20
BRANCH   1  27
ATOM     27  C   UNL     1      -0.774  10.602  19.780  0.00  0.00    +0.000 C 
BRANCH  27  32
ATOM     28  C   UNL     1       3.365   6.764  18.256  0.00  0.00    +0.000 C 
ATOM     29  C   UNL     1       2.368   7.808  18.674  0.00  0.00    +0.000 A 
ATOM     30  C   UNL     1       1.932   7.904  20.000  0.00  0.00    +0.000 A 
ATOM     31  C   UNL     1       0.958   8.841  20.367  0.00  0.00    +0.000 A 
ATOM     32  C   UNL     1       0.386   9.697  19.413  0.00  0.00    +0.000 A 
ATOM     33  C   UNL     1       0.860   9.630  18.094  0.00  0.00    +0.000 A 
ATOM     34  C   UNL     1       1.835   8.692  17.728  0.00  0.00    +0.000 A 
ENDBRANCH  27  32
ENDBRANCH   1  27
TORSDOF 3
ENDMDL
MODEL 9
REMARK VINA RESULT:      -6.7      5.434     11.213
REMARK  Name = 
REMARK  4 active torsions:
REMARK  status: ('A' for Active; 'I' for Inactive)
REMARK    1  A    between atoms: C_1  and  C_2
REMARK    2  A    between atoms: C_5  and  C_6
REMARK    3  A    between atoms: C_6  and  N_7
REMARK    4  A    between atoms: C_21  and  C_22
REMARK                            x       y       z     vdW  Elec       q    Type
REMARK                         _______ _______ _______ _____ _____    ______ ____
ROOT
ATOM      1  N   UNL     1       0.837  10.566  18.842  0.00  0.00    +0.000 N 
ATOM      2  C   UNL     1       1.631  11.664  18.623  0.00  0.00    +0.000 C 
ATOM      3  O   UNL     1       2.435  11.817  17.716  0.00  0.00    +0.000 OA
ATOM      4  C   UNL     1       1.304  12.707  19.674  0.00  0.00    +0.000 C 
ATOM      5  C   UNL     1       2.452  13.286  20.520  0.00  0.00    +0.000 C 
ATOM      6  C   UNL     1       1.763  14.203  21.492  0.00  0.00    +0.000 A 
ATOM      7  C   UNL     1       0.513  13.847  21.981  0.00  0.00    +0.000 A 
ATOM      8  N   UNL     1      -0.039  14.965  22.550  0.00  0.00    +0.000 N 
ATOM      9  C   UNL     1       0.815  16.038  22.398  0.00  0.00    +0.000 A 
ATOM     10  C   UNL     1       0.604  17.396  22.662  0.00  0.00    +0.000 A 
ATOM     11  C   UNL     1       1.670  18.275  22.445  0.00  0.00    +0.000 A 
ATOM     12  C   UNL     1       2.903  17.805  21.999  0.00  0.00    +0.000 A 
ATOM     13  C   UNL     1       3.084  16.452  21.685  0.00  0.00    +0.000 A 
ATOM     14  C   UNL     1       2.012  15.554  21.859  0.00  0.00    +0.000 A 
ATOM     15  C   UNL     1      -0.198  12.533  21.732  0.00  0.00    +0.000 C 
ATOM     16  N   UNL     1       0.382  11.955  20.515  0.00  0.00    +0.000 N 
ATOM     17  C   UNL     1       0.167  10.681  20.032  0.00  0.00    +0.000 C 
ATOM     18  O   UNL     1      -0.469   9.805  20.596  0.00  0.00    +0.000 OA
ATOM     19  H   UNL     1      -0.987  15.040  22.895  0.00  0.00    +0.000 HD
ENDROOT
BRANCH  15  20
ATOM     20  C   UNL     1      -1.698  12.678  21.564  0.00  0.00    +0.000 A 
ATOM     21  C   UNL     1      -2.262  12.919  20.297  0.00  0.00    +0.000 A 
ATOM     22  C   UNL     1      -3.641  12.971  20.136  0.00  0.00    +0.000 A 
ATOM     23  C   UNL     1      -4.474  12.794  21.239  0.00  0.00    +0.000 A 
ATOM     24 CL   UNL     1      -6.181  12.830  21.030  0.00  0.00    +0.000 Cl
ATOM     25  C   UNL     1      -3.934  12.574  22.506  0.00  0.00    +0.000 A 
ATOM     26  C   UNL     1      -2.552  12.517  22.668  0.00  0.00    +0.000 A 
ENDBRANCH  15  20
BRANCH   1  27
ATOM     27  C   UNL     1       0.854   9.370  18.029  0.00  0.00    +0.000 C 
BRANCH  27  32
ATOM     28  C   UNL     1       4.701   5.138  19.248  0.00  0.00    +0.000 C 
ATOM     29  C   UNL     1       3.763   6.283  18.986  0.00  0.00    +0.000 A 
ATOM     30  C   UNL     1       2.728   6.590  19.877  0.00  0.00    +0.000 A 
ATOM     31  C   UNL     1       1.823   7.620  19.594  0.00  0.00    +0.000 A 
ATOM     32  C   UNL     1       1.922   8.360  18.406  0.00  0.00    +0.000 A 
ATOM     33  C   UNL     1       2.989   8.081  17.538  0.00  0.00    +0.000 A 
ATOM     34  C   UNL     1       3.894   7.050  17.822  0.00  0.00    +0.000 A 
ENDBRANCH  27  32
ENDBRANCH   1  27
TORSDOF 3
ENDMDL
