MODEL 1
REMARK VINA RESULT:      -7.1      0.000      0.000
REMARK  Name = 
REMARK  7 active torsions:
REMARK  status: ('A' for Active; 'I' for Inactive)
REMARK    1  A    between atoms: C_1  and  O_2
REMARK    2  A    between atoms: O_2  and  C_3
REMARK    3  A    between atoms: C_5  and  O_6
REMARK    4  A    between atoms: O_6  and  C_7
REMARK    5  A    between atoms: C_9  and  S_10
REMARK    6  A    between atoms: S_10  and  C_11
REMARK    7  A    between atoms: C_17  and  C_18
REMARK                            x       y       z     vdW  Elec       q    Type
REMARK                         _______ _______ _______ _____ _____    ______ ____
ROOT
ATOM      1  C   UNL     1       6.489   4.858  15.629  0.00  0.00    +0.000 A 
ATOM      2  N   UNL     1       7.497   4.959  16.487  0.00  0.00    +0.000 NA
ATOM      3  C   UNL     1       7.182   4.628  17.733  0.00  0.00    +0.000 A 
ATOM      4  N   UNL     1       5.989   4.232  18.154  0.00  0.00    +0.000 NA
ATOM      5  C   UNL     1       5.069   4.160  17.200  0.00  0.00    +0.000 A 
ATOM      6  N   UNL     1       5.257   4.467  15.921  0.00  0.00    +0.000 NA
ENDROOT
BRANCH   1   8
ATOM      7  C   UNL     1       6.553   4.069  13.425  0.00  0.00    +0.000 C 
ATOM      8  O   UNL     1       6.686   5.180  14.302  0.00  0.00    +0.000 OA
ENDBRANCH   1   8
BRANCH   3   9
ATOM      9  O   UNL     1       8.142   4.693  18.720  0.00  0.00    +0.000 OA
ATOM     10  C   UNL     1       7.918   5.731  19.666  0.00  0.00    +0.000 C 
ENDBRANCH   3   9
BRANCH   5  11
ATOM     11  S   UNL     1       3.456   3.563  17.660  0.00  0.00    +0.000 S 
BRANCH  11  12
ATOM     12  C   UNL     1       2.848   4.927  18.649  0.00  0.00    +0.000 A 
ATOM     13  C   UNL     1       3.005   6.236  18.162  0.00  0.00    +0.000 A 
ATOM     14  C   UNL     1       2.528   7.333  18.886  0.00  0.00    +0.000 A 
ATOM     15  C   UNL     1       1.877   7.131  20.097  0.00  0.00    +0.000 A 
ATOM     16 BR   UNL     1       1.243   8.614  21.082  0.00  0.00    +0.000 Br
ATOM     17  C   UNL     1       1.686   5.840  20.587  0.00  0.00    +0.000 A 
ATOM     18  C   UNL     1       2.166   4.733  19.866  0.00  0.00    +0.000 A 
BRANCH  18  19
ATOM     19  C   UNL     1       1.924   3.425  20.407  0.00  0.00    +0.000 C 
ATOM     20  N   UNL     1       1.750   2.350  20.809  0.00  0.00    +0.000 NA
ENDBRANCH  18  19
ENDBRANCH  11  12
ENDBRANCH   5  11
TORSDOF 5
ENDMDL
MODEL 2
REMARK VINA RESULT:      -7.1      0.304      2.784
REMARK  Name = 
REMARK  7 active torsions:
REMARK  status: ('A' for Active; 'I' for Inactive)
REMARK    1  A    between atoms: C_1  and  O_2
REMARK    2  A    between atoms: O_2  and  C_3
REMARK    3  A    between atoms: C_5  and  O_6
REMARK    4  A    between atoms: O_6  and  C_7
REMARK    5  A    between atoms: C_9  and  S_10
REMARK    6  A    between atoms: S_10  and  C_11
REMARK    7  A    between atoms: C_17  and  C_18
REMARK                            x       y       z     vdW  Elec       q    Type
REMARK                         _______ _______ _______ _____ _____    ______ ____
ROOT
ATOM      1  C   UNL     1       7.096   4.626  17.577  0.00  0.00    +0.000 A 
ATOM      2  N   UNL     1       7.497   4.857  16.333  0.00  0.00    +0.000 NA
ATOM      3  C   UNL     1       6.568   4.626  15.414  0.00  0.00    +0.000 A 
ATOM      4  N   UNL     1       5.335   4.198  15.645  0.00  0.00    +0.000 NA
ATOM      5  C   UNL     1       5.052   4.016  16.929  0.00  0.00    +0.000 A 
ATOM      6  N   UNL     1       5.893   4.206  17.940  0.00  0.00    +0.000 NA
ENDROOT
BRANCH   1   8
ATOM      7  C   UNL     1       7.550   5.829  19.535  0.00  0.00    +0.000 C 
ATOM      8  O   UNL     1       7.971   4.821  18.625  0.00  0.00    +0.000 OA
ENDBRANCH   1   8
BRANCH   3   9
ATOM      9  O   UNL     1       6.861   4.826  14.082  0.00  0.00    +0.000 OA
ATOM     10  C   UNL     1       6.260   3.871  13.216  0.00  0.00    +0.000 C 
ENDBRANCH   3   9
BRANCH   5  11
ATOM     11  S   UNL     1       3.394   3.514  17.339  0.00  0.00    +0.000 S 
BRANCH  11  12
ATOM     12  C   UNL     1       2.866   4.871  18.381  0.00  0.00    +0.000 A 
ATOM     13  C   UNL     1       2.952   6.181  17.880  0.00  0.00    +0.000 A 
ATOM     14  C   UNL     1       2.533   7.273  18.646  0.00  0.00    +0.000 A 
ATOM     15  C   UNL     1       2.008   7.063  19.917  0.00  0.00    +0.000 A 
ATOM     16 BR   UNL     1       1.452   8.539  20.958  0.00  0.00    +0.000 Br
ATOM     17  C   UNL     1       1.888   5.771  20.425  0.00  0.00    +0.000 A 
ATOM     18  C   UNL     1       2.312   4.670  19.660  0.00  0.00    +0.000 A 
BRANCH  18  19
ATOM     19  C   UNL     1       2.146   3.359  20.225  0.00  0.00    +0.000 C 
ATOM     20  N   UNL     1       2.015   2.283  20.640  0.00  0.00    +0.000 NA
ENDBRANCH  18  19
ENDBRANCH  11  12
ENDBRANCH   5  11
TORSDOF 5
ENDMDL
MODEL 3
REMARK VINA RESULT:      -6.8      1.169      1.169
REMARK  Name = 
REMARK  7 active torsions:
REMARK  status: ('A' for Active; 'I' for Inactive)
REMARK    1  A    between atoms: C_1  and  O_2
REMARK    2  A    between atoms: O_2  and  C_3
REMARK    3  A    between atoms: C_5  and  O_6
REMARK    4  A    between atoms: O_6  and  C_7
REMARK    5  A    between atoms: C_9  and  S_10
REMARK    6  A    between atoms: S_10  and  C_11
REMARK    7  A    between atoms: C_17  and  C_18
REMARK                            x       y       z     vdW  Elec       q    Type
REMARK                         _______ _______ _______ _____ _____    ______ ____
ROOT
ATOM      1  C   UNL     1       6.639   5.275  15.476  0.00  0.00    +0.000 A 
ATOM      2  N   UNL     1       7.448   6.036  16.204  0.00  0.00    +0.000 NA
ATOM      3  C   UNL     1       7.053   6.197  17.461  0.00  0.00    +0.000 A 
ATOM      4  N   UNL     1       5.961   5.679  18.005  0.00  0.00    +0.000 NA
ATOM      5  C   UNL     1       5.243   4.927  17.179  0.00  0.00    +0.000 A 
ATOM      6  N   UNL     1       5.527   4.694  15.902  0.00  0.00    +0.000 NA
ENDROOT
BRANCH   1   8
ATOM      7  C   UNL     1       6.278   3.892  13.621  0.00  0.00    +0.000 C 
ATOM      8  O   UNL     1       6.935   5.037  14.150  0.00  0.00    +0.000 OA
ENDBRANCH   1   8
BRANCH   3   9
ATOM      9  O   UNL     1       7.806   6.968  18.319  0.00  0.00    +0.000 OA
ATOM     10  C   UNL     1       8.019   8.296  17.855  0.00  0.00    +0.000 C 
ENDBRANCH   3   9
BRANCH   5  11
ATOM     11  S   UNL     1       3.799   4.128  17.846  0.00  0.00    +0.000 S 
BRANCH  11  12
ATOM     12  C   UNL     1       3.028   5.481  18.730  0.00  0.00    +0.000 A 
ATOM     13  C   UNL     1       2.929   6.732  18.097  0.00  0.00    +0.000 A 
ATOM     14  C   UNL     1       2.317   7.814  18.736  0.00  0.00    +0.000 A 
ATOM     15  C   UNL     1       1.784   7.651  20.011  0.00  0.00    +0.000 A 
ATOM     16 BR   UNL     1       0.968   9.117  20.881  0.00  0.00    +0.000 Br
ATOM     17  C   UNL     1       1.847   6.414  20.648  0.00  0.00    +0.000 A 
ATOM     18  C   UNL     1       2.465   5.323  20.011  0.00  0.00    +0.000 A 
BRANCH  18  19
ATOM     19  C   UNL     1       2.483   4.065  20.705  0.00  0.00    +0.000 C 
ATOM     20  N   UNL     1       2.457   3.058  21.281  0.00  0.00    +0.000 NA
ENDBRANCH  18  19
ENDBRANCH  11  12
ENDBRANCH   5  11
TORSDOF 5
ENDMDL
MODEL 4
REMARK VINA RESULT:      -6.7      1.132      2.700
REMARK  Name = 
REMARK  7 active torsions:
REMARK  status: ('A' for Active; 'I' for Inactive)
REMARK    1  A    between atoms: C_1  and  O_2
REMARK    2  A    between atoms: O_2  and  C_3
REMARK    3  A    between atoms: C_5  and  O_6
REMARK    4  A    between atoms: O_6  and  C_7
REMARK    5  A    between atoms: C_9  and  S_10
REMARK    6  A    between atoms: S_10  and  C_11
REMARK    7  A    between atoms: C_17  and  C_18
REMARK                            x       y       z     vdW  Elec       q    Type
REMARK                         _______ _______ _______ _____ _____    ______ ____
ROOT
ATOM      1  C   UNL     1       7.058   5.953  17.492  0.00  0.00    +0.000 A 
ATOM      2  N   UNL     1       7.398   5.703  16.234  0.00  0.00    +0.000 NA
ATOM      3  C   UNL     1       6.649   4.779  15.645  0.00  0.00    +0.000 A 
ATOM      4  N   UNL     1       5.643   4.122  16.204  0.00  0.00    +0.000 NA
ATOM      5  C   UNL     1       5.394   4.470  17.461  0.00  0.00    +0.000 A 
ATOM      6  N   UNL     1       6.071   5.374  18.161  0.00  0.00    +0.000 NA
ENDROOT
BRANCH   1   8
ATOM      7  C   UNL     1       7.773   8.180  17.621  0.00  0.00    +0.000 C 
ATOM      8  O   UNL     1       7.764   6.890  18.218  0.00  0.00    +0.000 OA
ENDBRANCH   1   8
BRANCH   3   9
ATOM      9  O   UNL     1       6.903   4.427  14.337  0.00  0.00    +0.000 OA
ATOM     10  C   UNL     1       5.760   3.938  13.646  0.00  0.00    +0.000 C 
ENDBRANCH   3   9
BRANCH   5  11
ATOM     11  S   UNL     1       4.010   3.693  18.266  0.00  0.00    +0.000 S 
BRANCH  11  12
ATOM     12  C   UNL     1       3.177   5.111  18.975  0.00  0.00    +0.000 A 
ATOM     13  C   UNL     1       3.124   6.303  18.234  0.00  0.00    +0.000 A 
ATOM     14  C   UNL     1       2.467   7.432  18.733  0.00  0.00    +0.000 A 
ATOM     15  C   UNL     1       1.843   7.374  19.975  0.00  0.00    +0.000 A 
ATOM     16 BR   UNL     1       0.966   8.902  20.656  0.00  0.00    +0.000 Br
ATOM     17  C   UNL     1       1.859   6.194  20.717  0.00  0.00    +0.000 A 
ATOM     18  C   UNL     1       2.521   5.057  20.221  0.00  0.00    +0.000 A 
BRANCH  18  19
ATOM     19  C   UNL     1       2.489   3.863  21.018  0.00  0.00    +0.000 C 
ATOM     20  N   UNL     1       2.485   2.920  21.694  0.00  0.00    +0.000 NA
ENDBRANCH  18  19
ENDBRANCH  11  12
ENDBRANCH   5  11
TORSDOF 5
ENDMDL
MODEL 5
REMARK VINA RESULT:      -6.7      2.295      2.738
REMARK  Name = 
REMARK  7 active torsions:
REMARK  status: ('A' for Active; 'I' for Inactive)
REMARK    1  A    between atoms: C_1  and  O_2
REMARK    2  A    between atoms: O_2  and  C_3
REMARK    3  A    between atoms: C_5  and  O_6
REMARK    4  A    between atoms: O_6  and  C_7
REMARK    5  A    between atoms: C_9  and  S_10
REMARK    6  A    between atoms: S_10  and  C_11
REMARK    7  A    between atoms: C_17  and  C_18
REMARK                            x       y       z     vdW  Elec       q    Type
REMARK                         _______ _______ _______ _____ _____    ______ ____
ROOT
ATOM      1  C   UNL     1       6.613   5.369  15.352  0.00  0.00    +0.000 A 
ATOM      2  N   UNL     1       7.510   4.927  16.225  0.00  0.00    +0.000 NA
ATOM      3  C   UNL     1       7.211   5.196  17.490  0.00  0.00    +0.000 A 
ATOM      4  N   UNL     1       6.137   5.847  17.913  0.00  0.00    +0.000 NA
ATOM      5  C   UNL     1       5.311   6.227  16.946  0.00  0.00    +0.000 A 
ATOM      6  N   UNL     1       5.498   6.023  15.647  0.00  0.00    +0.000 NA
ENDROOT
BRANCH   1   8
ATOM      7  C   UNL     1       6.277   3.927  13.538  0.00  0.00    +0.000 C 
ATOM      8  O   UNL     1       6.810   5.160  14.003  0.00  0.00    +0.000 OA
ENDBRANCH   1   8
BRANCH   3   9
ATOM      9  O   UNL     1       8.065   4.791  18.494  0.00  0.00    +0.000 OA
ATOM     10  C   UNL     1       7.992   5.597  19.663  0.00  0.00    +0.000 C 
ENDBRANCH   3   9
BRANCH   5  11
ATOM     11  S   UNL     1       3.804   7.041  17.429  0.00  0.00    +0.000 S 
BRANCH  11  12
ATOM     12  C   UNL     1       3.121   5.855  18.585  0.00  0.00    +0.000 A 
ATOM     13  C   UNL     1       3.459   4.499  18.440  0.00  0.00    +0.000 A 
ATOM     14  C   UNL     1       2.970   3.538  19.329  0.00  0.00    +0.000 A 
ATOM     15  C   UNL     1       2.147   3.926  20.380  0.00  0.00    +0.000 A 
ATOM     16 BR   UNL     1       1.475   2.625  21.575  0.00  0.00    +0.000 Br
ATOM     17  C   UNL     1       1.819   5.268  20.560  0.00  0.00    +0.000 A 
ATOM     18  C   UNL     1       2.305   6.239  19.667  0.00  0.00    +0.000 A 
BRANCH  18  19
ATOM     19  C   UNL     1       1.952   7.610  19.911  0.00  0.00    +0.000 C 
ATOM     20  N   UNL     1       1.646   8.704  20.145  0.00  0.00    +0.000 NA
ENDBRANCH  18  19
ENDBRANCH  11  12
ENDBRANCH   5  11
TORSDOF 5
ENDMDL
MODEL 6
REMARK VINA RESULT:      -6.3      2.454      3.910
REMARK  Name = 
REMARK  7 active torsions:
REMARK  status: ('A' for Active; 'I' for Inactive)
REMARK    1  A    between atoms: C_1  and  O_2
REMARK    2  A    between atoms: O_2  and  C_3
REMARK    3  A    between atoms: C_5  and  O_6
REMARK    4  A    between atoms: O_6  and  C_7
REMARK    5  A    between atoms: C_9  and  S_10
REMARK    6  A    between atoms: S_10  and  C_11
REMARK    7  A    between atoms: C_17  and  C_18
REMARK                            x       y       z     vdW  Elec       q    Type
REMARK                         _______ _______ _______ _____ _____    ______ ____
ROOT
ATOM      1  C   UNL     1       7.126   6.457  17.547  0.00  0.00    +0.000 A 
ATOM      2  N   UNL     1       7.449   5.925  16.375  0.00  0.00    +0.000 NA
ATOM      3  C   UNL     1       6.426   5.794  15.540  0.00  0.00    +0.000 A 
ATOM      4  N   UNL     1       5.170   6.136  15.791  0.00  0.00    +0.000 NA
ATOM      5  C   UNL     1       4.977   6.667  16.992  0.00  0.00    +0.000 A 
ATOM      6  N   UNL     1       5.914   6.847  17.916  0.00  0.00    +0.000 NA
ENDROOT
BRANCH   1   8
ATOM      7  C   UNL     1       8.002   5.728  19.594  0.00  0.00    +0.000 C 
ATOM      8  O   UNL     1       8.099   6.640  18.507  0.00  0.00    +0.000 OA
ENDBRANCH   1   8
BRANCH   3   9
ATOM      9  O   UNL     1       6.630   5.253  14.289  0.00  0.00    +0.000 OA
ATOM     10  C   UNL     1       5.875   4.072  14.049  0.00  0.00    +0.000 C 
ENDBRANCH   3   9
BRANCH   5  11
ATOM     11  S   UNL     1       3.333   7.226  17.386  0.00  0.00    +0.000 S 
BRANCH  11  12
ATOM     12  C   UNL     1       2.818   5.987  18.572  0.00  0.00    +0.000 A 
ATOM     13  C   UNL     1       3.148   4.643  18.329  0.00  0.00    +0.000 A 
ATOM     14  C   UNL     1       2.787   3.640  19.235  0.00  0.00    +0.000 A 
ATOM     15  C   UNL     1       2.105   3.975  20.399  0.00  0.00    +0.000 A 
ATOM     16 BR   UNL     1       1.607   2.619  21.618  0.00  0.00    +0.000 Br
ATOM     17  C   UNL     1       1.790   5.305  20.674  0.00  0.00    +0.000 A 
ATOM     18  C   UNL     1       2.147   6.317  19.765  0.00  0.00    +0.000 A 
BRANCH  18  19
ATOM     19  C   UNL     1       1.816   7.672  20.108  0.00  0.00    +0.000 C 
ATOM     20  N   UNL     1       1.509   8.752  20.400  0.00  0.00    +0.000 NA
ENDBRANCH  18  19
ENDBRANCH  11  12
ENDBRANCH   5  11
TORSDOF 5
ENDMDL
MODEL 7
REMARK VINA RESULT:      -6.1      3.848      6.157
REMARK  Name = 
REMARK  7 active torsions:
REMARK  status: ('A' for Active; 'I' for Inactive)
REMARK    1  A    between atoms: C_1  and  O_2
REMARK    2  A    between atoms: O_2  and  C_3
REMARK    3  A    between atoms: C_5  and  O_6
REMARK    4  A    between atoms: O_6  and  C_7
REMARK    5  A    between atoms: C_9  and  S_10
REMARK    6  A    between atoms: S_10  and  C_11
REMARK    7  A    between atoms: C_17  and  C_18
REMARK                            x       y       z     vdW  Elec       q    Type
REMARK                         _______ _______ _______ _____ _____    ______ ____
ROOT
ATOM      1  C   UNL     1       2.411   6.016  19.812  0.00  0.00    +0.000 A 
ATOM      2  N   UNL     1       2.030   7.016  19.026  0.00  0.00    +0.000 NA
ATOM      3  C   UNL     1       2.959   7.410  18.165  0.00  0.00    +0.000 A 
ATOM      4  N   UNL     1       4.178   6.902  18.049  0.00  0.00    +0.000 NA
ATOM      5  C   UNL     1       4.434   5.900  18.881  0.00  0.00    +0.000 A 
ATOM      6  N   UNL     1       3.593   5.417  19.790  0.00  0.00    +0.000 NA
ENDROOT
BRANCH   1   8
ATOM      7  C   UNL     1       1.248   4.136  20.587  0.00  0.00    +0.000 C 
ATOM      8  O   UNL     1       1.538   5.518  20.757  0.00  0.00    +0.000 OA
ENDBRANCH   1   8
BRANCH   3   9
ATOM      9  O   UNL     1       2.688   8.443  17.294  0.00  0.00    +0.000 OA
ATOM     10  C   UNL     1       1.767   9.397  17.809  0.00  0.00    +0.000 C 
ENDBRANCH   3   9
BRANCH   5  11
ATOM     11  S   UNL     1       6.021   5.106  18.744  0.00  0.00    +0.000 S 
BRANCH  11  12
ATOM     12  C   UNL     1       6.054   4.689  17.002  0.00  0.00    +0.000 A 
ATOM     13  C   UNL     1       7.054   5.254  16.193  0.00  0.00    +0.000 A 
ATOM     14  C   UNL     1       7.136   4.944  14.832  0.00  0.00    +0.000 A 
ATOM     15  C   UNL     1       6.226   4.054  14.271  0.00  0.00    +0.000 A 
ATOM     16 BR   UNL     1       6.329   3.644  12.429  0.00  0.00    +0.000 Br
ATOM     17  C   UNL     1       5.242   3.461  15.060  0.00  0.00    +0.000 A 
ATOM     18  C   UNL     1       5.153   3.772  16.428  0.00  0.00    +0.000 A 
BRANCH  18  19
ATOM     19  C   UNL     1       4.132   3.117  17.198  0.00  0.00    +0.000 C 
ATOM     20  N   UNL     1       3.278   2.615  17.802  0.00  0.00    +0.000 NA
ENDBRANCH  18  19
ENDBRANCH  11  12
ENDBRANCH   5  11
TORSDOF 5
ENDMDL
MODEL 8
REMARK VINA RESULT:      -6.0      3.859      5.945
REMARK  Name = 
REMARK  7 active torsions:
REMARK  status: ('A' for Active; 'I' for Inactive)
REMARK    1  A    between atoms: C_1  and  O_2
REMARK    2  A    between atoms: O_2  and  C_3
REMARK    3  A    between atoms: C_5  and  O_6
REMARK    4  A    between atoms: O_6  and  C_7
REMARK    5  A    between atoms: C_9  and  S_10
REMARK    6  A    between atoms: S_10  and  C_11
REMARK    7  A    between atoms: C_17  and  C_18
REMARK                            x       y       z     vdW  Elec       q    Type
REMARK                         _______ _______ _______ _____ _____    ______ ____
ROOT
ATOM      1  C   UNL     1       2.967   7.450  18.169  0.00  0.00    +0.000 A 
ATOM      2  N   UNL     1       2.066   7.060  19.063  0.00  0.00    +0.000 NA
ATOM      3  C   UNL     1       2.456   6.036  19.811  0.00  0.00    +0.000 A 
ATOM      4  N   UNL     1       3.620   5.408  19.724  0.00  0.00    +0.000 NA
ATOM      5  C   UNL     1       4.438   5.899  18.801  0.00  0.00    +0.000 A 
ATOM      6  N   UNL     1       4.165   6.913  17.987  0.00  0.00    +0.000 NA
ENDROOT
BRANCH   1   8
ATOM      7  C   UNL     1       1.642   9.346  17.803  0.00  0.00    +0.000 C 
ATOM      8  O   UNL     1       2.680   8.501  17.323  0.00  0.00    +0.000 OA
ENDBRANCH   1   8
BRANCH   3   9
ATOM      9  O   UNL     1       1.610   5.535  20.777  0.00  0.00    +0.000 OA
ATOM     10  C   UNL     1       1.075   4.256  20.459  0.00  0.00    +0.000 C 
ENDBRANCH   3   9
BRANCH   5  11
ATOM     11  S   UNL     1       6.054   5.165  18.665  0.00  0.00    +0.000 S 
BRANCH  11  12
ATOM     12  C   UNL     1       6.093   4.723  16.930  0.00  0.00    +0.000 A 
ATOM     13  C   UNL     1       7.067   5.310  16.106  0.00  0.00    +0.000 A 
ATOM     14  C   UNL     1       7.153   4.981  14.749  0.00  0.00    +0.000 A 
ATOM     15  C   UNL     1       6.273   4.051  14.208  0.00  0.00    +0.000 A 
ATOM     16 BR   UNL     1       6.381   3.615  12.372  0.00  0.00    +0.000 Br
ATOM     17  C   UNL     1       5.315   3.436  15.012  0.00  0.00    +0.000 A 
ATOM     18  C   UNL     1       5.222   3.765  16.376  0.00  0.00    +0.000 A 
BRANCH  18  19
ATOM     19  C   UNL     1       4.230   3.086  17.162  0.00  0.00    +0.000 C 
ATOM     20  N   UNL     1       3.397   2.555  17.771  0.00  0.00    +0.000 NA
ENDBRANCH  18  19
ENDBRANCH  11  12
ENDBRANCH   5  11
TORSDOF 5
ENDMDL
MODEL 9
REMARK VINA RESULT:      -5.9      3.831      6.365
REMARK  Name = 
REMARK  7 active torsions:
REMARK  status: ('A' for Active; 'I' for Inactive)
REMARK    1  A    between atoms: C_1  and  O_2
REMARK    2  A    between atoms: O_2  and  C_3
REMARK    3  A    between atoms: C_5  and  O_6
REMARK    4  A    between atoms: O_6  and  C_7
REMARK    5  A    between atoms: C_9  and  S_10
REMARK    6  A    between atoms: S_10  and  C_11
REMARK    7  A    between atoms: C_17  and  C_18
REMARK                            x       y       z     vdW  Elec       q    Type
REMARK                         _______ _______ _______ _____ _____    ______ ____
ROOT
ATOM      1  C   UNL     1       2.463   6.593  19.336  0.00  0.00    +0.000 A 
ATOM      2  N   UNL     1       1.685   5.622  19.798  0.00  0.00    +0.000 NA
ATOM      3  C   UNL     1       2.325   4.484  20.037  0.00  0.00    +0.000 A 
ATOM      4  N   UNL     1       3.619   4.266  19.847  0.00  0.00    +0.000 NA
ATOM      5  C   UNL     1       4.290   5.317  19.394  0.00  0.00    +0.000 A 
ATOM      6  N   UNL     1       3.766   6.505  19.112  0.00  0.00    +0.000 NA
ENDROOT
BRANCH   1   8
ATOM      7  C   UNL     1       2.488   8.438  17.892  0.00  0.00    +0.000 C 
ATOM      8  O   UNL     1       1.916   7.825  19.041  0.00  0.00    +0.000 OA
ENDBRANCH   1   8
BRANCH   3   9
ATOM      9  O   UNL     1       1.628   3.397  20.518  0.00  0.00    +0.000 OA
ATOM     10  C   UNL     1       2.180   2.848  21.709  0.00  0.00    +0.000 C 
ENDBRANCH   3   9
BRANCH   5  11
ATOM     11  S   UNL     1       6.048   5.138  19.182  0.00  0.00    +0.000 S 
BRANCH  11  12
ATOM     12  C   UNL     1       6.158   4.815  17.424  0.00  0.00    +0.000 A 
ATOM     13  C   UNL     1       5.563   3.648  16.914  0.00  0.00    +0.000 A 
ATOM     14  C   UNL     1       5.602   3.361  15.546  0.00  0.00    +0.000 A 
ATOM     15  C   UNL     1       6.225   4.246  14.673  0.00  0.00    +0.000 A 
ATOM     16 BR   UNL     1       6.289   3.853  12.826  0.00  0.00    +0.000 Br
ATOM     17  C   UNL     1       6.798   5.422  15.152  0.00  0.00    +0.000 A 
ATOM     18  C   UNL     1       6.765   5.715  16.527  0.00  0.00    +0.000 A 
BRANCH  18  19
ATOM     19  C   UNL     1       7.354   6.950  16.964  0.00  0.00    +0.000 C 
ATOM     20  N   UNL     1       7.795   7.953  17.345  0.00  0.00    +0.000 NA
ENDBRANCH  18  19
ENDBRANCH  11  12
ENDBRANCH   5  11
TORSDOF 5
ENDMDL
