MODEL 1
REMARK VINA RESULT:      -5.0      0.000      0.000
REMARK  Name = 
REMARK  3 active torsions:
REMARK  status: ('A' for Active; 'I' for Inactive)
REMARK    1  A    between atoms: C_1  and  C_2
REMARK    2  A    between atoms: C_4  and  O_5
REMARK    3  A    between atoms: C_6  and  O_7
REMARK                            x       y       z     vdW  Elec       q    Type
REMARK                         _______ _______ _______ _____ _____    ______ ____
ROOT
ATOM      1  C   UNL     1       7.666   7.045  18.111  0.00  0.00    +0.000 C 
ATOM      2  C   UNL     1       7.715   5.625  18.670  0.00  0.00    +0.000 C 
ATOM      3  C   UNL     1       7.536   4.553  17.596  0.00  0.00    +0.000 C 
ATOM      4  C   UNL     1       6.090   4.501  17.112  0.00  0.00    +0.000 C 
ATOM      5  C   UNL     1       5.125   4.357  18.295  0.00  0.00    +0.000 C 
ATOM      6  C   UNL     1       5.395   5.446  19.332  0.00  0.00    +0.000 C 
ATOM      7  O   UNL     1       6.772   5.436  19.733  0.00  0.00    +0.000 OA
ENDROOT
BRANCH   4   8
ATOM      8  O   UNL     1       5.940   3.395  16.220  0.00  0.00    +0.000 OA
ATOM      9  H   UNL     1       5.899   3.781  15.325  0.00  0.00    +0.000 HD
ENDBRANCH   4   8
BRANCH   5  10
ATOM     10  O   UNL     1       5.322   3.058  18.886  0.00  0.00    +0.000 OA
ATOM     11  H   UNL     1       5.275   3.185  19.855  0.00  0.00    +0.000 HD
ENDBRANCH   5  10
TORSDOF 2
ENDMDL
MODEL 2
REMARK VINA RESULT:      -4.9      2.825      4.599
REMARK  Name = 
REMARK  3 active torsions:
REMARK  status: ('A' for Active; 'I' for Inactive)
REMARK    1  A    between atoms: C_1  and  C_2
REMARK    2  A    between atoms: C_4  and  O_5
REMARK    3  A    between atoms: C_6  and  O_7
REMARK                            x       y       z     vdW  Elec       q    Type
REMARK                         _______ _______ _______ _____ _____    ______ ____
ROOT
ATOM      1  C   UNL     1       1.156   2.593  18.708  0.00  0.00    +0.000 C 
ATOM      2  C   UNL     1       2.425   2.511  17.862  0.00  0.00    +0.000 C 
ATOM      3  C   UNL     1       3.507   1.636  18.491  0.00  0.00    +0.000 C 
ATOM      4  C   UNL     1       4.142   2.330  19.692  0.00  0.00    +0.000 C 
ATOM      5  C   UNL     1       4.626   3.736  19.315  0.00  0.00    +0.000 C 
ATOM      6  C   UNL     1       3.493   4.528  18.665  0.00  0.00    +0.000 C 
ATOM      7  O   UNL     1       2.945   3.810  17.551  0.00  0.00    +0.000 OA
ENDROOT
BRANCH   4   8
ATOM      8  O   UNL     1       5.239   1.542  20.156  0.00  0.00    +0.000 OA
ATOM      9  H   UNL     1       4.854   0.690  20.434  0.00  0.00    +0.000 HD
ENDBRANCH   4   8
BRANCH   5  10
ATOM     10  O   UNL     1       5.725   3.605  18.392  0.00  0.00    +0.000 OA
ATOM     11  H   UNL     1       6.542   3.706  18.919  0.00  0.00    +0.000 HD
ENDBRANCH   5  10
TORSDOF 2
ENDMDL
MODEL 3
REMARK VINA RESULT:      -4.9      2.341      3.907
REMARK  Name = 
REMARK  3 active torsions:
REMARK  status: ('A' for Active; 'I' for Inactive)
REMARK    1  A    between atoms: C_1  and  C_2
REMARK    2  A    between atoms: C_4  and  O_5
REMARK    3  A    between atoms: C_6  and  O_7
REMARK                            x       y       z     vdW  Elec       q    Type
REMARK                         _______ _______ _______ _____ _____    ______ ____
ROOT
ATOM      1  C   UNL     1       1.662   4.129  17.871  0.00  0.00    +0.000 C 
ATOM      2  C   UNL     1       3.005   3.762  17.243  0.00  0.00    +0.000 C 
ATOM      3  C   UNL     1       3.702   2.605  17.956  0.00  0.00    +0.000 C 
ATOM      4  C   UNL     1       4.255   3.049  19.307  0.00  0.00    +0.000 C 
ATOM      5  C   UNL     1       5.132   4.297  19.152  0.00  0.00    +0.000 C 
ATOM      6  C   UNL     1       4.370   5.389  18.403  0.00  0.00    +0.000 C 
ATOM      7  O   UNL     1       3.878   4.896  17.148  0.00  0.00    +0.000 OA
ENDROOT
BRANCH   4   8
ATOM      8  O   UNL     1       5.018   1.980  19.868  0.00  0.00    +0.000 OA
ATOM      9  H   UNL     1       4.777   1.952  20.814  0.00  0.00    +0.000 HD
ENDBRANCH   4   8
BRANCH   5  10
ATOM     10  O   UNL     1       6.316   3.931  18.415  0.00  0.00    +0.000 OA
ATOM     11  H   UNL     1       6.550   4.707  17.867  0.00  0.00    +0.000 HD
ENDBRANCH   5  10
TORSDOF 2
ENDMDL
MODEL 4
REMARK VINA RESULT:      -4.9      3.598      5.175
REMARK  Name = 
REMARK  3 active torsions:
REMARK  status: ('A' for Active; 'I' for Inactive)
REMARK    1  A    between atoms: C_1  and  C_2
REMARK    2  A    between atoms: C_4  and  O_5
REMARK    3  A    between atoms: C_6  and  O_7
REMARK                            x       y       z     vdW  Elec       q    Type
REMARK                         _______ _______ _______ _____ _____    ______ ____
ROOT
ATOM      1  C   UNL     1       1.138   4.061  20.394  0.00  0.00    +0.000 C 
ATOM      2  C   UNL     1       1.701   2.642  20.447  0.00  0.00    +0.000 C 
ATOM      3  C   UNL     1       3.214   2.607  20.650  0.00  0.00    +0.000 C 
ATOM      4  C   UNL     1       3.946   3.037  19.382  0.00  0.00    +0.000 C 
ATOM      5  C   UNL     1       3.465   2.225  18.174  0.00  0.00    +0.000 C 
ATOM      6  C   UNL     1       1.943   2.288  18.066  0.00  0.00    +0.000 C 
ATOM      7  O   UNL     1       1.328   1.875  19.295  0.00  0.00    +0.000 OA
ENDROOT
BRANCH   4   8
ATOM      8  O   UNL     1       5.349   2.851  19.572  0.00  0.00    +0.000 OA
ATOM      9  H   UNL     1       5.435   2.223  20.314  0.00  0.00    +0.000 HD
ENDBRANCH   4   8
BRANCH   5  10
ATOM     10  O   UNL     1       3.887   0.858  18.350  0.00  0.00    +0.000 OA
ATOM     11  H   UNL     1       4.398   0.622  17.550  0.00  0.00    +0.000 HD
ENDBRANCH   5  10
TORSDOF 2
ENDMDL
MODEL 5
REMARK VINA RESULT:      -4.7      2.946      4.908
REMARK  Name = 
REMARK  3 active torsions:
REMARK  status: ('A' for Active; 'I' for Inactive)
REMARK    1  A    between atoms: C_1  and  C_2
REMARK    2  A    between atoms: C_4  and  O_5
REMARK    3  A    between atoms: C_6  and  O_7
REMARK                            x       y       z     vdW  Elec       q    Type
REMARK                         _______ _______ _______ _____ _____    ______ ____
ROOT
ATOM      1  C   UNL     1       0.795   3.036  19.476  0.00  0.00    +0.000 C 
ATOM      2  C   UNL     1       1.659   2.420  18.377  0.00  0.00    +0.000 C 
ATOM      3  C   UNL     1       2.945   1.792  18.911  0.00  0.00    +0.000 C 
ATOM      4  C   UNL     1       3.942   2.865  19.337  0.00  0.00    +0.000 C 
ATOM      5  C   UNL     1       4.171   3.875  18.206  0.00  0.00    +0.000 C 
ATOM      6  C   UNL     1       2.835   4.428  17.713  0.00  0.00    +0.000 C 
ATOM      7  O   UNL     1       1.952   3.362  17.336  0.00  0.00    +0.000 OA
ENDROOT
BRANCH   4   8
ATOM      8  O   UNL     1       5.175   2.237  19.690  0.00  0.00    +0.000 OA
ATOM      9  H   UNL     1       5.264   1.472  19.091  0.00  0.00    +0.000 HD
ENDBRANCH   4   8
BRANCH   5  10
ATOM     10  O   UNL     1       4.852   3.203  17.128  0.00  0.00    +0.000 OA
ATOM     11  H   UNL     1       4.383   3.454  16.307  0.00  0.00    +0.000 HD
ENDBRANCH   5  10
TORSDOF 2
ENDMDL
MODEL 6
REMARK VINA RESULT:      -4.7      3.727      4.809
REMARK  Name = 
REMARK  3 active torsions:
REMARK  status: ('A' for Active; 'I' for Inactive)
REMARK    1  A    between atoms: C_1  and  C_2
REMARK    2  A    between atoms: C_4  and  O_5
REMARK    3  A    between atoms: C_6  and  O_7
REMARK                            x       y       z     vdW  Elec       q    Type
REMARK                         _______ _______ _______ _____ _____    ______ ____
ROOT
ATOM      1  C   UNL     1       0.551   2.796  18.923  0.00  0.00    +0.000 C 
ATOM      2  C   UNL     1       1.806   3.306  18.218  0.00  0.00    +0.000 C 
ATOM      3  C   UNL     1       2.722   2.180  17.743  0.00  0.00    +0.000 C 
ATOM      4  C   UNL     1       3.437   1.523  18.920  0.00  0.00    +0.000 C 
ATOM      5  C   UNL     1       4.146   2.575  19.782  0.00  0.00    +0.000 C 
ATOM      6  C   UNL     1       3.166   3.676  20.184  0.00  0.00    +0.000 C 
ATOM      7  O   UNL     1       2.532   4.240  19.028  0.00  0.00    +0.000 OA
ENDROOT
BRANCH   4   8
ATOM      8  O   UNL     1       4.385   0.581  18.419  0.00  0.00    +0.000 OA
ATOM      9  H   UNL     1       5.228   1.068  18.342  0.00  0.00    +0.000 HD
ENDBRANCH   4   8
BRANCH   5  10
ATOM     10  O   UNL     1       5.227   3.138  19.013  0.00  0.00    +0.000 OA
ATOM     11  H   UNL     1       5.920   2.449  18.965  0.00  0.00    +0.000 HD
ENDBRANCH   5  10
TORSDOF 2
ENDMDL
MODEL 7
REMARK VINA RESULT:      -4.7      1.829      2.866
REMARK  Name = 
REMARK  3 active torsions:
REMARK  status: ('A' for Active; 'I' for Inactive)
REMARK    1  A    between atoms: C_1  and  C_2
REMARK    2  A    between atoms: C_4  and  O_5
REMARK    3  A    between atoms: C_6  and  O_7
REMARK                            x       y       z     vdW  Elec       q    Type
REMARK                         _______ _______ _______ _____ _____    ______ ____
ROOT
ATOM      1  C   UNL     1       4.603   6.915  16.462  0.00  0.00    +0.000 C 
ATOM      2  C   UNL     1       5.554   5.784  16.078  0.00  0.00    +0.000 C 
ATOM      3  C   UNL     1       5.297   4.497  16.860  0.00  0.00    +0.000 C 
ATOM      4  C   UNL     1       5.761   4.633  18.307  0.00  0.00    +0.000 C 
ATOM      5  C   UNL     1       7.216   5.113  18.368  0.00  0.00    +0.000 C 
ATOM      6  C   UNL     1       7.390   6.383  17.536  0.00  0.00    +0.000 C 
ATOM      7  O   UNL     1       6.928   6.178  16.194  0.00  0.00    +0.000 OA
ENDROOT
BRANCH   4   8
ATOM      8  O   UNL     1       5.634   3.367  18.955  0.00  0.00    +0.000 OA
ATOM      9  H   UNL     1       6.536   3.124  19.239  0.00  0.00    +0.000 HD
ENDBRANCH   4   8
BRANCH   5  10
ATOM     10  O   UNL     1       8.061   4.067  17.848  0.00  0.00    +0.000 OA
ATOM     11  H   UNL     1       8.189   3.428  18.578  0.00  0.00    +0.000 HD
ENDBRANCH   5  10
TORSDOF 2
ENDMDL
MODEL 8
REMARK VINA RESULT:      -4.6      3.465      3.907
REMARK  Name = 
REMARK  3 active torsions:
REMARK  status: ('A' for Active; 'I' for Inactive)
REMARK    1  A    between atoms: C_1  and  C_2
REMARK    2  A    between atoms: C_4  and  O_5
REMARK    3  A    between atoms: C_6  and  O_7
REMARK                            x       y       z     vdW  Elec       q    Type
REMARK                         _______ _______ _______ _____ _____    ______ ____
ROOT
ATOM      1  C   UNL     1       1.784   4.617  17.737  0.00  0.00    +0.000 C 
ATOM      2  C   UNL     1       3.286   4.451  17.960  0.00  0.00    +0.000 C 
ATOM      3  C   UNL     1       3.810   3.092  17.502  0.00  0.00    +0.000 C 
ATOM      4  C   UNL     1       3.369   1.986  18.456  0.00  0.00    +0.000 C 
ATOM      5  C   UNL     1       3.737   2.336  19.902  0.00  0.00    +0.000 C 
ATOM      6  C   UNL     1       3.202   3.720  20.264  0.00  0.00    +0.000 C 
ATOM      7  O   UNL     1       3.654   4.703  19.322  0.00  0.00    +0.000 OA
ENDROOT
BRANCH   4   8
ATOM      8  O   UNL     1       3.999   0.764  18.071  0.00  0.00    +0.000 OA
ATOM      9  H   UNL     1       4.108   0.252  18.895  0.00  0.00    +0.000 HD
ENDBRANCH   4   8
BRANCH   5  10
ATOM     10  O   UNL     1       5.173   2.319  20.022  0.00  0.00    +0.000 OA
ATOM     11  H   UNL     1       5.436   1.377  20.058  0.00  0.00    +0.000 HD
ENDBRANCH   5  10
TORSDOF 2
ENDMDL
MODEL 9
REMARK VINA RESULT:      -4.6      3.209      5.023
REMARK  Name = 
REMARK  3 active torsions:
REMARK  status: ('A' for Active; 'I' for Inactive)
REMARK    1  A    between atoms: C_1  and  C_2
REMARK    2  A    between atoms: C_4  and  O_5
REMARK    3  A    between atoms: C_6  and  O_7
REMARK                            x       y       z     vdW  Elec       q    Type
REMARK                         _______ _______ _______ _____ _____    ______ ____
ROOT
ATOM      1  C   UNL     1       1.471   4.028  17.892  0.00  0.00    +0.000 C 
ATOM      2  C   UNL     1       2.143   2.676  18.125  0.00  0.00    +0.000 C 
ATOM      3  C   UNL     1       2.056   2.208  19.576  0.00  0.00    +0.000 C 
ATOM      4  C   UNL     1       2.987   3.022  20.470  0.00  0.00    +0.000 C 
ATOM      5  C   UNL     1       4.413   3.029  19.907  0.00  0.00    +0.000 C 
ATOM      6  C   UNL     1       4.403   3.477  18.446  0.00  0.00    +0.000 C 
ATOM      7  O   UNL     1       3.503   2.670  17.673  0.00  0.00    +0.000 OA
ENDROOT
BRANCH   4   8
ATOM      8  O   UNL     1       2.980   2.458  21.782  0.00  0.00    +0.000 OA
ATOM      9  H   UNL     1       2.417   1.663  21.725  0.00  0.00    +0.000 HD
ENDBRANCH   4   8
BRANCH   5  10
ATOM     10  O   UNL     1       4.946   1.693  20.006  0.00  0.00    +0.000 OA
ATOM     11  H   UNL     1       4.706   1.366  20.896  0.00  0.00    +0.000 HD
ENDBRANCH   5  10
TORSDOF 2
ENDMDL
