MODEL 1
REMARK VINA RESULT:      -7.2      0.000      0.000
REMARK  Name = 
REMARK  3 active torsions:
REMARK  status: ('A' for Active; 'I' for Inactive)
REMARK    1  A    between atoms: C_2  and  C_3
REMARK    2  A    between atoms: C_3  and  C_4
REMARK    3  A    between atoms: C_11  and  C_13
REMARK                            x       y       z     vdW  Elec       q    Type
REMARK                         _______ _______ _______ _____ _____    ______ ____
ROOT
ATOM      1  C   UNL     1       3.492   4.242  19.715  0.00  0.00    +0.000 C 
ATOM      2  C   UNL     1       2.121   3.599  19.718  0.00  0.00    +0.000 C 
ATOM      3  O   UNL     1       1.190   4.147  18.793  0.00  0.00    +0.000 OA
ATOM      4  C   UNL     1       1.579   5.170  17.883  0.00  0.00    +0.000 C 
ATOM      5  C   UNL     1       2.673   6.159  18.319  0.00  0.00    +0.000 C 
ATOM      6  C   UNL     1       2.174   7.579  18.526  0.00  0.00    +0.000 C 
ATOM      7  N   UNL     1       1.886   7.688  19.938  0.00  0.00    +0.000 N 
ATOM      8  C   UNL     1       1.059   8.630  20.543  0.00  0.00    +0.000 C 
ATOM      9  O   UNL     1       0.699   8.516  21.714  0.00  0.00    +0.000 OA
ATOM     10  C   UNL     1       2.356   6.493  20.654  0.00  0.00    +0.000 C 
ATOM     11  C   UNL     1       3.312   5.786  19.658  0.00  0.00    +0.000 C 
ENDROOT
BRANCH   8  12
ATOM     12  C   UNL     1       0.550   9.804  19.766  0.00  0.00    +0.000 A 
ATOM     13  C   UNL     1      -0.631   9.806  19.016  0.00  0.00    +0.000 A 
ATOM     14  C   UNL     1      -1.044  10.959  18.363  0.00  0.00    +0.000 A 
ATOM     15  C   UNL     1      -0.236  12.083  18.435  0.00  0.00    +0.000 A 
ATOM     16  N   UNL     1       0.943  12.107  19.092  0.00  0.00    +0.000 NA
ATOM     17  C   UNL     1       1.313  10.967  19.747  0.00  0.00    +0.000 A 
ENDBRANCH   8  12
BRANCH   1  18
ATOM     18  C   UNL     1       4.349   3.784  18.502  0.00  0.00    +0.000 C 
BRANCH  18  20
ATOM     19  O   UNL     1       6.556   4.616  19.076  0.00  0.00    +0.000 OA
ATOM     20  C   UNL     1       5.768   4.285  18.197  0.00  0.00    +0.000 C 
ATOM     21  N   UNL     1       6.032   4.431  16.822  0.00  0.00    +0.000 N 
ATOM     22  C   UNL     1       7.258   5.047  16.338  0.00  0.00    +0.000 C 
ATOM     23  C   UNL     1       7.121   5.079  14.814  0.00  0.00    +0.000 C 
ATOM     24  C   UNL     1       5.991   4.112  14.472  0.00  0.00    +0.000 C 
ATOM     25  C   UNL     1       5.526   3.536  15.797  0.00  0.00    +0.000 C 
ENDBRANCH  18  20
ENDBRANCH   1  18
TORSDOF 3
ENDMDL
MODEL 2
REMARK VINA RESULT:      -6.6      1.240      1.477
REMARK  Name = 
REMARK  3 active torsions:
REMARK  status: ('A' for Active; 'I' for Inactive)
REMARK    1  A    between atoms: C_2  and  C_3
REMARK    2  A    between atoms: C_3  and  C_4
REMARK    3  A    between atoms: C_11  and  C_13
REMARK                            x       y       z     vdW  Elec       q    Type
REMARK                         _______ _______ _______ _____ _____    ______ ____
ROOT
ATOM      1  C   UNL     1       2.975   4.254  20.029  0.00  0.00    +0.000 C 
ATOM      2  C   UNL     1       1.805   3.802  19.181  0.00  0.00    +0.000 C 
ATOM      3  O   UNL     1       1.405   4.710  18.162  0.00  0.00    +0.000 OA
ATOM      4  C   UNL     1       2.131   5.912  17.928  0.00  0.00    +0.000 C 
ATOM      5  C   UNL     1       2.830   6.588  19.120  0.00  0.00    +0.000 C 
ATOM      6  C   UNL     1       2.222   7.922  19.516  0.00  0.00    +0.000 C 
ATOM      7  N   UNL     1       1.288   7.623  20.578  0.00  0.00    +0.000 N 
ATOM      8  C   UNL     1       0.225   8.422  20.993  0.00  0.00    +0.000 C 
ATOM      9  O   UNL     1      -0.645   7.994  21.749  0.00  0.00    +0.000 OA
ATOM     10  C   UNL     1       1.417   6.220  20.998  0.00  0.00    +0.000 C 
ATOM     11  C   UNL     1       2.767   5.751  20.398  0.00  0.00    +0.000 C 
ENDROOT
BRANCH   8  12
ATOM     12  C   UNL     1       0.093   9.828  20.497  0.00  0.00    +0.000 A 
ATOM     13  C   UNL     1      -0.609  10.198  19.344  0.00  0.00    +0.000 A 
ATOM     14  C   UNL     1      -0.713  11.536  18.988  0.00  0.00    +0.000 A 
ATOM     15  C   UNL     1      -0.067  12.479  19.771  0.00  0.00    +0.000 A 
ATOM     16  N   UNL     1       0.675  12.162  20.853  0.00  0.00    +0.000 NA
ATOM     17  C   UNL     1       0.739  10.841  21.196  0.00  0.00    +0.000 A 
ENDBRANCH   8  12
BRANCH   1  18
ATOM     18  C   UNL     1       4.330   4.096  19.284  0.00  0.00    +0.000 C 
BRANCH  18  20
ATOM     19  O   UNL     1       3.893   2.501  17.508  0.00  0.00    +0.000 OA
ATOM     20  C   UNL     1       4.487   3.508  17.874  0.00  0.00    +0.000 C 
ATOM     21  N   UNL     1       5.454   4.167  17.091  0.00  0.00    +0.000 N 
ATOM     22  C   UNL     1       5.863   3.660  15.790  0.00  0.00    +0.000 C 
ATOM     23  C   UNL     1       6.965   4.610  15.314  0.00  0.00    +0.000 C 
ATOM     24  C   UNL     1       6.856   5.854  16.190  0.00  0.00    +0.000 C 
ATOM     25  C   UNL     1       5.689   5.599  17.127  0.00  0.00    +0.000 C 
ENDBRANCH  18  20
ENDBRANCH   1  18
TORSDOF 3
ENDMDL
MODEL 3
REMARK VINA RESULT:      -6.5      3.523      5.573
REMARK  Name = 
REMARK  3 active torsions:
REMARK  status: ('A' for Active; 'I' for Inactive)
REMARK    1  A    between atoms: C_2  and  C_3
REMARK    2  A    between atoms: C_3  and  C_4
REMARK    3  A    between atoms: C_11  and  C_13
REMARK                            x       y       z     vdW  Elec       q    Type
REMARK                         _______ _______ _______ _____ _____    ______ ____
ROOT
ATOM      1  C   UNL     1       6.689   6.378  16.046  0.00  0.00    +0.000 C 
ATOM      2  C   UNL     1       7.351   7.030  17.242  0.00  0.00    +0.000 C 
ATOM      3  O   UNL     1       7.422   6.226  18.412  0.00  0.00    +0.000 OA
ATOM      4  C   UNL     1       6.971   4.876  18.401  0.00  0.00    +0.000 C 
ATOM      5  C   UNL     1       5.811   4.501  17.462  0.00  0.00    +0.000 C 
ATOM      6  C   UNL     1       4.528   4.132  18.184  0.00  0.00    +0.000 C 
ATOM      7  N   UNL     1       3.744   5.346  18.230  0.00  0.00    +0.000 N 
ATOM      8  C   UNL     1       2.696   5.621  19.104  0.00  0.00    +0.000 C 
ATOM      9  O   UNL     1       2.233   6.755  19.220  0.00  0.00    +0.000 OA
ATOM     10  C   UNL     1       4.373   6.396  17.415  0.00  0.00    +0.000 C 
ATOM     11  C   UNL     1       5.405   5.646  16.533  0.00  0.00    +0.000 C 
ENDROOT
BRANCH   8  12
ATOM     12  C   UNL     1       2.120   4.539  19.963  0.00  0.00    +0.000 A 
ATOM     13  C   UNL     1       1.083   3.684  19.573  0.00  0.00    +0.000 A 
ATOM     14  C   UNL     1       0.646   2.680  20.425  0.00  0.00    +0.000 A 
ATOM     15  C   UNL     1       1.226   2.580  21.680  0.00  0.00    +0.000 A 
ATOM     16  N   UNL     1       2.182   3.423  22.123  0.00  0.00    +0.000 NA
ATOM     17  C   UNL     1       2.613   4.386  21.255  0.00  0.00    +0.000 A 
ENDBRANCH   8  12
BRANCH   1  18
ATOM     18  C   UNL     1       7.626   5.353  15.348  0.00  0.00    +0.000 C 
BRANCH  18  20
ATOM     19  O   UNL     1       8.754   5.859  13.259  0.00  0.00    +0.000 OA
ATOM     20  C   UNL     1       7.846   5.267  13.831  0.00  0.00    +0.000 C 
ATOM     21  N   UNL     1       6.847   4.538  13.156  0.00  0.00    +0.000 N 
ATOM     22  C   UNL     1       6.789   4.482  11.703  0.00  0.00    +0.000 C 
ATOM     23  C   UNL     1       5.536   3.665  11.380  0.00  0.00    +0.000 C 
ATOM     24  C   UNL     1       5.153   2.951  12.672  0.00  0.00    +0.000 C 
ATOM     25  C   UNL     1       6.201   3.355  13.694  0.00  0.00    +0.000 C 
ENDBRANCH  18  20
ENDBRANCH   1  18
TORSDOF 3
ENDMDL
MODEL 4
REMARK VINA RESULT:      -6.4      3.669      6.685
REMARK  Name = 
REMARK  3 active torsions:
REMARK  status: ('A' for Active; 'I' for Inactive)
REMARK    1  A    between atoms: C_2  and  C_3
REMARK    2  A    between atoms: C_3  and  C_4
REMARK    3  A    between atoms: C_11  and  C_13
REMARK                            x       y       z     vdW  Elec       q    Type
REMARK                         _______ _______ _______ _____ _____    ______ ____
ROOT
ATOM      1  C   UNL     1       0.897  10.529  20.356  0.00  0.00    +0.000 C 
ATOM      2  C   UNL     1      -0.360  10.781  21.162  0.00  0.00    +0.000 C 
ATOM      3  O   UNL     1      -1.365  11.540  20.502  0.00  0.00    +0.000 OA
ATOM      4  C   UNL     1      -1.204  11.945  19.147  0.00  0.00    +0.000 C 
ATOM      5  C   UNL     1       0.219  12.220  18.631  0.00  0.00    +0.000 C 
ATOM      6  C   UNL     1       0.486  13.680  18.310  0.00  0.00    +0.000 C 
ATOM      7  N   UNL     1       1.097  14.234  19.497  0.00  0.00    +0.000 N 
ATOM      8  C   UNL     1       1.166  15.582  19.840  0.00  0.00    +0.000 C 
ATOM      9  O   UNL     1       1.506  15.944  20.965  0.00  0.00    +0.000 OA
ATOM     10  C   UNL     1       1.404  13.169  20.463  0.00  0.00    +0.000 C 
ATOM     11  C   UNL     1       1.301  11.854  19.648  0.00  0.00    +0.000 C 
ENDROOT
BRANCH   8  12
ATOM     12  C   UNL     1       0.788  16.637  18.849  0.00  0.00    +0.000 A 
ATOM     13  C   UNL     1      -0.525  17.041  18.582  0.00  0.00    +0.000 A 
ATOM     14  C   UNL     1      -0.773  18.062  17.674  0.00  0.00    +0.000 A 
ATOM     15  C   UNL     1       0.303  18.631  17.011  0.00  0.00    +0.000 A 
ATOM     16  N   UNL     1       1.579  18.229  17.188  0.00  0.00    +0.000 NA
ATOM     17  C   UNL     1       1.798  17.240  18.106  0.00  0.00    +0.000 A 
ENDBRANCH   8  12
BRANCH   1  18
ATOM     18  C   UNL     1       0.691   9.421  19.286  0.00  0.00    +0.000 C 
BRANCH  18  20
ATOM     19  O   UNL     1       2.271   9.456  17.444  0.00  0.00    +0.000 OA
ATOM     20  C   UNL     1       1.806   8.847  18.400  0.00  0.00    +0.000 C 
ATOM     21  N   UNL     1       2.158   7.522  18.723  0.00  0.00    +0.000 N 
ATOM     22  C   UNL     1       3.075   6.750  17.898  0.00  0.00    +0.000 C 
ATOM     23  C   UNL     1       3.130   5.364  18.545  0.00  0.00    +0.000 C 
ATOM     24  C   UNL     1       2.549   5.528  19.946  0.00  0.00    +0.000 C 
ATOM     25  C   UNL     1       2.197   6.999  20.077  0.00  0.00    +0.000 C 
ENDBRANCH  18  20
ENDBRANCH   1  18
TORSDOF 3
ENDMDL
MODEL 5
REMARK VINA RESULT:      -6.3      1.238      1.395
REMARK  Name = 
REMARK  3 active torsions:
REMARK  status: ('A' for Active; 'I' for Inactive)
REMARK    1  A    between atoms: C_2  and  C_3
REMARK    2  A    between atoms: C_3  and  C_4
REMARK    3  A    between atoms: C_11  and  C_13
REMARK                            x       y       z     vdW  Elec       q    Type
REMARK                         _______ _______ _______ _____ _____    ______ ____
ROOT
ATOM      1  C   UNL     1       2.930   4.056  19.622  0.00  0.00    +0.000 C 
ATOM      2  C   UNL     1       1.693   3.702  18.824  0.00  0.00    +0.000 C 
ATOM      3  O   UNL     1       1.271   4.685  17.888  0.00  0.00    +0.000 OA
ATOM      4  C   UNL     1       2.030   5.871  17.679  0.00  0.00    +0.000 C 
ATOM      5  C   UNL     1       2.828   6.445  18.862  0.00  0.00    +0.000 C 
ATOM      6  C   UNL     1       2.301   7.775  19.373  0.00  0.00    +0.000 C 
ATOM      7  N   UNL     1       1.421   7.448  20.472  0.00  0.00    +0.000 N 
ATOM      8  C   UNL     1       0.419   8.259  21.000  0.00  0.00    +0.000 C 
ATOM      9  O   UNL     1      -0.421   7.820  21.782  0.00  0.00    +0.000 OA
ATOM     10  C   UNL     1       1.516   6.018  20.801  0.00  0.00    +0.000 C 
ATOM     11  C   UNL     1       2.807   5.535  20.091  0.00  0.00    +0.000 C 
ENDROOT
BRANCH   8  12
ATOM     12  C   UNL     1       0.316   9.697  20.596  0.00  0.00    +0.000 A 
ATOM     13  C   UNL     1      -0.368  10.155  19.464  0.00  0.00    +0.000 A 
ATOM     14  C   UNL     1      -0.446  11.514  19.196  0.00  0.00    +0.000 A 
ATOM     15  C   UNL     1       0.209  12.393  20.045  0.00  0.00    +0.000 A 
ATOM     16  N   UNL     1       0.935  11.992  21.110  0.00  0.00    +0.000 NA
ATOM     17  C   UNL     1       0.973  10.650  21.366  0.00  0.00    +0.000 A 
ENDBRANCH   8  12
BRANCH   1  18
ATOM     18  C   UNL     1       4.230   3.893  18.786  0.00  0.00    +0.000 C 
BRANCH  18  20
ATOM     19  O   UNL     1       6.088   4.506  20.223  0.00  0.00    +0.000 OA
ATOM     20  C   UNL     1       5.568   4.570  19.115  0.00  0.00    +0.000 C 
ATOM     21  N   UNL     1       6.078   5.354  18.062  0.00  0.00    +0.000 N 
ATOM     22  C   UNL     1       7.248   6.203  18.234  0.00  0.00    +0.000 C 
ATOM     23  C   UNL     1       7.422   6.928  16.898  0.00  0.00    +0.000 C 
ATOM     24  C   UNL     1       6.577   6.158  15.887  0.00  0.00    +0.000 C 
ATOM     25  C   UNL     1       5.960   5.005  16.658  0.00  0.00    +0.000 C 
ENDBRANCH  18  20
ENDBRANCH   1  18
TORSDOF 3
ENDMDL
MODEL 6
REMARK VINA RESULT:      -6.2      3.755      6.885
REMARK  Name = 
REMARK  3 active torsions:
REMARK  status: ('A' for Active; 'I' for Inactive)
REMARK    1  A    between atoms: C_2  and  C_3
REMARK    2  A    between atoms: C_3  and  C_4
REMARK    3  A    between atoms: C_11  and  C_13
REMARK                            x       y       z     vdW  Elec       q    Type
REMARK                         _______ _______ _______ _____ _____    ______ ____
ROOT
ATOM      1  C   UNL     1       0.966  10.727  20.383  0.00  0.00    +0.000 C 
ATOM      2  C   UNL     1      -0.168  10.885  21.374  0.00  0.00    +0.000 C 
ATOM      3  O   UNL     1      -1.317  11.562  20.881  0.00  0.00    +0.000 OA
ATOM      4  C   UNL     1      -1.397  11.972  19.520  0.00  0.00    +0.000 C 
ATOM      5  C   UNL     1      -0.095  12.353  18.794  0.00  0.00    +0.000 C 
ATOM      6  C   UNL     1       0.007  13.828  18.447  0.00  0.00    +0.000 C 
ATOM      7  N   UNL     1       0.749  14.432  19.530  0.00  0.00    +0.000 N 
ATOM      8  C   UNL     1       0.766  15.783  19.869  0.00  0.00    +0.000 C 
ATOM      9  O   UNL     1       1.245  16.175  20.931  0.00  0.00    +0.000 OA
ATOM     10  C   UNL     1       1.280  13.398  20.431  0.00  0.00    +0.000 C 
ATOM     11  C   UNL     1       1.155  12.076  19.631  0.00  0.00    +0.000 C 
ENDROOT
BRANCH   8  12
ATOM     12  C   UNL     1       0.162  16.802  18.954  0.00  0.00    +0.000 A 
ATOM     13  C   UNL     1       0.835  17.408  17.887  0.00  0.00    +0.000 A 
ATOM     14  C   UNL     1       0.175  18.312  17.066  0.00  0.00    +0.000 A 
ATOM     15  C   UNL     1      -1.142  18.630  17.360  0.00  0.00    +0.000 A 
ATOM     16  N   UNL     1      -1.810  18.121  18.416  0.00  0.00    +0.000 NA
ATOM     17  C   UNL     1      -1.145  17.214  19.193  0.00  0.00    +0.000 A 
ENDBRANCH   8  12
BRANCH   1  18
ATOM     18  C   UNL     1       0.684   9.602  19.349  0.00  0.00    +0.000 C 
BRANCH  18  20
ATOM     19  O   UNL     1       2.194   9.539  17.449  0.00  0.00    +0.000 OA
ATOM     20  C   UNL     1       1.746   8.969  18.438  0.00  0.00    +0.000 C 
ATOM     21  N   UNL     1       2.068   7.642  18.782  0.00  0.00    +0.000 N 
ATOM     22  C   UNL     1       2.928   6.819  17.944  0.00  0.00    +0.000 C 
ATOM     23  C   UNL     1       2.963   5.449  18.625  0.00  0.00    +0.000 C 
ATOM     24  C   UNL     1       2.441   5.667  20.041  0.00  0.00    +0.000 C 
ATOM     25  C   UNL     1       2.141   7.152  20.147  0.00  0.00    +0.000 C 
ENDBRANCH  18  20
ENDBRANCH   1  18
TORSDOF 3
ENDMDL
MODEL 7
REMARK VINA RESULT:      -6.2      1.569      1.883
REMARK  Name = 
REMARK  3 active torsions:
REMARK  status: ('A' for Active; 'I' for Inactive)
REMARK    1  A    between atoms: C_2  and  C_3
REMARK    2  A    between atoms: C_3  and  C_4
REMARK    3  A    between atoms: C_11  and  C_13
REMARK                            x       y       z     vdW  Elec       q    Type
REMARK                         _______ _______ _______ _____ _____    ______ ____
ROOT
ATOM      1  C   UNL     1       3.217   5.066  19.535  0.00  0.00    +0.000 C 
ATOM      2  C   UNL     1       1.923   4.401  19.116  0.00  0.00    +0.000 C 
ATOM      3  O   UNL     1       1.202   5.067  18.087  0.00  0.00    +0.000 OA
ATOM      4  C   UNL     1       1.731   6.229  17.457  0.00  0.00    +0.000 C 
ATOM      5  C   UNL     1       2.634   7.160  18.283  0.00  0.00    +0.000 C 
ATOM      6  C   UNL     1       2.019   8.518  18.572  0.00  0.00    +0.000 C 
ATOM      7  N   UNL     1       1.405   8.398  19.875  0.00  0.00    +0.000 N 
ATOM      8  C   UNL     1       0.406   9.216  20.397  0.00  0.00    +0.000 C 
ATOM      9  O   UNL     1      -0.209   8.911  21.418  0.00  0.00    +0.000 OA
ATOM     10  C   UNL     1       1.765   7.116  20.497  0.00  0.00    +0.000 C 
ATOM     11  C   UNL     1       2.966   6.596  19.665  0.00  0.00    +0.000 C 
ENDROOT
BRANCH   8  12
ATOM     12  C   UNL     1       0.025  10.486  19.703  0.00  0.00    +0.000 A 
ATOM     13  C   UNL     1      -0.982  10.589  18.736  0.00  0.00    +0.000 A 
ATOM     14  C   UNL     1      -1.294  11.821  18.179  0.00  0.00    +0.000 A 
ATOM     15  C   UNL     1      -0.554  12.928  18.569  0.00  0.00    +0.000 A 
ATOM     16  N   UNL     1       0.468  12.863  19.448  0.00  0.00    +0.000 NA
ATOM     17  C   UNL     1       0.737  11.643  20.000  0.00  0.00    +0.000 A 
ENDBRANCH   8  12
BRANCH   1  18
ATOM     18  C   UNL     1       4.357   4.822  18.508  0.00  0.00    +0.000 C 
BRANCH  18  20
ATOM     19  O   UNL     1       6.383   3.907  19.483  0.00  0.00    +0.000 OA
ATOM     20  C   UNL     1       5.854   4.814  18.851  0.00  0.00    +0.000 C 
ATOM     21  N   UNL     1       6.527   5.991  18.470  0.00  0.00    +0.000 N 
ATOM     22  C   UNL     1       7.908   6.243  18.854  0.00  0.00    +0.000 C 
ATOM     23  C   UNL     1       8.230   7.638  18.313  0.00  0.00    +0.000 C 
ATOM     24  C   UNL     1       7.140   7.957  17.294  0.00  0.00    +0.000 C 
ATOM     25  C   UNL     1       6.237   6.737  17.259  0.00  0.00    +0.000 C 
ENDBRANCH  18  20
ENDBRANCH   1  18
TORSDOF 3
ENDMDL
MODEL 8
REMARK VINA RESULT:      -6.1      2.611      8.268
REMARK  Name = 
REMARK  3 active torsions:
REMARK  status: ('A' for Active; 'I' for Inactive)
REMARK    1  A    between atoms: C_2  and  C_3
REMARK    2  A    between atoms: C_3  and  C_4
REMARK    3  A    between atoms: C_11  and  C_13
REMARK                            x       y       z     vdW  Elec       q    Type
REMARK                         _______ _______ _______ _____ _____    ______ ____
ROOT
ATOM      1  C   UNL     1      -0.594  11.222  20.309  0.00  0.00    +0.000 C 
ATOM      2  C   UNL     1       0.629  11.883  20.909  0.00  0.00    +0.000 C 
ATOM      3  O   UNL     1       1.769  11.937  20.061  0.00  0.00    +0.000 OA
ATOM      4  C   UNL     1       1.705  11.470  18.717  0.00  0.00    +0.000 C 
ATOM      5  C   UNL     1       0.745  10.314  18.391  0.00  0.00    +0.000 C 
ATOM      6  C   UNL     1       1.444   9.021  18.010  0.00  0.00    +0.000 C 
ATOM      7  N   UNL     1       1.529   8.251  19.231  0.00  0.00    +0.000 N 
ATOM      8  C   UNL     1       2.406   7.199  19.486  0.00  0.00    +0.000 C 
ATOM      9  O   UNL     1       2.560   6.748  20.619  0.00  0.00    +0.000 OA
ATOM     10  C   UNL     1       0.758   8.897  20.303  0.00  0.00    +0.000 C 
ATOM     11  C   UNL     1      -0.144   9.927  19.574  0.00  0.00    +0.000 C 
ENDROOT
BRANCH   8  12
ATOM     12  C   UNL     1       3.221   6.605  18.379  0.00  0.00    +0.000 A 
ATOM     13  C   UNL     1       4.128   7.322  17.590  0.00  0.00    +0.000 A 
ATOM     14  C   UNL     1       4.871   6.673  16.614  0.00  0.00    +0.000 A 
ATOM     15  C   UNL     1       4.657   5.318  16.414  0.00  0.00    +0.000 A 
ATOM     16  N   UNL     1       3.747   4.601  17.106  0.00  0.00    +0.000 NA
ATOM     17  C   UNL     1       3.047   5.259  18.078  0.00  0.00    +0.000 A 
ENDBRANCH   8  12
BRANCH   1  18
ATOM     18  C   UNL     1      -1.324  12.153  19.300  0.00  0.00    +0.000 C 
BRANCH  18  20
ATOM     19  O   UNL     1      -3.709  12.398  19.677  0.00  0.00    +0.000 OA
ATOM     20  C   UNL     1      -2.809  12.039  18.927  0.00  0.00    +0.000 C 
ATOM     21  N   UNL     1      -3.034  11.388  17.698  0.00  0.00    +0.000 N 
ATOM     22  C   UNL     1      -4.374  11.039  17.250  0.00  0.00    +0.000 C 
ATOM     23  C   UNL     1      -4.176  10.293  15.928  0.00  0.00    +0.000 C 
ATOM     24  C   UNL     1      -2.751  10.601  15.479  0.00  0.00    +0.000 C 
ATOM     25  C   UNL     1      -2.176  11.528  16.536  0.00  0.00    +0.000 C 
ENDBRANCH  18  20
ENDBRANCH   1  18
TORSDOF 3
ENDMDL
MODEL 9
REMARK VINA RESULT:      -6.1      2.237      4.197
REMARK  Name = 
REMARK  3 active torsions:
REMARK  status: ('A' for Active; 'I' for Inactive)
REMARK    1  A    between atoms: C_2  and  C_3
REMARK    2  A    between atoms: C_3  and  C_4
REMARK    3  A    between atoms: C_11  and  C_13
REMARK                            x       y       z     vdW  Elec       q    Type
REMARK                         _______ _______ _______ _____ _____    ______ ____
ROOT
ATOM      1  C   UNL     1       4.136   5.079  17.001  0.00  0.00    +0.000 C 
ATOM      2  C   UNL     1       5.412   5.820  17.340  0.00  0.00    +0.000 C 
ATOM      3  O   UNL     1       5.530   6.241  18.692  0.00  0.00    +0.000 OA
ATOM      4  C   UNL     1       4.539   5.898  19.655  0.00  0.00    +0.000 C 
ATOM      5  C   UNL     1       3.084   5.740  19.180  0.00  0.00    +0.000 C 
ATOM      6  C   UNL     1       2.145   6.812  19.706  0.00  0.00    +0.000 C 
ATOM      7  N   UNL     1       2.090   7.821  18.673  0.00  0.00    +0.000 N 
ATOM      8  C   UNL     1       1.694   9.147  18.832  0.00  0.00    +0.000 C 
ATOM      9  O   UNL     1       1.887   9.987  17.955  0.00  0.00    +0.000 OA
ATOM     10  C   UNL     1       2.781   7.357  17.461  0.00  0.00    +0.000 C 
ATOM     11  C   UNL     1       2.942   5.827  17.660  0.00  0.00    +0.000 C 
ENDROOT
BRANCH   8  12
ATOM     12  C   UNL     1       1.048   9.598  20.104  0.00  0.00    +0.000 A 
ATOM     13  C   UNL     1       0.396   8.749  21.007  0.00  0.00    +0.000 A 
ATOM     14  C   UNL     1      -0.136   9.256  22.184  0.00  0.00    +0.000 A 
ATOM     15  C   UNL     1      -0.047  10.620  22.415  0.00  0.00    +0.000 A 
ATOM     16  N   UNL     1       0.514  11.484  21.543  0.00  0.00    +0.000 NA
ATOM     17  C   UNL     1       1.052  10.956  20.404  0.00  0.00    +0.000 A 
ENDBRANCH   8  12
BRANCH   1  18
ATOM     18  C   UNL     1       4.161   3.611  17.510  0.00  0.00    +0.000 C 
BRANCH  18  20
ATOM     19  O   UNL     1       2.218   2.272  16.940  0.00  0.00    +0.000 OA
ATOM     20  C   UNL     1       2.912   2.773  17.817  0.00  0.00    +0.000 C 
ATOM     21  N   UNL     1       2.583   2.731  19.186  0.00  0.00    +0.000 N 
ATOM     22  C   UNL     1       1.346   2.127  19.659  0.00  0.00    +0.000 C 
ATOM     23  C   UNL     1       1.339   2.353  21.173  0.00  0.00    +0.000 C 
ATOM     24  C   UNL     1       2.770   2.725  21.550  0.00  0.00    +0.000 C 
ATOM     25  C   UNL     1       3.562   2.683  20.256  0.00  0.00    +0.000 C 
ENDBRANCH  18  20
ENDBRANCH   1  18
TORSDOF 3
ENDMDL
