MODEL 1
REMARK VINA RESULT:      -7.2      0.000      0.000
REMARK  Name = 
REMARK  5 active torsions:
REMARK  status: ('A' for Active; 'I' for Inactive)
REMARK    1  A    between atoms: C_1  and  C_2
REMARK    2  A    between atoms: N_8  and  S_9
REMARK    3  A    between atoms: S_9  and  C_12
REMARK    4  A    between atoms: N_19  and  S_20
REMARK    5  A    between atoms: S_20  and  C_23
REMARK                            x       y       z     vdW  Elec       q    Type
REMARK                         _______ _______ _______ _____ _____    ______ ____
ROOT
ATOM      1  C   UNL     1       1.522   8.761  18.737  0.00  0.00    +0.000 C 
ATOM      2  C   UNL     1       2.574   7.853  18.161  0.00  0.00    +0.000 A 
ATOM      3  C   UNL     1       3.762   8.380  17.618  0.00  0.00    +0.000 A 
ATOM      4  C   UNL     1       4.733   7.548  17.039  0.00  0.00    +0.000 A 
ATOM      5  C   UNL     1       4.523   6.181  17.048  0.00  0.00    +0.000 A 
ATOM      6  C   UNL     1       3.329   5.662  17.560  0.00  0.00    +0.000 A 
ATOM      7  C   UNL     1       2.354   6.472  18.121  0.00  0.00    +0.000 A 
ATOM      8  N   UNL     1       3.351   4.249  17.409  0.00  0.00    +0.000 N 
ATOM      9  C   UNL     1       4.529   3.945  16.711  0.00  0.00    +0.000 A 
ATOM     10  O   UNL     1       4.887   2.825  16.393  0.00  0.00    +0.000 OA
ATOM     11  N   UNL     1       5.258   5.123  16.434  0.00  0.00    +0.000 N 
ENDROOT
BRANCH   8  12
ATOM     12  S   UNL     1       2.115   3.220  17.765  0.00  0.00    +0.000 S 
ATOM     13  O   UNL     1       0.849   3.838  17.437  0.00  0.00    +0.000 OA
ATOM     14  O   UNL     1       2.420   1.901  17.259  0.00  0.00    +0.000 OA
BRANCH  12  15
ATOM     15  C   UNL     1       1.993   2.973  19.533  0.00  0.00    +0.000 A 
ATOM     16  C   UNL     1       0.905   3.065  20.384  0.00  0.00    +0.000 A 
ATOM     17  C   UNL     1       1.265   2.883  21.750  0.00  0.00    +0.000 A 
ATOM     18  C   UNL     1       2.608   2.620  21.896  0.00  0.00    +0.000 A 
ATOM     19  S   UNL     1       3.423   2.599  20.392  0.00  0.00    +0.000 S 
ENDBRANCH  12  15
ENDBRANCH   8  12
BRANCH  11  20
ATOM     20  S   UNL     1       6.853   5.124  15.998  0.00  0.00    +0.000 S 
ATOM     21  O   UNL     1       7.389   6.463  16.103  0.00  0.00    +0.000 OA
ATOM     22  O   UNL     1       7.543   4.012  16.626  0.00  0.00    +0.000 OA
BRANCH  20  23
ATOM     23  C   UNL     1       6.976   4.772  14.295  0.00  0.00    +0.000 A 
ATOM     24  C   UNL     1       6.209   3.767  13.623  0.00  0.00    +0.000 A 
ATOM     25  C   UNL     1       6.550   3.661  12.291  0.00  0.00    +0.000 A 
ATOM     26  S   UNL     1       7.730   4.816  11.837  0.00  0.00    +0.000 S 
ATOM     27  C   UNL     1       7.812   5.443  13.428  0.00  0.00    +0.000 A 
ENDBRANCH  20  23
ENDBRANCH  11  20
TORSDOF 4
ENDMDL
MODEL 2
REMARK VINA RESULT:      -7.2      0.744      1.132
REMARK  Name = 
REMARK  5 active torsions:
REMARK  status: ('A' for Active; 'I' for Inactive)
REMARK    1  A    between atoms: C_1  and  C_2
REMARK    2  A    between atoms: N_8  and  S_9
REMARK    3  A    between atoms: S_9  and  C_12
REMARK    4  A    between atoms: N_19  and  S_20
REMARK    5  A    between atoms: S_20  and  C_23
REMARK                            x       y       z     vdW  Elec       q    Type
REMARK                         _______ _______ _______ _____ _____    ______ ____
ROOT
ATOM      1  C   UNL     1       1.486   8.595  18.661  0.00  0.00    +0.000 C 
ATOM      2  C   UNL     1       2.580   7.726  18.106  0.00  0.00    +0.000 A 
ATOM      3  C   UNL     1       3.733   8.296  17.533  0.00  0.00    +0.000 A 
ATOM      4  C   UNL     1       4.743   7.498  16.972  0.00  0.00    +0.000 A 
ATOM      5  C   UNL     1       4.606   6.122  17.029  0.00  0.00    +0.000 A 
ATOM      6  C   UNL     1       3.446   5.558  17.571  0.00  0.00    +0.000 A 
ATOM      7  C   UNL     1       2.434   6.333  18.114  0.00  0.00    +0.000 A 
ATOM      8  N   UNL     1       3.543   4.144  17.467  0.00  0.00    +0.000 N 
ATOM      9  C   UNL     1       4.729   3.880  16.766  0.00  0.00    +0.000 A 
ATOM     10  O   UNL     1       5.144   2.770  16.483  0.00  0.00    +0.000 OA
ATOM     11  N   UNL     1       5.392   5.085  16.443  0.00  0.00    +0.000 N 
ENDROOT
BRANCH   8  12
ATOM     12  S   UNL     1       2.367   3.064  17.870  0.00  0.00    +0.000 S 
ATOM     13  O   UNL     1       1.072   3.573  17.475  0.00  0.00    +0.000 OA
ATOM     14  O   UNL     1       2.768   1.735  17.464  0.00  0.00    +0.000 OA
BRANCH  12  15
ATOM     15  C   UNL     1       2.219   2.932  19.648  0.00  0.00    +0.000 A 
ATOM     16  C   UNL     1       3.140   2.536  20.603  0.00  0.00    +0.000 A 
ATOM     17  C   UNL     1       2.577   2.481  21.911  0.00  0.00    +0.000 A 
ATOM     18  C   UNL     1       1.258   2.874  21.919  0.00  0.00    +0.000 A 
ATOM     19  S   UNL     1       0.706   3.298  20.357  0.00  0.00    +0.000 S 
ENDBRANCH  12  15
ENDBRANCH   8  12
BRANCH  11  20
ATOM     20  S   UNL     1       6.981   5.157  15.990  0.00  0.00    +0.000 S 
ATOM     21  O   UNL     1       7.461   6.516  16.101  0.00  0.00    +0.000 OA
ATOM     22  O   UNL     1       7.723   4.069  16.601  0.00  0.00    +0.000 OA
BRANCH  20  23
ATOM     23  C   UNL     1       7.100   4.824  14.282  0.00  0.00    +0.000 A 
ATOM     24  C   UNL     1       7.953   5.538  13.381  0.00  0.00    +0.000 A 
ATOM     25  C   UNL     1       7.804   5.107  12.079  0.00  0.00    +0.000 A 
ATOM     26  S   UNL     1       6.702   3.803  11.957  0.00  0.00    +0.000 S 
ATOM     27  C   UNL     1       6.396   3.827  13.641  0.00  0.00    +0.000 A 
ENDBRANCH  20  23
ENDBRANCH  11  20
TORSDOF 4
ENDMDL
MODEL 3
REMARK VINA RESULT:      -7.1      9.098     12.365
REMARK  Name = 
REMARK  5 active torsions:
REMARK  status: ('A' for Active; 'I' for Inactive)
REMARK    1  A    between atoms: C_1  and  C_2
REMARK    2  A    between atoms: N_8  and  S_9
REMARK    3  A    between atoms: S_9  and  C_12
REMARK    4  A    between atoms: N_19  and  S_20
REMARK    5  A    between atoms: S_20  and  C_23
REMARK                            x       y       z     vdW  Elec       q    Type
REMARK                         _______ _______ _______ _____ _____    ______ ____
ROOT
ATOM      1  C   UNL     1      -3.868  10.006  14.742  0.00  0.00    +0.000 C 
ATOM      2  C   UNL     1      -3.478  10.579  16.076  0.00  0.00    +0.000 A 
ATOM      3  C   UNL     1      -2.164  10.440  16.563  0.00  0.00    +0.000 A 
ATOM      4  C   UNL     1      -1.797  10.932  17.826  0.00  0.00    +0.000 A 
ATOM      5  C   UNL     1      -2.747  11.603  18.576  0.00  0.00    +0.000 A 
ATOM      6  C   UNL     1      -4.059  11.713  18.103  0.00  0.00    +0.000 A 
ATOM      7  C   UNL     1      -4.440  11.219  16.866  0.00  0.00    +0.000 A 
ATOM      8  N   UNL     1      -4.832  12.401  19.078  0.00  0.00    +0.000 N 
ATOM      9  C   UNL     1      -3.986  12.609  20.177  0.00  0.00    +0.000 A 
ATOM     10  O   UNL     1      -4.305  13.169  21.211  0.00  0.00    +0.000 OA
ATOM     11  N   UNL     1      -2.698  12.090  19.916  0.00  0.00    +0.000 N 
ENDROOT
BRANCH   8  12
ATOM     12  S   UNL     1      -6.456  12.665  19.011  0.00  0.00    +0.000 S 
ATOM     13  O   UNL     1      -7.101  11.594  18.284  0.00  0.00    +0.000 OA
ATOM     14  O   UNL     1      -6.942  13.036  20.321  0.00  0.00    +0.000 OA
BRANCH  12  15
ATOM     15  C   UNL     1      -6.818  14.102  18.007  0.00  0.00    +0.000 A 
ATOM     16  C   UNL     1      -7.071  14.214  16.651  0.00  0.00    +0.000 A 
ATOM     17  C   UNL     1      -7.217  15.569  16.235  0.00  0.00    +0.000 A 
ATOM     18  C   UNL     1      -7.110  16.444  17.292  0.00  0.00    +0.000 A 
ATOM     19  S   UNL     1      -6.830  15.632  18.771  0.00  0.00    +0.000 S 
ENDBRANCH  12  15
ENDBRANCH   8  12
BRANCH  11  20
ATOM     20  S   UNL     1      -1.357  12.500  20.793  0.00  0.00    +0.000 S 
ATOM     21  O   UNL     1      -0.315  12.963  19.905  0.00  0.00    +0.000 OA
ATOM     22  O   UNL     1      -1.739  13.295  21.946  0.00  0.00    +0.000 OA
BRANCH  20  23
ATOM     23  C   UNL     1      -0.677  11.058  21.498  0.00  0.00    +0.000 A 
ATOM     24  C   UNL     1      -0.832  10.683  22.871  0.00  0.00    +0.000 A 
ATOM     25  C   UNL     1      -0.140   9.528  23.173  0.00  0.00    +0.000 A 
ATOM     26  S   UNL     1       0.625   8.861  21.795  0.00  0.00    +0.000 S 
ATOM     27  C   UNL     1       0.060  10.130  20.794  0.00  0.00    +0.000 A 
ENDBRANCH  20  23
ENDBRANCH  11  20
TORSDOF 4
ENDMDL
MODEL 4
REMARK VINA RESULT:      -6.9      9.172     12.890
REMARK  Name = 
REMARK  5 active torsions:
REMARK  status: ('A' for Active; 'I' for Inactive)
REMARK    1  A    between atoms: C_1  and  C_2
REMARK    2  A    between atoms: N_8  and  S_9
REMARK    3  A    between atoms: S_9  and  C_12
REMARK    4  A    between atoms: N_19  and  S_20
REMARK    5  A    between atoms: S_20  and  C_23
REMARK                            x       y       z     vdW  Elec       q    Type
REMARK                         _______ _______ _______ _____ _____    ______ ____
ROOT
ATOM      1  C   UNL     1      -2.805  10.488  15.227  0.00  0.00    +0.000 C 
ATOM      2  C   UNL     1      -3.375  11.014  16.515  0.00  0.00    +0.000 A 
ATOM      3  C   UNL     1      -4.755  11.259  16.646  0.00  0.00    +0.000 A 
ATOM      4  C   UNL     1      -5.295  11.790  17.828  0.00  0.00    +0.000 A 
ATOM      5  C   UNL     1      -4.445  12.032  18.893  0.00  0.00    +0.000 A 
ATOM      6  C   UNL     1      -3.070  11.817  18.750  0.00  0.00    +0.000 A 
ATOM      7  C   UNL     1      -2.521  11.308  17.585  0.00  0.00    +0.000 A 
ATOM      8  N   UNL     1      -2.429  12.184  19.965  0.00  0.00    +0.000 N 
ATOM      9  C   UNL     1      -3.429  12.713  20.794  0.00  0.00    +0.000 A 
ATOM     10  O   UNL     1      -3.252  13.138  21.922  0.00  0.00    +0.000 OA
ATOM     11  N   UNL     1      -4.683  12.673  20.145  0.00  0.00    +0.000 N 
ENDROOT
BRANCH   8  12
ATOM     12  S   UNL     1      -0.804  12.208  20.230  0.00  0.00    +0.000 S 
ATOM     13  O   UNL     1      -0.101  11.842  19.020  0.00  0.00    +0.000 OA
ATOM     14  O   UNL     1      -0.444  13.422  20.928  0.00  0.00    +0.000 OA
BRANCH  12  15
ATOM     15  C   UNL     1      -0.334  10.913  21.372  0.00  0.00    +0.000 A 
ATOM     16  C   UNL     1      -0.732  10.673  22.677  0.00  0.00    +0.000 A 
ATOM     17  C   UNL     1      -0.035   9.578  23.265  0.00  0.00    +0.000 A 
ATOM     18  C   UNL     1       0.841   8.993  22.380  0.00  0.00    +0.000 A 
ATOM     19  S   UNL     1       0.824   9.767  20.855  0.00  0.00    +0.000 S 
ENDBRANCH  12  15
ENDBRANCH   8  12
BRANCH  11  20
ATOM     20  S   UNL     1      -6.125  12.828  20.941  0.00  0.00    +0.000 S 
ATOM     21  O   UNL     1      -7.182  13.092  19.991  0.00  0.00    +0.000 OA
ATOM     22  O   UNL     1      -6.272  11.766  21.919  0.00  0.00    +0.000 OA
BRANCH  20  23
ATOM     23  C   UNL     1      -6.084  14.276  21.913  0.00  0.00    +0.000 A 
ATOM     24  C   UNL     1      -6.323  14.305  23.324  0.00  0.00    +0.000 A 
ATOM     25  C   UNL     1      -6.288  15.588  23.828  0.00  0.00    +0.000 A 
ATOM     26  S   UNL     1      -5.891  16.739  22.623  0.00  0.00    +0.000 S 
ATOM     27  C   UNL     1      -5.795  15.529  21.416  0.00  0.00    +0.000 A 
ENDBRANCH  20  23
ENDBRANCH  11  20
TORSDOF 4
ENDMDL
MODEL 5
REMARK VINA RESULT:      -6.7      8.521     12.289
REMARK  Name = 
REMARK  5 active torsions:
REMARK  status: ('A' for Active; 'I' for Inactive)
REMARK    1  A    between atoms: C_1  and  C_2
REMARK    2  A    between atoms: N_8  and  S_9
REMARK    3  A    between atoms: S_9  and  C_12
REMARK    4  A    between atoms: N_19  and  S_20
REMARK    5  A    between atoms: S_20  and  C_23
REMARK                            x       y       z     vdW  Elec       q    Type
REMARK                         _______ _______ _______ _____ _____    ______ ____
ROOT
ATOM      1  C   UNL     1      -2.856  10.899  15.584  0.00  0.00    +0.000 C 
ATOM      2  C   UNL     1      -2.985  11.310  17.025  0.00  0.00    +0.000 A 
ATOM      3  C   UNL     1      -4.252  11.510  17.606  0.00  0.00    +0.000 A 
ATOM      4  C   UNL     1      -4.387  11.934  18.938  0.00  0.00    +0.000 A 
ATOM      5  C   UNL     1      -3.242  12.114  19.694  0.00  0.00    +0.000 A 
ATOM      6  C   UNL     1      -1.984  11.945  19.105  0.00  0.00    +0.000 A 
ATOM      7  C   UNL     1      -1.835  11.541  17.789  0.00  0.00    +0.000 A 
ATOM      8  N   UNL     1      -0.989  12.232  20.080  0.00  0.00    +0.000 N 
ATOM      9  C   UNL     1      -1.673  12.670  21.223  0.00  0.00    +0.000 A 
ATOM     10  O   UNL     1      -1.146  13.011  22.268  0.00  0.00    +0.000 OA
ATOM     11  N   UNL     1      -3.068  12.650  21.005  0.00  0.00    +0.000 N 
ENDROOT
BRANCH   8  12
ATOM     12  S   UNL     1       0.636  12.275  19.817  0.00  0.00    +0.000 S 
ATOM     13  O   UNL     1       0.932  13.148  18.702  0.00  0.00    +0.000 OA
ATOM     14  O   UNL     1       1.326  12.459  21.074  0.00  0.00    +0.000 OA
BRANCH  12  15
ATOM     15  C   UNL     1       1.222  10.684  19.245  0.00  0.00    +0.000 A 
ATOM     16  C   UNL     1       1.788  10.312  18.037  0.00  0.00    +0.000 A 
ATOM     17  C   UNL     1       2.026   8.909  17.958  0.00  0.00    +0.000 A 
ATOM     18  C   UNL     1       1.673   8.262  19.120  0.00  0.00    +0.000 A 
ATOM     19  S   UNL     1       1.053   9.343  20.292  0.00  0.00    +0.000 S 
ENDBRANCH  12  15
ENDBRANCH   8  12
BRANCH  11  20
ATOM     20  S   UNL     1      -4.182  12.708  22.226  0.00  0.00    +0.000 S 
ATOM     21  O   UNL     1      -5.486  12.346  21.718  0.00  0.00    +0.000 OA
ATOM     22  O   UNL     1      -3.655  12.058  23.413  0.00  0.00    +0.000 OA
BRANCH  20  23
ATOM     23  C   UNL     1      -4.389  14.365  22.727  0.00  0.00    +0.000 A 
ATOM     24  C   UNL     1      -3.606  15.004  23.741  0.00  0.00    +0.000 A 
ATOM     25  C   UNL     1      -4.022  16.298  23.978  0.00  0.00    +0.000 A 
ATOM     26  S   UNL     1      -5.296  16.762  22.932  0.00  0.00    +0.000 S 
ATOM     27  C   UNL     1      -5.317  15.225  22.178  0.00  0.00    +0.000 A 
ENDBRANCH  20  23
ENDBRANCH  11  20
TORSDOF 4
ENDMDL
MODEL 6
REMARK VINA RESULT:      -6.7      2.690      4.207
REMARK  Name = 
REMARK  5 active torsions:
REMARK  status: ('A' for Active; 'I' for Inactive)
REMARK    1  A    between atoms: C_1  and  C_2
REMARK    2  A    between atoms: N_8  and  S_9
REMARK    3  A    between atoms: S_9  and  C_12
REMARK    4  A    between atoms: N_19  and  S_20
REMARK    5  A    between atoms: S_20  and  C_23
REMARK                            x       y       z     vdW  Elec       q    Type
REMARK                         _______ _______ _______ _____ _____    ______ ____
ROOT
ATOM      1  C   UNL     1       1.066   3.135  20.742  0.00  0.00    +0.000 C 
ATOM      2  C   UNL     1       2.227   3.750  20.011  0.00  0.00    +0.000 A 
ATOM      3  C   UNL     1       3.480   3.109  19.978  0.00  0.00    +0.000 A 
ATOM      4  C   UNL     1       4.584   3.692  19.335  0.00  0.00    +0.000 A 
ATOM      5  C   UNL     1       4.409   4.904  18.689  0.00  0.00    +0.000 A 
ATOM      6  C   UNL     1       3.171   5.554  18.750  0.00  0.00    +0.000 A 
ATOM      7  C   UNL     1       2.077   4.998  19.393  0.00  0.00    +0.000 A 
ATOM      8  N   UNL     1       3.276   6.786  18.048  0.00  0.00    +0.000 N 
ATOM      9  C   UNL     1       4.618   6.904  17.658  0.00  0.00    +0.000 A 
ATOM     10  O   UNL     1       5.087   7.841  17.035  0.00  0.00    +0.000 OA
ATOM     11  N   UNL     1       5.357   5.775  18.076  0.00  0.00    +0.000 N 
ENDROOT
BRANCH   8  12
ATOM     12  S   UNL     1       2.107   7.941  17.946  0.00  0.00    +0.000 S 
ATOM     13  O   UNL     1       2.643   9.133  17.329  0.00  0.00    +0.000 OA
ATOM     14  O   UNL     1       0.888   7.355  17.434  0.00  0.00    +0.000 OA
BRANCH  12  15
ATOM     15  C   UNL     1       1.643   8.510  19.578  0.00  0.00    +0.000 A 
ATOM     16  C   UNL     1       1.769   7.902  20.816  0.00  0.00    +0.000 A 
ATOM     17  C   UNL     1       1.177   8.668  21.862  0.00  0.00    +0.000 A 
ATOM     18  C   UNL     1       0.655   9.853  21.396  0.00  0.00    +0.000 A 
ATOM     19  S   UNL     1       0.874  10.032  19.709  0.00  0.00    +0.000 S 
ENDBRANCH  12  15
ENDBRANCH   8  12
BRANCH  11  20
ATOM     20  S   UNL     1       6.840   5.379  17.459  0.00  0.00    +0.000 S 
ATOM     21  O   UNL     1       7.658   6.566  17.352  0.00  0.00    +0.000 OA
ATOM     22  O   UNL     1       7.355   4.194  18.121  0.00  0.00    +0.000 OA
BRANCH  20  23
ATOM     23  C   UNL     1       6.648   4.869  15.802  0.00  0.00    +0.000 A 
ATOM     24  C   UNL     1       5.550   4.084  15.323  0.00  0.00    +0.000 A 
ATOM     25  C   UNL     1       5.682   3.775  13.985  0.00  0.00    +0.000 A 
ATOM     26  S   UNL     1       7.076   4.491  13.296  0.00  0.00    +0.000 S 
ATOM     27  C   UNL     1       7.527   5.193  14.791  0.00  0.00    +0.000 A 
ENDBRANCH  20  23
ENDBRANCH  11  20
TORSDOF 4
ENDMDL
MODEL 7
REMARK VINA RESULT:      -6.6      8.253     11.874
REMARK  Name = 
REMARK  5 active torsions:
REMARK  status: ('A' for Active; 'I' for Inactive)
REMARK    1  A    between atoms: C_1  and  C_2
REMARK    2  A    between atoms: N_8  and  S_9
REMARK    3  A    between atoms: S_9  and  C_12
REMARK    4  A    between atoms: N_19  and  S_20
REMARK    5  A    between atoms: S_20  and  C_23
REMARK                            x       y       z     vdW  Elec       q    Type
REMARK                         _______ _______ _______ _____ _____    ______ ____
ROOT
ATOM      1  C   UNL     1       1.818   8.554  17.763  0.00  0.00    +0.000 C 
ATOM      2  C   UNL     1       0.991   9.574  18.496  0.00  0.00    +0.000 A 
ATOM      3  C   UNL     1       1.497  10.228  19.636  0.00  0.00    +0.000 A 
ATOM      4  C   UNL     1       0.720  11.150  20.355  0.00  0.00    +0.000 A 
ATOM      5  C   UNL     1      -0.552  11.444  19.896  0.00  0.00    +0.000 A 
ATOM      6  C   UNL     1      -1.063  10.770  18.781  0.00  0.00    +0.000 A 
ATOM      7  C   UNL     1      -0.315   9.846  18.070  0.00  0.00    +0.000 A 
ATOM      8  N   UNL     1      -2.391  11.224  18.552  0.00  0.00    +0.000 N 
ATOM      9  C   UNL     1      -2.695  12.100  19.604  0.00  0.00    +0.000 A 
ATOM     10  O   UNL     1      -3.755  12.684  19.746  0.00  0.00    +0.000 OA
ATOM     11  N   UNL     1      -1.592  12.227  20.478  0.00  0.00    +0.000 N 
ENDROOT
BRANCH   8  12
ATOM     12  S   UNL     1      -3.431  10.635  17.419  0.00  0.00    +0.000 S 
ATOM     13  O   UNL     1      -3.030  11.080  16.102  0.00  0.00    +0.000 OA
ATOM     14  O   UNL     1      -3.664   9.228  17.659  0.00  0.00    +0.000 OA
BRANCH  12  15
ATOM     15  C   UNL     1      -5.051  11.368  17.612  0.00  0.00    +0.000 A 
ATOM     16  C   UNL     1      -5.617  12.479  17.010  0.00  0.00    +0.000 A 
ATOM     17  C   UNL     1      -6.912  12.777  17.524  0.00  0.00    +0.000 A 
ATOM     18  C   UNL     1      -7.309  11.863  18.473  0.00  0.00    +0.000 A 
ATOM     19  S   UNL     1      -6.123  10.660  18.741  0.00  0.00    +0.000 S 
ENDBRANCH  12  15
ENDBRANCH   8  12
BRANCH  11  20
ATOM     20  S   UNL     1      -1.438  13.453  21.577  0.00  0.00    +0.000 S 
ATOM     21  O   UNL     1      -0.331  13.178  22.465  0.00  0.00    +0.000 OA
ATOM     22  O   UNL     1      -1.533  14.738  20.906  0.00  0.00    +0.000 OA
BRANCH  20  23
ATOM     23  C   UNL     1      -2.821  13.443  22.638  0.00  0.00    +0.000 A 
ATOM     24  C   UNL     1      -3.155  12.362  23.515  0.00  0.00    +0.000 A 
ATOM     25  C   UNL     1      -4.333  12.593  24.196  0.00  0.00    +0.000 A 
ATOM     26  S   UNL     1      -4.988  14.134  23.838  0.00  0.00    +0.000 S 
ATOM     27  C   UNL     1      -3.715  14.487  22.747  0.00  0.00    +0.000 A 
ENDBRANCH  20  23
ENDBRANCH  11  20
TORSDOF 4
ENDMDL
MODEL 8
REMARK VINA RESULT:      -6.6      8.471     12.137
REMARK  Name = 
REMARK  5 active torsions:
REMARK  status: ('A' for Active; 'I' for Inactive)
REMARK    1  A    between atoms: C_1  and  C_2
REMARK    2  A    between atoms: N_8  and  S_9
REMARK    3  A    between atoms: S_9  and  C_12
REMARK    4  A    between atoms: N_19  and  S_20
REMARK    5  A    between atoms: S_20  and  C_23
REMARK                            x       y       z     vdW  Elec       q    Type
REMARK                         _______ _______ _______ _____ _____    ______ ____
ROOT
ATOM      1  C   UNL     1      -2.759  10.221  15.545  0.00  0.00    +0.000 C 
ATOM      2  C   UNL     1      -2.979  10.820  16.907  0.00  0.00    +0.000 A 
ATOM      3  C   UNL     1      -4.270  11.183  17.335  0.00  0.00    +0.000 A 
ATOM      4  C   UNL     1      -4.485  11.783  18.586  0.00  0.00    +0.000 A 
ATOM      5  C   UNL     1      -3.398  11.975  19.422  0.00  0.00    +0.000 A 
ATOM      6  C   UNL     1      -2.112  11.642  18.982  0.00  0.00    +0.000 A 
ATOM      7  C   UNL     1      -1.884  11.064  17.744  0.00  0.00    +0.000 A 
ATOM      8  N   UNL     1      -1.186  11.979  20.006  0.00  0.00    +0.000 N 
ATOM      9  C   UNL     1      -1.927  12.608  21.017  0.00  0.00    +0.000 A 
ATOM     10  O   UNL     1      -1.466  13.041  22.059  0.00  0.00    +0.000 OA
ATOM     11  N   UNL     1      -3.295  12.660  20.669  0.00  0.00    +0.000 N 
ENDROOT
BRANCH   8  12
ATOM     12  S   UNL     1       0.454  11.872  19.898  0.00  0.00    +0.000 S 
ATOM     13  O   UNL     1       0.902  12.425  18.639  0.00  0.00    +0.000 OA
ATOM     14  O   UNL     1       1.053  12.325  21.133  0.00  0.00    +0.000 OA
BRANCH  12  15
ATOM     15  C   UNL     1       0.966  10.161  19.787  0.00  0.00    +0.000 A 
ATOM     16  C   UNL     1       0.971   9.158  20.741  0.00  0.00    +0.000 A 
ATOM     17  C   UNL     1       1.556   7.951  20.258  0.00  0.00    +0.000 A 
ATOM     18  C   UNL     1       1.941   8.059  18.941  0.00  0.00    +0.000 A 
ATOM     19  S   UNL     1       1.603   9.609  18.300  0.00  0.00    +0.000 S 
ENDBRANCH  12  15
ENDBRANCH   8  12
BRANCH  11  20
ATOM     20  S   UNL     1      -4.502  12.953  21.762  0.00  0.00    +0.000 S 
ATOM     21  O   UNL     1      -5.788  12.855  21.109  0.00  0.00    +0.000 OA
ATOM     22  O   UNL     1      -4.250  12.222  22.991  0.00  0.00    +0.000 OA
BRANCH  20  23
ATOM     23  C   UNL     1      -4.425  14.624  22.257  0.00  0.00    +0.000 A 
ATOM     24  C   UNL     1      -4.814  15.098  23.551  0.00  0.00    +0.000 A 
ATOM     25  C   UNL     1      -4.708  16.470  23.651  0.00  0.00    +0.000 A 
ATOM     26  S   UNL     1      -4.071  17.170  22.224  0.00  0.00    +0.000 S 
ATOM     27  C   UNL     1      -3.963  15.644  21.454  0.00  0.00    +0.000 A 
ENDBRANCH  20  23
ENDBRANCH  11  20
TORSDOF 4
ENDMDL
MODEL 9
REMARK VINA RESULT:      -6.5      8.629     12.213
REMARK  Name = 
REMARK  5 active torsions:
REMARK  status: ('A' for Active; 'I' for Inactive)
REMARK    1  A    between atoms: C_1  and  C_2
REMARK    2  A    between atoms: N_8  and  S_9
REMARK    3  A    between atoms: S_9  and  C_12
REMARK    4  A    between atoms: N_19  and  S_20
REMARK    5  A    between atoms: S_20  and  C_23
REMARK                            x       y       z     vdW  Elec       q    Type
REMARK                         _______ _______ _______ _____ _____    ______ ____
ROOT
ATOM      1  C   UNL     1      -2.604   9.950  15.850  0.00  0.00    +0.000 C 
ATOM      2  C   UNL     1      -2.841  10.719  17.120  0.00  0.00    +0.000 A 
ATOM      3  C   UNL     1      -4.146  11.067  17.520  0.00  0.00    +0.000 A 
ATOM      4  C   UNL     1      -4.378  11.822  18.680  0.00  0.00    +0.000 A 
ATOM      5  C   UNL     1      -3.295  12.187  19.460  0.00  0.00    +0.000 A 
ATOM      6  C   UNL     1      -1.997  11.868  19.045  0.00  0.00    +0.000 A 
ATOM      7  C   UNL     1      -1.751  11.137  17.894  0.00  0.00    +0.000 A 
ATOM      8  N   UNL     1      -1.079  12.393  19.994  0.00  0.00    +0.000 N 
ATOM      9  C   UNL     1      -1.843  13.114  20.923  0.00  0.00    +0.000 A 
ATOM     10  O   UNL     1      -1.395  13.712  21.886  0.00  0.00    +0.000 OA
ATOM     11  N   UNL     1      -3.216  13.043  20.599  0.00  0.00    +0.000 N 
ENDROOT
BRANCH   8  12
ATOM     12  S   UNL     1       0.563  12.362  19.869  0.00  0.00    +0.000 S 
ATOM     13  O   UNL     1       0.988  13.175  18.751  0.00  0.00    +0.000 OA
ATOM     14  O   UNL     1       1.153  12.571  21.172  0.00  0.00    +0.000 OA
BRANCH  12  15
ATOM     15  C   UNL     1       1.126  10.727  19.410  0.00  0.00    +0.000 A 
ATOM     16  C   UNL     1       1.729  10.273  18.249  0.00  0.00    +0.000 A 
ATOM     17  C   UNL     1       1.931   8.862  18.257  0.00  0.00    +0.000 A 
ATOM     18  C   UNL     1       1.514   8.291  19.437  0.00  0.00    +0.000 A 
ATOM     19  S   UNL     1       0.879   9.452  20.522  0.00  0.00    +0.000 S 
ENDBRANCH  12  15
ENDBRANCH   8  12
BRANCH  11  20
ATOM     20  S   UNL     1      -4.424  13.418  21.664  0.00  0.00    +0.000 S 
ATOM     21  O   UNL     1      -4.924  12.211  22.283  0.00  0.00    +0.000 OA
ATOM     22  O   UNL     1      -4.031  14.549  22.486  0.00  0.00    +0.000 OA
BRANCH  20  23
ATOM     23  C   UNL     1      -5.799  14.017  20.776  0.00  0.00    +0.000 A 
ATOM     24  C   UNL     1      -7.020  13.290  20.595  0.00  0.00    +0.000 A 
ATOM     25  C   UNL     1      -7.916  13.975  19.801  0.00  0.00    +0.000 A 
ATOM     26  S   UNL     1      -7.321  15.513  19.342  0.00  0.00    +0.000 S 
ATOM     27  C   UNL     1      -5.849  15.259  20.178  0.00  0.00    +0.000 A 
ENDBRANCH  20  23
ENDBRANCH  11  20
TORSDOF 4
ENDMDL
