MODEL 1
REMARK VINA RESULT:      -8.1      0.000      0.000
REMARK  Name = 
REMARK  2 active torsions:
REMARK  status: ('A' for Active; 'I' for Inactive)
REMARK    1  A    between atoms: C_2  and  C_3
REMARK    2  A    between atoms: C_5  and  C_6
REMARK                            x       y       z     vdW  Elec       q    Type
REMARK                         _______ _______ _______ _____ _____    ______ ____
ROOT
ATOM      1  C   UNL     1      -0.119  10.616  19.473  0.00  0.00    +0.000 A 
ATOM      2  C   UNL     1      -0.910  10.332  18.359  0.00  0.00    +0.000 A 
ATOM      3  C   UNL     1      -1.602  11.368  17.768  0.00  0.00    +0.000 A 
ATOM      4  N   UNL     1      -1.384  12.659  18.096  0.00  0.00    +0.000 NA
ATOM      5  C   UNL     1      -0.482  12.946  19.051  0.00  0.00    +0.000 A 
ATOM      6  C   UNL     1      -0.213  14.285  19.303  0.00  0.00    +0.000 A 
ATOM      7  C   UNL     1       0.696  14.685  20.284  0.00  0.00    +0.000 A 
ATOM      8  C   UNL     1       1.335  13.728  21.057  0.00  0.00    +0.000 A 
ATOM      9  C   UNL     1       1.070  12.375  20.835  0.00  0.00    +0.000 A 
ATOM     10  C   UNL     1       0.178  11.958  19.812  0.00  0.00    +0.000 A 
ENDROOT
BRANCH   1  12
ATOM     11  O   UNL     1      -0.324   9.181  21.315  0.00  0.00    +0.000 OA
ATOM     12  C   UNL     1       0.326   9.463  20.310  0.00  0.00    +0.000 C 
ATOM     13  N   UNL     1       1.451   8.734  19.904  0.00  0.00    +0.000 N 
ATOM     14  C   UNL     1       1.885   7.554  20.681  0.00  0.00    +0.000 C 
ATOM     15  C   UNL     1       2.062   6.303  19.783  0.00  0.00    +0.000 C 
ATOM     16  N   UNL     1       2.853   6.633  18.597  0.00  0.00    +0.000 N 
ATOM     17  C   UNL     1       3.993   5.971  18.239  0.00  0.00    +0.000 A 
ATOM     18  N   UNL     1       4.373   4.887  18.930  0.00  0.00    +0.000 NA
ATOM     19  C   UNL     1       5.488   4.252  18.520  0.00  0.00    +0.000 A 
ATOM     20  C   UNL     1       6.256   4.652  17.456  0.00  0.00    +0.000 A 
ATOM     21  C   UNL     1       5.804   5.775  16.812  0.00  0.00    +0.000 A 
ATOM     22  N   UNL     1       4.701   6.435  17.190  0.00  0.00    +0.000 NA
ATOM     23  C   UNL     1       2.409   7.771  17.813  0.00  0.00    +0.000 C 
ATOM     24  C   UNL     1       2.289   8.992  18.718  0.00  0.00    +0.000 C 
ENDBRANCH   1  12
BRANCH   3  25
ATOM     25  C   UNL     1      -2.695  11.096  16.848  0.00  0.00    +0.000 A 
ATOM     26  C   UNL     1      -2.706  10.494  15.565  0.00  0.00    +0.000 A 
ATOM     27  N   UNL     1      -3.932  10.401  15.046  0.00  0.00    +0.000 NA
ATOM     28  N   UNL     1      -4.716  10.928  16.001  0.00  0.00    +0.000 N 
ATOM     29  C   UNL     1      -4.030  11.317  17.112  0.00  0.00    +0.000 A 
ATOM     30  H   UNL     1      -5.715  10.983  15.826  0.00  0.00    +0.000 HD
ENDBRANCH   3  25
TORSDOF 2
ENDMDL
MODEL 2
REMARK VINA RESULT:      -7.9      2.868      8.589
REMARK  Name = 
REMARK  2 active torsions:
REMARK  status: ('A' for Active; 'I' for Inactive)
REMARK    1  A    between atoms: C_2  and  C_3
REMARK    2  A    between atoms: C_5  and  C_6
REMARK                            x       y       z     vdW  Elec       q    Type
REMARK                         _______ _______ _______ _____ _____    ______ ____
ROOT
ATOM      1  C   UNL     1       3.514   6.744  18.471  0.00  0.00    +0.000 A 
ATOM      2  C   UNL     1       2.791   6.034  19.429  0.00  0.00    +0.000 A 
ATOM      3  C   UNL     1       3.210   4.761  19.753  0.00  0.00    +0.000 A 
ATOM      4  N   UNL     1       4.393   4.265  19.335  0.00  0.00    +0.000 NA
ATOM      5  C   UNL     1       5.180   5.025  18.553  0.00  0.00    +0.000 A 
ATOM      6  C   UNL     1       6.429   4.524  18.214  0.00  0.00    +0.000 A 
ATOM      7  C   UNL     1       7.312   5.229  17.394  0.00  0.00    +0.000 A 
ATOM      8  C   UNL     1       6.931   6.457  16.873  0.00  0.00    +0.000 A 
ATOM      9  C   UNL     1       5.674   6.976  17.186  0.00  0.00    +0.000 A 
ATOM     10  C   UNL     1       4.785   6.283  18.052  0.00  0.00    +0.000 A 
ENDROOT
BRANCH   1  12
ATOM     11  O   UNL     1       2.949   8.117  16.657  0.00  0.00    +0.000 OA
ATOM     12  C   UNL     1       2.862   7.946  17.871  0.00  0.00    +0.000 C 
ATOM     13  N   UNL     1       2.159   8.818  18.712  0.00  0.00    +0.000 N 
ATOM     14  C   UNL     1       1.457   9.987  18.142  0.00  0.00    +0.000 C 
ATOM     15  C   UNL     1      -0.025  10.048  18.592  0.00  0.00    +0.000 C 
ATOM     16  N   UNL     1      -0.127   9.866  20.041  0.00  0.00    +0.000 N 
ATOM     17  C   UNL     1      -0.748  10.753  20.874  0.00  0.00    +0.000 A 
ATOM     18  N   UNL     1      -1.404  11.800  20.354  0.00  0.00    +0.000 NA
ATOM     19  C   UNL     1      -2.026  12.629  21.215  0.00  0.00    +0.000 A 
ATOM     20  C   UNL     1      -2.016  12.473  22.577  0.00  0.00    +0.000 A 
ATOM     21  C   UNL     1      -1.314  11.385  23.027  0.00  0.00    +0.000 A 
ATOM     22  N   UNL     1      -0.682  10.538  22.203  0.00  0.00    +0.000 NA
ATOM     23  C   UNL     1       0.533   8.700  20.599  0.00  0.00    +0.000 C 
ATOM     24  C   UNL     1       1.997   8.696  20.173  0.00  0.00    +0.000 C 
ENDBRANCH   1  12
BRANCH   3  25
ATOM     25  C   UNL     1       2.325   3.852  20.462  0.00  0.00    +0.000 A 
ATOM     26  C   UNL     1       2.459   3.208  21.718  0.00  0.00    +0.000 A 
ATOM     27  N   UNL     1       1.401   2.458  22.033  0.00  0.00    +0.000 NA
ATOM     28  N   UNL     1       0.575   2.630  20.988  0.00  0.00    +0.000 N 
ATOM     29  C   UNL     1       1.062   3.486  20.046  0.00  0.00    +0.000 A 
ATOM     30  H   UNL     1      -0.312   2.136  20.990  0.00  0.00    +0.000 HD
ENDBRANCH   3  25
TORSDOF 2
ENDMDL
MODEL 3
REMARK VINA RESULT:      -7.8      1.193      1.203
REMARK  Name = 
REMARK  2 active torsions:
REMARK  status: ('A' for Active; 'I' for Inactive)
REMARK    1  A    between atoms: C_2  and  C_3
REMARK    2  A    between atoms: C_5  and  C_6
REMARK                            x       y       z     vdW  Elec       q    Type
REMARK                         _______ _______ _______ _____ _____    ______ ____
ROOT
ATOM      1  C   UNL     1      -0.716  10.372  20.165  0.00  0.00    +0.000 A 
ATOM      2  C   UNL     1      -1.136  10.201  18.845  0.00  0.00    +0.000 A 
ATOM      3  C   UNL     1      -2.018  11.119  18.316  0.00  0.00    +0.000 A 
ATOM      4  N   UNL     1      -2.324  12.271  18.949  0.00  0.00    +0.000 NA
ATOM      5  C   UNL     1      -1.774  12.521  20.150  0.00  0.00    +0.000 A 
ATOM      6  C   UNL     1      -2.036  13.752  20.736  0.00  0.00    +0.000 A 
ATOM      7  C   UNL     1      -1.524  14.101  21.987  0.00  0.00    +0.000 A 
ATOM      8  C   UNL     1      -0.752  13.188  22.690  0.00  0.00    +0.000 A 
ATOM      9  C   UNL     1      -0.486  11.937  22.130  0.00  0.00    +0.000 A 
ATOM     10  C   UNL     1      -0.970  11.589  20.840  0.00  0.00    +0.000 A 
ENDROOT
BRANCH   1  12
ATOM     11  O   UNL     1      -0.592   8.741  21.844  0.00  0.00    +0.000 OA
ATOM     12  C   UNL     1      -0.067   9.206  20.834  0.00  0.00    +0.000 C 
ATOM     13  N   UNL     1       1.101   8.675  20.273  0.00  0.00    +0.000 N 
ATOM     14  C   UNL     1       1.738   7.488  20.880  0.00  0.00    +0.000 C 
ATOM     15  C   UNL     1       1.990   6.369  19.837  0.00  0.00    +0.000 C 
ATOM     16  N   UNL     1       2.635   6.919  18.644  0.00  0.00    +0.000 N 
ATOM     17  C   UNL     1       3.814   6.450  18.136  0.00  0.00    +0.000 A 
ATOM     18  N   UNL     1       4.378   5.360  18.673  0.00  0.00    +0.000 NA
ATOM     19  C   UNL     1       5.524   4.920  18.118  0.00  0.00    +0.000 A 
ATOM     20  C   UNL     1       6.147   5.523  17.056  0.00  0.00    +0.000 A 
ATOM     21  C   UNL     1       5.510   6.638  16.574  0.00  0.00    +0.000 A 
ATOM     22  N   UNL     1       4.370   7.107  17.099  0.00  0.00    +0.000 NA
ATOM     23  C   UNL     1       1.992   8.063  18.025  0.00  0.00    +0.000 C 
ATOM     24  C   UNL     1       1.800   9.159  19.068  0.00  0.00    +0.000 C 
ENDBRANCH   1  12
BRANCH   3  25
ATOM     25  C   UNL     1      -2.755  10.818  17.099  0.00  0.00    +0.000 A 
ATOM     26  C   UNL     1      -2.463   9.940  16.025  0.00  0.00    +0.000 A 
ATOM     27  N   UNL     1      -3.418   9.927  15.091  0.00  0.00    +0.000 NA
ATOM     28  N   UNL     1      -4.334  10.784  15.571  0.00  0.00    +0.000 N 
ATOM     29  C   UNL     1      -4.004  11.309  16.784  0.00  0.00    +0.000 A 
ATOM     30  H   UNL     1      -5.166  10.958  15.015  0.00  0.00    +0.000 HD
ENDBRANCH   3  25
TORSDOF 2
ENDMDL
MODEL 4
REMARK VINA RESULT:      -7.6      3.002      8.458
REMARK  Name = 
REMARK  2 active torsions:
REMARK  status: ('A' for Active; 'I' for Inactive)
REMARK    1  A    between atoms: C_2  and  C_3
REMARK    2  A    between atoms: C_5  and  C_6
REMARK                            x       y       z     vdW  Elec       q    Type
REMARK                         _______ _______ _______ _____ _____    ______ ____
ROOT
ATOM      1  C   UNL     1       3.554   6.640  18.105  0.00  0.00    +0.000 A 
ATOM      2  C   UNL     1       2.675   5.666  18.578  0.00  0.00    +0.000 A 
ATOM      3  C   UNL     1       3.125   4.365  18.663  0.00  0.00    +0.000 A 
ATOM      4  N   UNL     1       4.426   4.042  18.503  0.00  0.00    +0.000 NA
ATOM      5  C   UNL     1       5.310   5.016  18.224  0.00  0.00    +0.000 A 
ATOM      6  C   UNL     1       6.652   4.667  18.155  0.00  0.00    +0.000 A 
ATOM      7  C   UNL     1       7.646   5.602  17.856  0.00  0.00    +0.000 A 
ATOM      8  C   UNL     1       7.291   6.916  17.591  0.00  0.00    +0.000 A 
ATOM      9  C   UNL     1       5.947   7.289  17.638  0.00  0.00    +0.000 A 
ATOM     10  C   UNL     1       4.934   6.353  17.980  0.00  0.00    +0.000 A 
ENDROOT
BRANCH   1  12
ATOM     11  O   UNL     1       3.084   8.286  16.504  0.00  0.00    +0.000 OA
ATOM     12  C   UNL     1       2.967   7.945  17.679  0.00  0.00    +0.000 C 
ATOM     13  N   UNL     1       2.287   8.717  18.629  0.00  0.00    +0.000 N 
ATOM     14  C   UNL     1       1.647   9.987  18.227  0.00  0.00    +0.000 C 
ATOM     15  C   UNL     1       0.161  10.051  18.664  0.00  0.00    +0.000 C 
ATOM     16  N   UNL     1       0.024   9.666  20.069  0.00  0.00    +0.000 N 
ATOM     17  C   UNL     1      -0.574  10.450  21.014  0.00  0.00    +0.000 A 
ATOM     18  N   UNL     1      -1.173  11.590  20.644  0.00  0.00    +0.000 NA
ATOM     19  C   UNL     1      -1.774  12.314  21.609  0.00  0.00    +0.000 A 
ATOM     20  C   UNL     1      -1.797  11.961  22.934  0.00  0.00    +0.000 A 
ATOM     21  C   UNL     1      -1.151  10.788  23.229  0.00  0.00    +0.000 A 
ATOM     22  N   UNL     1      -0.542  10.042  22.298  0.00  0.00    +0.000 NA
ATOM     23  C   UNL     1       0.621   8.402  20.459  0.00  0.00    +0.000 C 
ATOM     24  C   UNL     1       2.091   8.392  20.054  0.00  0.00    +0.000 C 
ENDBRANCH   1  12
BRANCH   3  25
ATOM     25  C   UNL     1       2.184   3.266  18.805  0.00  0.00    +0.000 A 
ATOM     26  C   UNL     1       0.767   3.249  18.833  0.00  0.00    +0.000 A 
ATOM     27  N   UNL     1       0.265   2.018  18.957  0.00  0.00    +0.000 NA
ATOM     28  N   UNL     1       1.357   1.238  18.992  0.00  0.00    +0.000 N 
ATOM     29  C   UNL     1       2.523   1.931  18.862  0.00  0.00    +0.000 A 
ATOM     30  H   UNL     1       1.229   0.237  19.100  0.00  0.00    +0.000 HD
ENDBRANCH   3  25
TORSDOF 2
ENDMDL
MODEL 5
REMARK VINA RESULT:      -7.4      3.117      8.688
REMARK  Name = 
REMARK  2 active torsions:
REMARK  status: ('A' for Active; 'I' for Inactive)
REMARK    1  A    between atoms: C_2  and  C_3
REMARK    2  A    between atoms: C_5  and  C_6
REMARK                            x       y       z     vdW  Elec       q    Type
REMARK                         _______ _______ _______ _____ _____    ______ ____
ROOT
ATOM      1  C   UNL     1       3.525   6.370  17.927  0.00  0.00    +0.000 A 
ATOM      2  C   UNL     1       3.021   5.771  19.082  0.00  0.00    +0.000 A 
ATOM      3  C   UNL     1       3.177   4.409  19.233  0.00  0.00    +0.000 A 
ATOM      4  N   UNL     1       3.968   3.681  18.417  0.00  0.00    +0.000 NA
ATOM      5  C   UNL     1       4.602   4.296  17.404  0.00  0.00    +0.000 A 
ATOM      6  C   UNL     1       5.479   3.539  16.638  0.00  0.00    +0.000 A 
ATOM      7  C   UNL     1       6.173   4.081  15.555  0.00  0.00    +0.000 A 
ATOM      8  C   UNL     1       5.970   5.408  15.206  0.00  0.00    +0.000 A 
ATOM      9  C   UNL     1       5.083   6.187  15.951  0.00  0.00    +0.000 A 
ATOM     10  C   UNL     1       4.402   5.653  17.078  0.00  0.00    +0.000 A 
ENDROOT
BRANCH   1  12
ATOM     11  O   UNL     1       3.216   8.174  16.463  0.00  0.00    +0.000 OA
ATOM     12  C   UNL     1       3.044   7.745  17.602  0.00  0.00    +0.000 C 
ATOM     13  N   UNL     1       2.395   8.483  18.600  0.00  0.00    +0.000 N 
ATOM     14  C   UNL     1       1.859   9.825  18.296  0.00  0.00    +0.000 C 
ATOM     15  C   UNL     1       0.370   9.961  18.705  0.00  0.00    +0.000 C 
ATOM     16  N   UNL     1       0.168   9.471  20.069  0.00  0.00    +0.000 N 
ATOM     17  C   UNL     1      -0.398  10.214  21.065  0.00  0.00    +0.000 A 
ATOM     18  N   UNL     1      -0.904  11.422  20.782  0.00  0.00    +0.000 NA
ATOM     19  C   UNL     1      -1.478  12.104  21.793  0.00  0.00    +0.000 A 
ATOM     20  C   UNL     1      -1.561  11.645  23.082  0.00  0.00    +0.000 A 
ATOM     21  C   UNL     1      -1.009  10.407  23.288  0.00  0.00    +0.000 A 
ATOM     22  N   UNL     1      -0.429   9.698  22.310  0.00  0.00    +0.000 NA
ATOM     23  C   UNL     1       0.663   8.138  20.361  0.00  0.00    +0.000 C 
ATOM     24  C   UNL     1       2.139   8.054  19.988  0.00  0.00    +0.000 C 
ENDBRANCH   1  12
BRANCH   3  25
ATOM     25  C   UNL     1       2.389   3.681  20.214  0.00  0.00    +0.000 A 
ATOM     26  C   UNL     1       2.761   3.043  21.423  0.00  0.00    +0.000 A 
ATOM     27  N   UNL     1       1.725   2.496  22.062  0.00  0.00    +0.000 NA
ATOM     28  N   UNL     1       0.679   2.794  21.274  0.00  0.00    +0.000 N 
ATOM     29  C   UNL     1       1.018   3.536  20.182  0.00  0.00    +0.000 A 
ATOM     30  H   UNL     1      -0.240   2.464  21.549  0.00  0.00    +0.000 HD
ENDBRANCH   3  25
TORSDOF 2
ENDMDL
MODEL 6
REMARK VINA RESULT:      -7.3      1.525      3.914
REMARK  Name = 
REMARK  2 active torsions:
REMARK  status: ('A' for Active; 'I' for Inactive)
REMARK    1  A    between atoms: C_2  and  C_3
REMARK    2  A    between atoms: C_5  and  C_6
REMARK                            x       y       z     vdW  Elec       q    Type
REMARK                         _______ _______ _______ _____ _____    ______ ____
ROOT
ATOM      1  C   UNL     1      -0.342  10.826  19.600  0.00  0.00    +0.000 A 
ATOM      2  C   UNL     1       0.255  12.070  19.808  0.00  0.00    +0.000 A 
ATOM      3  C   UNL     1       0.044  13.060  18.872  0.00  0.00    +0.000 A 
ATOM      4  N   UNL     1      -0.871  12.937  17.887  0.00  0.00    +0.000 NA
ATOM      5  C   UNL     1      -1.582  11.799  17.796  0.00  0.00    +0.000 A 
ATOM      6  C   UNL     1      -2.577  11.736  16.831  0.00  0.00    +0.000 A 
ATOM      7  C   UNL     1      -3.359  10.594  16.647  0.00  0.00    +0.000 A 
ATOM      8  C   UNL     1      -3.125   9.471  17.427  0.00  0.00    +0.000 A 
ATOM      9  C   UNL     1      -2.120   9.503  18.394  0.00  0.00    +0.000 A 
ATOM     10  C   UNL     1      -1.347  10.674  18.615  0.00  0.00    +0.000 A 
ENDROOT
BRANCH   1  12
ATOM     11  O   UNL     1      -0.413   9.373  21.438  0.00  0.00    +0.000 OA
ATOM     12  C   UNL     1       0.173   9.676  20.401  0.00  0.00    +0.000 C 
ATOM     13  N   UNL     1       1.288   8.974  19.927  0.00  0.00    +0.000 N 
ATOM     14  C   UNL     1       1.789   7.797  20.667  0.00  0.00    +0.000 C 
ATOM     15  C   UNL     1       1.940   6.557  19.750  0.00  0.00    +0.000 C 
ATOM     16  N   UNL     1       2.657   6.912  18.525  0.00  0.00    +0.000 N 
ATOM     17  C   UNL     1       3.788   6.276  18.098  0.00  0.00    +0.000 A 
ATOM     18  N   UNL     1       4.228   5.196  18.757  0.00  0.00    +0.000 NA
ATOM     19  C   UNL     1       5.331   4.586  18.279  0.00  0.00    +0.000 A 
ATOM     20  C   UNL     1       6.029   5.011  17.178  0.00  0.00    +0.000 A 
ATOM     21  C   UNL     1       5.519   6.129  16.569  0.00  0.00    +0.000 A 
ATOM     22  N   UNL     1       4.426   6.763  17.014  0.00  0.00    +0.000 NA
ATOM     23  C   UNL     1       2.146   8.046  17.776  0.00  0.00    +0.000 C 
ATOM     24  C   UNL     1       2.052   9.257  18.698  0.00  0.00    +0.000 C 
ENDBRANCH   1  12
BRANCH   3  25
ATOM     25  C   UNL     1       0.897  14.237  18.838  0.00  0.00    +0.000 A 
ATOM     26  C   UNL     1       2.296  14.370  18.655  0.00  0.00    +0.000 A 
ATOM     27  N   UNL     1       2.702  15.642  18.664  0.00  0.00    +0.000 NA
ATOM     28  N   UNL     1       1.563  16.332  18.835  0.00  0.00    +0.000 N 
ATOM     29  C   UNL     1       0.455  15.542  18.901  0.00  0.00    +0.000 A 
ATOM     30  H   UNL     1       1.618  17.344  18.890  0.00  0.00    +0.000 HD
ENDBRANCH   3  25
TORSDOF 2
ENDMDL
MODEL 7
REMARK VINA RESULT:      -7.1      2.540      8.690
REMARK  Name = 
REMARK  2 active torsions:
REMARK  status: ('A' for Active; 'I' for Inactive)
REMARK    1  A    between atoms: C_2  and  C_3
REMARK    2  A    between atoms: C_5  and  C_6
REMARK                            x       y       z     vdW  Elec       q    Type
REMARK                         _______ _______ _______ _____ _____    ______ ____
ROOT
ATOM      1  C   UNL     1       2.587   5.749  19.275  0.00  0.00    +0.000 A 
ATOM      2  C   UNL     1       3.598   6.379  18.548  0.00  0.00    +0.000 A 
ATOM      3  C   UNL     1       4.356   5.615  17.686  0.00  0.00    +0.000 A 
ATOM      4  N   UNL     1       4.027   4.344  17.372  0.00  0.00    +0.000 NA
ATOM      5  C   UNL     1       2.941   3.793  17.939  0.00  0.00    +0.000 A 
ATOM      6  C   UNL     1       2.576   2.517  17.529  0.00  0.00    +0.000 A 
ATOM      7  C   UNL     1       1.473   1.852  18.069  0.00  0.00    +0.000 A 
ATOM      8  C   UNL     1       0.727   2.462  19.065  0.00  0.00    +0.000 A 
ATOM      9  C   UNL     1       1.081   3.738  19.507  0.00  0.00    +0.000 A 
ATOM     10  C   UNL     1       2.178   4.437  18.935  0.00  0.00    +0.000 A 
ENDROOT
BRANCH   1  12
ATOM     11  O   UNL     1       2.170   6.001  21.567  0.00  0.00    +0.000 OA
ATOM     12  C   UNL     1       2.025   6.484  20.447  0.00  0.00    +0.000 C 
ATOM     13  N   UNL     1       1.376   7.705  20.224  0.00  0.00    +0.000 N 
ATOM     14  C   UNL     1       0.857   8.484  21.368  0.00  0.00    +0.000 C 
ATOM     15  C   UNL     1       1.354   9.951  21.343  0.00  0.00    +0.000 C 
ATOM     16  N   UNL     1       1.162  10.534  20.014  0.00  0.00    +0.000 N 
ATOM     17  C   UNL     1       0.466  11.686  19.786  0.00  0.00    +0.000 A 
ATOM     18  N   UNL     1       0.016  12.403  20.825  0.00  0.00    +0.000 NA
ATOM     19  C   UNL     1      -0.640  13.548  20.549  0.00  0.00    +0.000 A 
ATOM     20  C   UNL     1      -0.881  14.010  19.280  0.00  0.00    +0.000 A 
ATOM     21  C   UNL     1      -0.398  13.212  18.276  0.00  0.00    +0.000 A 
ATOM     22  N   UNL     1       0.258  12.067  18.510  0.00  0.00    +0.000 NA
ATOM     23  C   UNL     1       1.702   9.788  18.892  0.00  0.00    +0.000 C 
ATOM     24  C   UNL     1       1.157   8.364  18.923  0.00  0.00    +0.000 C 
ENDBRANCH   1  12
BRANCH   3  25
ATOM     25  C   UNL     1       5.621   6.117  17.175  0.00  0.00    +0.000 A 
ATOM     26  C   UNL     1       6.368   7.274  17.506  0.00  0.00    +0.000 A 
ATOM     27  N   UNL     1       7.509   7.370  16.819  0.00  0.00    +0.000 NA
ATOM     28  N   UNL     1       7.508   6.265  16.056  0.00  0.00    +0.000 N 
ATOM     29  C   UNL     1       6.425   5.464  16.263  0.00  0.00    +0.000 A 
ATOM     30  H   UNL     1       8.286   6.119  15.421  0.00  0.00    +0.000 HD
ENDBRANCH   3  25
TORSDOF 2
ENDMDL
MODEL 8
REMARK VINA RESULT:      -7.0      2.485      4.928
REMARK  Name = 
REMARK  2 active torsions:
REMARK  status: ('A' for Active; 'I' for Inactive)
REMARK    1  A    between atoms: C_2  and  C_3
REMARK    2  A    between atoms: C_5  and  C_6
REMARK                            x       y       z     vdW  Elec       q    Type
REMARK                         _______ _______ _______ _____ _____    ______ ____
ROOT
ATOM      1  C   UNL     1       0.627  10.840  18.900  0.00  0.00    +0.000 A 
ATOM      2  C   UNL     1       1.164  11.647  19.903  0.00  0.00    +0.000 A 
ATOM      3  C   UNL     1       0.400  12.689  20.383  0.00  0.00    +0.000 A 
ATOM      4  N   UNL     1      -0.905  12.829  20.068  0.00  0.00    +0.000 NA
ATOM      5  C   UNL     1      -1.474  11.939  19.237  0.00  0.00    +0.000 A 
ATOM      6  C   UNL     1      -2.838  12.055  19.004  0.00  0.00    +0.000 A 
ATOM      7  C   UNL     1      -3.519  11.190  18.145  0.00  0.00    +0.000 A 
ATOM      8  C   UNL     1      -2.818  10.197  17.477  0.00  0.00    +0.000 A 
ATOM      9  C   UNL     1      -1.444  10.069  17.682  0.00  0.00    +0.000 A 
ATOM     10  C   UNL     1      -0.751  10.920  18.584  0.00  0.00    +0.000 A 
ENDROOT
BRANCH   1  12
ATOM     11  O   UNL     1       2.233  10.458  17.237  0.00  0.00    +0.000 OA
ATOM     12  C   UNL     1       1.571   9.963  18.146  0.00  0.00    +0.000 C 
ATOM     13  N   UNL     1       1.680   8.617  18.519  0.00  0.00    +0.000 N 
ATOM     14  C   UNL     1       2.645   7.736  17.829  0.00  0.00    +0.000 C 
ATOM     15  C   UNL     1       3.567   6.993  18.827  0.00  0.00    +0.000 C 
ATOM     16  N   UNL     1       2.777   6.384  19.898  0.00  0.00    +0.000 N 
ATOM     17  C   UNL     1       2.826   5.057  20.216  0.00  0.00    +0.000 A 
ATOM     18  N   UNL     1       3.717   4.264  19.605  0.00  0.00    +0.000 NA
ATOM     19  C   UNL     1       3.748   2.968  19.975  0.00  0.00    +0.000 A 
ATOM     20  C   UNL     1       2.920   2.418  20.920  0.00  0.00    +0.000 A 
ATOM     21  C   UNL     1       2.031   3.294  21.487  0.00  0.00    +0.000 A 
ATOM     22  N   UNL     1       1.970   4.588  21.146  0.00  0.00    +0.000 NA
ATOM     23  C   UNL     1       1.853   7.256  20.602  0.00  0.00    +0.000 C 
ATOM     24  C   UNL     1       0.934   7.936  19.593  0.00  0.00    +0.000 C 
ENDBRANCH   1  12
BRANCH   3  25
ATOM     25  C   UNL     1       1.013  13.759  21.154  0.00  0.00    +0.000 A 
ATOM     26  C   UNL     1       0.486  14.599  22.167  0.00  0.00    +0.000 A 
ATOM     27  N   UNL     1       1.388  15.454  22.653  0.00  0.00    +0.000 NA
ATOM     28  N   UNL     1       2.503  15.156  21.966  0.00  0.00    +0.000 N 
ATOM     29  C   UNL     1       2.341  14.124  21.091  0.00  0.00    +0.000 A 
ATOM     30  H   UNL     1       3.342  15.696  22.154  0.00  0.00    +0.000 HD
ENDBRANCH   3  25
TORSDOF 2
ENDMDL
MODEL 9
REMARK VINA RESULT:      -6.9      6.948     11.242
REMARK  Name = 
REMARK  2 active torsions:
REMARK  status: ('A' for Active; 'I' for Inactive)
REMARK    1  A    between atoms: C_2  and  C_3
REMARK    2  A    between atoms: C_5  and  C_6
REMARK                            x       y       z     vdW  Elec       q    Type
REMARK                         _______ _______ _______ _____ _____    ______ ____
ROOT
ATOM      1  C   UNL     1       8.455  14.197  21.026  0.00  0.00    +0.000 A 
ATOM      2  C   UNL     1       8.338  13.965  22.397  0.00  0.00    +0.000 A 
ATOM      3  C   UNL     1       8.365  12.661  22.843  0.00  0.00    +0.000 A 
ATOM      4  N   UNL     1       8.701  11.631  22.037  0.00  0.00    +0.000 NA
ATOM      5  C   UNL     1       8.992  11.880  20.748  0.00  0.00    +0.000 A 
ATOM      6  C   UNL     1       9.421  10.815  19.967  0.00  0.00    +0.000 A 
ATOM      7  C   UNL     1       9.733  10.967  18.614  0.00  0.00    +0.000 A 
ATOM      8  C   UNL     1       9.586  12.209  18.014  0.00  0.00    +0.000 A 
ATOM      9  C   UNL     1       9.142  13.292  18.773  0.00  0.00    +0.000 A 
ATOM     10  C   UNL     1       8.861  13.155  20.159  0.00  0.00    +0.000 A 
ENDROOT
BRANCH   1  12
ATOM     11  O   UNL     1       8.956  16.364  20.284  0.00  0.00    +0.000 OA
ATOM     12  C   UNL     1       8.067  15.549  20.524  0.00  0.00    +0.000 C 
ATOM     13  N   UNL     1       6.709  15.827  20.324  0.00  0.00    +0.000 N 
ATOM     14  C   UNL     1       6.296  17.136  19.777  0.00  0.00    +0.000 C 
ATOM     15  C   UNL     1       5.359  16.982  18.552  0.00  0.00    +0.000 C 
ATOM     16  N   UNL     1       4.288  16.028  18.844  0.00  0.00    +0.000 N 
ATOM     17  C   UNL     1       2.959  16.320  18.721  0.00  0.00    +0.000 A 
ATOM     18  N   UNL     1       2.587  17.498  18.203  0.00  0.00    +0.000 NA
ATOM     19  C   UNL     1       1.265  17.727  18.075  0.00  0.00    +0.000 A 
ATOM     20  C   UNL     1       0.290  16.839  18.451  0.00  0.00    +0.000 A 
ATOM     21  C   UNL     1       0.756  15.664  18.982  0.00  0.00    +0.000 A 
ATOM     22  N   UNL     1       2.062  15.400  19.126  0.00  0.00    +0.000 NA
ATOM     23  C   UNL     1       4.693  14.729  19.349  0.00  0.00    +0.000 C 
ATOM     24  C   UNL     1       5.576  14.917  20.578  0.00  0.00    +0.000 C 
ENDBRANCH   1  12
BRANCH   3  25
ATOM     25  C   UNL     1       7.906  12.330  24.182  0.00  0.00    +0.000 A 
ATOM     26  C   UNL     1       6.850  11.496  24.627  0.00  0.00    +0.000 A 
ATOM     27  N   UNL     1       6.764  11.432  25.957  0.00  0.00    +0.000 NA
ATOM     28  N   UNL     1       7.776  12.211  26.373  0.00  0.00    +0.000 N 
ATOM     29  C   UNL     1       8.512  12.735  25.353  0.00  0.00    +0.000 A 
ATOM     30  H   UNL     1       7.909  12.334  27.372  0.00  0.00    +0.000 HD
ENDBRANCH   3  25
TORSDOF 2
ENDMDL
