MODEL 1
REMARK VINA RESULT:      -7.7      0.000      0.000
REMARK  Name = 
REMARK  4 active torsions:
REMARK  status: ('A' for Active; 'I' for Inactive)
REMARK    1  A    between atoms: C_1  and  C_2
REMARK    2  A    between atoms: C_2  and  C_3
REMARK    3  A    between atoms: C_2  and  N_4
REMARK    4  A    between atoms: C_5  and  C_6
REMARK                            x       y       z     vdW  Elec       q    Type
REMARK                         _______ _______ _______ _____ _____    ______ ____
ROOT
ATOM      1  N   UNL     1       3.927   3.754  17.751  0.00  0.00    +0.000 N 
ATOM      2  C   UNL     1       4.348   3.762  19.077  0.00  0.00    +0.000 A 
ATOM      3  N   UNL     1       5.617   4.131  19.160  0.00  0.00    +0.000 NA
ATOM      4  C   UNL     1       6.017   4.414  17.886  0.00  0.00    +0.000 A 
ATOM      5  C   UNL     1       7.273   4.848  17.434  0.00  0.00    +0.000 A 
ATOM      6  C   UNL     1       7.460   5.087  16.070  0.00  0.00    +0.000 A 
ATOM      7  C   UNL     1       6.405   4.925  15.176  0.00  0.00    +0.000 A 
ATOM      8  C   UNL     1       5.141   4.509  15.614  0.00  0.00    +0.000 A 
ATOM      9  C   UNL     1       4.977   4.228  16.980  0.00  0.00    +0.000 A 
ENDROOT
BRANCH   2  10
ATOM     10  C   UNL     1       3.563   3.416  20.315  0.00  0.00    +0.000 A 
ATOM     11  N   UNL     1       3.600   2.231  20.932  0.00  0.00    +0.000 NA
ATOM     12  O   UNL     1       2.765   2.372  22.033  0.00  0.00    +0.000 OA
ATOM     13  N   UNL     1       2.196   3.637  22.084  0.00  0.00    +0.000 NA
ATOM     14  C   UNL     1       2.680   4.278  21.019  0.00  0.00    +0.000 A 
ATOM     15  N   UNL     1       2.356   5.540  20.674  0.00  0.00    +0.000 N 
ATOM     16  H   UNL     1       1.860   6.143  21.320  0.00  0.00    +0.000 HD
ATOM     17  H   UNL     1       2.854   6.000  19.913  0.00  0.00    +0.000 HD
ENDBRANCH   2  10
BRANCH   1  19
ATOM     18  C   UNL     1       2.253   1.943  17.728  0.00  0.00    +0.000 C 
ATOM     19  C   UNL     1       2.606   3.355  17.262  0.00  0.00    +0.000 C 
ATOM     20  C   UNL     1       1.467   4.335  17.567  0.00  0.00    +0.000 C 
ENDBRANCH   1  19
TORSDOF 2
ENDMDL
MODEL 2
REMARK VINA RESULT:      -7.5      3.021      5.177
REMARK  Name = 
REMARK  4 active torsions:
REMARK  status: ('A' for Active; 'I' for Inactive)
REMARK    1  A    between atoms: C_1  and  C_2
REMARK    2  A    between atoms: C_2  and  C_3
REMARK    3  A    between atoms: C_2  and  N_4
REMARK    4  A    between atoms: C_5  and  C_6
REMARK                            x       y       z     vdW  Elec       q    Type
REMARK                         _______ _______ _______ _____ _____    ______ ____
ROOT
ATOM      1  N   UNL     1       3.583   5.575  18.476  0.00  0.00    +0.000 N 
ATOM      2  C   UNL     1       4.867   5.249  18.048  0.00  0.00    +0.000 A 
ATOM      3  N   UNL     1       4.971   3.946  17.838  0.00  0.00    +0.000 NA
ATOM      4  C   UNL     1       3.736   3.419  18.083  0.00  0.00    +0.000 A 
ATOM      5  C   UNL     1       3.317   2.081  18.003  0.00  0.00    +0.000 A 
ATOM      6  C   UNL     1       1.987   1.765  18.294  0.00  0.00    +0.000 A 
ATOM      7  C   UNL     1       1.083   2.770  18.629  0.00  0.00    +0.000 A 
ATOM      8  C   UNL     1       1.481   4.111  18.697  0.00  0.00    +0.000 A 
ATOM      9  C   UNL     1       2.830   4.412  18.447  0.00  0.00    +0.000 A 
ENDROOT
BRANCH   2  10
ATOM     10  C   UNL     1       6.043   6.163  17.826  0.00  0.00    +0.000 A 
ATOM     11  N   UNL     1       6.121   7.080  16.858  0.00  0.00    +0.000 NA
ATOM     12  O   UNL     1       7.345   7.708  17.054  0.00  0.00    +0.000 OA
ATOM     13  N   UNL     1       8.031   7.163  18.130  0.00  0.00    +0.000 NA
ATOM     14  C   UNL     1       7.234   6.204  18.601  0.00  0.00    +0.000 A 
ATOM     15  N   UNL     1       7.535   5.400  19.640  0.00  0.00    +0.000 N 
ATOM     16  H   UNL     1       8.322   5.608  20.245  0.00  0.00    +0.000 HD
ATOM     17  H   UNL     1       6.828   4.768  20.012  0.00  0.00    +0.000 HD
ENDBRANCH   2  10
BRANCH   1  19
ATOM     18  C   UNL     1       2.443   7.606  17.668  0.00  0.00    +0.000 C 
ATOM     19  C   UNL     1       3.105   6.906  18.853  0.00  0.00    +0.000 C 
ATOM     20  C   UNL     1       2.205   6.956  20.094  0.00  0.00    +0.000 C 
ENDBRANCH   1  19
TORSDOF 2
ENDMDL
MODEL 3
REMARK VINA RESULT:      -7.5      3.059      5.426
REMARK  Name = 
REMARK  4 active torsions:
REMARK  status: ('A' for Active; 'I' for Inactive)
REMARK    1  A    between atoms: C_1  and  C_2
REMARK    2  A    between atoms: C_2  and  C_3
REMARK    3  A    between atoms: C_2  and  N_4
REMARK    4  A    between atoms: C_5  and  C_6
REMARK                            x       y       z     vdW  Elec       q    Type
REMARK                         _______ _______ _______ _____ _____    ______ ____
ROOT
ATOM      1  N   UNL     1       3.807   4.488  18.299  0.00  0.00    +0.000 N 
ATOM      2  C   UNL     1       4.476   5.457  17.557  0.00  0.00    +0.000 A 
ATOM      3  N   UNL     1       4.042   6.667  17.872  0.00  0.00    +0.000 NA
ATOM      4  C   UNL     1       3.117   6.496  18.861  0.00  0.00    +0.000 A 
ATOM      5  C   UNL     1       2.364   7.467  19.540  0.00  0.00    +0.000 A 
ATOM      6  C   UNL     1       1.470   7.063  20.536  0.00  0.00    +0.000 A 
ATOM      7  C   UNL     1       1.352   5.716  20.869  0.00  0.00    +0.000 A 
ATOM      8  C   UNL     1       2.109   4.737  20.213  0.00  0.00    +0.000 A 
ATOM      9  C   UNL     1       2.971   5.150  19.184  0.00  0.00    +0.000 A 
ENDROOT
BRANCH   2  10
ATOM     10  C   UNL     1       5.550   5.269  16.518  0.00  0.00    +0.000 A 
ATOM     11  N   UNL     1       5.413   5.562  15.221  0.00  0.00    +0.000 NA
ATOM     12  O   UNL     1       6.647   5.272  14.654  0.00  0.00    +0.000 OA
ATOM     13  N   UNL     1       7.539   4.780  15.596  0.00  0.00    +0.000 NA
ATOM     14  C   UNL     1       6.861   4.769  16.744  0.00  0.00    +0.000 A 
ATOM     15  N   UNL     1       7.354   4.332  17.920  0.00  0.00    +0.000 N 
ATOM     16  H   UNL     1       8.346   4.157  18.033  0.00  0.00    +0.000 HD
ATOM     17  H   UNL     1       6.814   4.461  18.774  0.00  0.00    +0.000 HD
ENDBRANCH   2  10
BRANCH   1  19
ATOM     18  C   UNL     1       4.471   2.446  19.511  0.00  0.00    +0.000 C 
ATOM     19  C   UNL     1       3.980   3.039  18.191  0.00  0.00    +0.000 C 
ATOM     20  C   UNL     1       2.766   2.268  17.660  0.00  0.00    +0.000 C 
ENDBRANCH   1  19
TORSDOF 2
ENDMDL
MODEL 4
REMARK VINA RESULT:      -7.3      2.932      5.317
REMARK  Name = 
REMARK  4 active torsions:
REMARK  status: ('A' for Active; 'I' for Inactive)
REMARK    1  A    between atoms: C_1  and  C_2
REMARK    2  A    between atoms: C_2  and  C_3
REMARK    3  A    between atoms: C_2  and  N_4
REMARK    4  A    between atoms: C_5  and  C_6
REMARK                            x       y       z     vdW  Elec       q    Type
REMARK                         _______ _______ _______ _____ _____    ______ ____
ROOT
ATOM      1  N   UNL     1       4.021   4.296  18.634  0.00  0.00    +0.000 N 
ATOM      2  C   UNL     1       4.789   5.270  18.003  0.00  0.00    +0.000 A 
ATOM      3  N   UNL     1       4.310   6.477  18.257  0.00  0.00    +0.000 NA
ATOM      4  C   UNL     1       3.250   6.300  19.098  0.00  0.00    +0.000 A 
ATOM      5  C   UNL     1       2.402   7.265  19.664  0.00  0.00    +0.000 A 
ATOM      6  C   UNL     1       1.373   6.854  20.515  0.00  0.00    +0.000 A 
ATOM      7  C   UNL     1       1.211   5.506  20.821  0.00  0.00    +0.000 A 
ATOM      8  C   UNL     1       2.059   4.532  20.280  0.00  0.00    +0.000 A 
ATOM      9  C   UNL     1       3.062   4.952  19.390  0.00  0.00    +0.000 A 
ENDROOT
BRANCH   2  10
ATOM     10  C   UNL     1       6.004   5.089  17.132  0.00  0.00    +0.000 A 
ATOM     11  N   UNL     1       7.091   4.394  17.479  0.00  0.00    +0.000 NA
ATOM     12  O   UNL     1       7.929   4.460  16.372  0.00  0.00    +0.000 OA
ATOM     13  N   UNL     1       7.367   5.213  15.351  0.00  0.00    +0.000 NA
ATOM     14  C   UNL     1       6.185   5.610  15.822  0.00  0.00    +0.000 A 
ATOM     15  N   UNL     1       5.319   6.395  15.151  0.00  0.00    +0.000 N 
ATOM     16  H   UNL     1       5.444   6.579  14.163  0.00  0.00    +0.000 HD
ATOM     17  H   UNL     1       4.388   6.562  15.531  0.00  0.00    +0.000 HD
ENDBRANCH   2  10
BRANCH   1  19
ATOM     18  C   UNL     1       4.491   2.248  19.924  0.00  0.00    +0.000 C 
ATOM     19  C   UNL     1       4.213   2.848  18.547  0.00  0.00    +0.000 C 
ATOM     20  C   UNL     1       3.098   2.078  17.828  0.00  0.00    +0.000 C 
ENDBRANCH   1  19
TORSDOF 2
ENDMDL
MODEL 5
REMARK VINA RESULT:      -7.3      2.735      4.998
REMARK  Name = 
REMARK  4 active torsions:
REMARK  status: ('A' for Active; 'I' for Inactive)
REMARK    1  A    between atoms: C_1  and  C_2
REMARK    2  A    between atoms: C_2  and  C_3
REMARK    3  A    between atoms: C_2  and  N_4
REMARK    4  A    between atoms: C_5  and  C_6
REMARK                            x       y       z     vdW  Elec       q    Type
REMARK                         _______ _______ _______ _____ _____    ______ ____
ROOT
ATOM      1  N   UNL     1       3.577   5.239  18.967  0.00  0.00    +0.000 N 
ATOM      2  C   UNL     1       4.873   4.763  18.787  0.00  0.00    +0.000 A 
ATOM      3  N   UNL     1       4.871   3.446  18.657  0.00  0.00    +0.000 NA
ATOM      4  C   UNL     1       3.563   3.058  18.703  0.00  0.00    +0.000 A 
ATOM      5  C   UNL     1       3.022   1.766  18.609  0.00  0.00    +0.000 A 
ATOM      6  C   UNL     1       1.636   1.600  18.673  0.00  0.00    +0.000 A 
ATOM      7  C   UNL     1       0.801   2.707  18.798  0.00  0.00    +0.000 A 
ATOM      8  C   UNL     1       1.324   4.004  18.876  0.00  0.00    +0.000 A 
ATOM      9  C   UNL     1       2.720   4.156  18.856  0.00  0.00    +0.000 A 
ENDROOT
BRANCH   2  10
ATOM     10  C   UNL     1       6.161   5.541  18.737  0.00  0.00    +0.000 A 
ATOM     11  N   UNL     1       7.090   5.536  19.697  0.00  0.00    +0.000 NA
ATOM     12  O   UNL     1       8.109   6.349  19.217  0.00  0.00    +0.000 OA
ATOM     13  N   UNL     1       7.799   6.873  17.969  0.00  0.00    +0.000 NA
ATOM     14  C   UNL     1       6.594   6.383  17.677  0.00  0.00    +0.000 A 
ATOM     15  N   UNL     1       5.905   6.667  16.554  0.00  0.00    +0.000 N 
ATOM     16  H   UNL     1       6.354   7.133  15.774  0.00  0.00    +0.000 HD
ATOM     17  H   UNL     1       5.042   6.165  16.350  0.00  0.00    +0.000 HD
ENDBRANCH   2  10
BRANCH   1  19
ATOM     18  C   UNL     1       2.735   7.293  17.893  0.00  0.00    +0.000 C 
ATOM     19  C   UNL     1       3.188   6.631  19.194  0.00  0.00    +0.000 C 
ATOM     20  C   UNL     1       2.160   6.854  20.310  0.00  0.00    +0.000 C 
ENDBRANCH   1  19
TORSDOF 2
ENDMDL
MODEL 6
REMARK VINA RESULT:      -7.2      3.727      6.521
REMARK  Name = 
REMARK  4 active torsions:
REMARK  status: ('A' for Active; 'I' for Inactive)
REMARK    1  A    between atoms: C_1  and  C_2
REMARK    2  A    between atoms: C_2  and  C_3
REMARK    3  A    between atoms: C_2  and  N_4
REMARK    4  A    between atoms: C_5  and  C_6
REMARK                            x       y       z     vdW  Elec       q    Type
REMARK                         _______ _______ _______ _____ _____    ______ ____
ROOT
ATOM      1  N   UNL     1       6.168   5.220  17.117  0.00  0.00    +0.000 N 
ATOM      2  C   UNL     1       5.960   4.722  15.833  0.00  0.00    +0.000 A 
ATOM      3  N   UNL     1       4.842   4.015  15.783  0.00  0.00    +0.000 NA
ATOM      4  C   UNL     1       4.287   4.089  17.028  0.00  0.00    +0.000 A 
ATOM      5  C   UNL     1       3.096   3.511  17.497  0.00  0.00    +0.000 A 
ATOM      6  C   UNL     1       2.711   3.727  18.823  0.00  0.00    +0.000 A 
ATOM      7  C   UNL     1       3.483   4.529  19.658  0.00  0.00    +0.000 A 
ATOM      8  C   UNL     1       4.664   5.127  19.200  0.00  0.00    +0.000 A 
ATOM      9  C   UNL     1       5.066   4.867  17.880  0.00  0.00    +0.000 A 
ENDROOT
BRANCH   2  10
ATOM     10  C   UNL     1       6.818   4.896  14.608  0.00  0.00    +0.000 A 
ATOM     11  N   UNL     1       7.855   5.734  14.519  0.00  0.00    +0.000 NA
ATOM     12  O   UNL     1       8.369   5.537  13.243  0.00  0.00    +0.000 OA
ATOM     13  N   UNL     1       7.637   4.592  12.539  0.00  0.00    +0.000 NA
ATOM     14  C   UNL     1       6.675   4.203  13.375  0.00  0.00    +0.000 A 
ATOM     15  N   UNL     1       5.716   3.305  13.074  0.00  0.00    +0.000 N 
ATOM     16  H   UNL     1       5.786   2.731  12.242  0.00  0.00    +0.000 HD
ATOM     17  H   UNL     1       5.085   2.975  13.803  0.00  0.00    +0.000 HD
ENDBRANCH   2  10
BRANCH   1  19
ATOM     18  C   UNL     1       7.028   7.501  17.483  0.00  0.00    +0.000 C 
ATOM     19  C   UNL     1       7.318   6.003  17.568  0.00  0.00    +0.000 C 
ATOM     20  C   UNL     1       7.870   5.628  18.949  0.00  0.00    +0.000 C 
ENDBRANCH   1  19
TORSDOF 2
ENDMDL
MODEL 7
REMARK VINA RESULT:      -7.2      2.868      5.255
REMARK  Name = 
REMARK  4 active torsions:
REMARK  status: ('A' for Active; 'I' for Inactive)
REMARK    1  A    between atoms: C_1  and  C_2
REMARK    2  A    between atoms: C_2  and  C_3
REMARK    3  A    between atoms: C_2  and  N_4
REMARK    4  A    between atoms: C_5  and  C_6
REMARK                            x       y       z     vdW  Elec       q    Type
REMARK                         _______ _______ _______ _____ _____    ______ ____
ROOT
ATOM      1  N   UNL     1       4.929   4.381  17.252  0.00  0.00    +0.000 N 
ATOM      2  C   UNL     1       5.293   5.421  18.103  0.00  0.00    +0.000 A 
ATOM      3  N   UNL     1       4.464   5.492  19.132  0.00  0.00    +0.000 NA
ATOM      4  C   UNL     1       3.579   4.463  18.983  0.00  0.00    +0.000 A 
ATOM      5  C   UNL     1       2.503   4.100  19.808  0.00  0.00    +0.000 A 
ATOM      6  C   UNL     1       1.724   2.992  19.464  0.00  0.00    +0.000 A 
ATOM      7  C   UNL     1       2.033   2.240  18.333  0.00  0.00    +0.000 A 
ATOM      8  C   UNL     1       3.114   2.578  17.510  0.00  0.00    +0.000 A 
ATOM      9  C   UNL     1       3.862   3.720  17.840  0.00  0.00    +0.000 A 
ENDROOT
BRANCH   2  10
ATOM     10  C   UNL     1       6.438   6.389  17.966  0.00  0.00    +0.000 A 
ATOM     11  N   UNL     1       6.512   7.356  17.047  0.00  0.00    +0.000 NA
ATOM     12  O   UNL     1       7.703   8.019  17.316  0.00  0.00    +0.000 OA
ATOM     13  N   UNL     1       8.374   7.448  18.388  0.00  0.00    +0.000 NA
ATOM     14  C   UNL     1       7.600   6.437  18.784  0.00  0.00    +0.000 A 
ATOM     15  N   UNL     1       7.899   5.595  19.792  0.00  0.00    +0.000 N 
ATOM     16  H   UNL     1       8.656   5.801  20.434  0.00  0.00    +0.000 HD
ATOM     17  H   UNL     1       7.205   4.918  20.109  0.00  0.00    +0.000 HD
ENDBRANCH   2  10
BRANCH   1  19
ATOM     18  C   UNL     1       5.048   4.884  14.841  0.00  0.00    +0.000 C 
ATOM     19  C   UNL     1       5.577   4.026  15.989  0.00  0.00    +0.000 C 
ATOM     20  C   UNL     1       7.111   4.024  16.013  0.00  0.00    +0.000 C 
ENDBRANCH   1  19
TORSDOF 2
ENDMDL
MODEL 8
REMARK VINA RESULT:      -7.1      2.654      5.349
REMARK  Name = 
REMARK  4 active torsions:
REMARK  status: ('A' for Active; 'I' for Inactive)
REMARK    1  A    between atoms: C_1  and  C_2
REMARK    2  A    between atoms: C_2  and  C_3
REMARK    3  A    between atoms: C_2  and  N_4
REMARK    4  A    between atoms: C_5  and  C_6
REMARK                            x       y       z     vdW  Elec       q    Type
REMARK                         _______ _______ _______ _____ _____    ______ ____
ROOT
ATOM      1  N   UNL     1       3.818   4.954  18.546  0.00  0.00    +0.000 N 
ATOM      2  C   UNL     1       4.964   4.165  18.569  0.00  0.00    +0.000 A 
ATOM      3  N   UNL     1       4.840   3.191  19.457  0.00  0.00    +0.000 NA
ATOM      4  C   UNL     1       3.587   3.312  19.986  0.00  0.00    +0.000 A 
ATOM      5  C   UNL     1       2.965   2.524  20.967  0.00  0.00    +0.000 A 
ATOM      6  C   UNL     1       1.658   2.827  21.357  0.00  0.00    +0.000 A 
ATOM      7  C   UNL     1       0.972   3.880  20.757  0.00  0.00    +0.000 A 
ATOM      8  C   UNL     1       1.572   4.665  19.765  0.00  0.00    +0.000 A 
ATOM      9  C   UNL     1       2.902   4.380  19.413  0.00  0.00    +0.000 A 
ENDROOT
BRANCH   2  10
ATOM     10  C   UNL     1       6.220   4.308  17.752  0.00  0.00    +0.000 A 
ATOM     11  N   UNL     1       7.436   4.531  18.259  0.00  0.00    +0.000 NA
ATOM     12  O   UNL     1       8.286   4.552  17.161  0.00  0.00    +0.000 OA
ATOM     13  N   UNL     1       7.592   4.362  15.974  0.00  0.00    +0.000 NA
ATOM     14  C   UNL     1       6.317   4.222  16.336  0.00  0.00    +0.000 A 
ATOM     15  N   UNL     1       5.293   4.043  15.478  0.00  0.00    +0.000 N 
ATOM     16  H   UNL     1       5.466   3.819  14.505  0.00  0.00    +0.000 HD
ATOM     17  H   UNL     1       4.363   3.830  15.837  0.00  0.00    +0.000 HD
ENDBRANCH   2  10
BRANCH   1  19
ATOM     18  C   UNL     1       2.423   6.966  18.251  0.00  0.00    +0.000 C 
ATOM     19  C   UNL     1       3.604   6.150  17.729  0.00  0.00    +0.000 C 
ATOM     20  C   UNL     1       4.838   7.038  17.525  0.00  0.00    +0.000 C 
ENDBRANCH   1  19
TORSDOF 2
ENDMDL
MODEL 9
REMARK VINA RESULT:      -7.1      3.001      5.419
REMARK  Name = 
REMARK  4 active torsions:
REMARK  status: ('A' for Active; 'I' for Inactive)
REMARK    1  A    between atoms: C_1  and  C_2
REMARK    2  A    between atoms: C_2  and  C_3
REMARK    3  A    between atoms: C_2  and  N_4
REMARK    4  A    between atoms: C_5  and  C_6
REMARK                            x       y       z     vdW  Elec       q    Type
REMARK                         _______ _______ _______ _____ _____    ______ ____
ROOT
ATOM      1  N   UNL     1       3.508   5.669  19.301  0.00  0.00    +0.000 N 
ATOM      2  C   UNL     1       4.772   5.190  18.970  0.00  0.00    +0.000 A 
ATOM      3  N   UNL     1       4.937   3.958  19.426  0.00  0.00    +0.000 NA
ATOM      4  C   UNL     1       3.758   3.608  20.017  0.00  0.00    +0.000 A 
ATOM      5  C   UNL     1       3.414   2.404  20.652  0.00  0.00    +0.000 A 
ATOM      6  C   UNL     1       2.132   2.257  21.187  0.00  0.00    +0.000 A 
ATOM      7  C   UNL     1       1.198   3.282  21.064  0.00  0.00    +0.000 A 
ATOM      8  C   UNL     1       1.519   4.483  20.418  0.00  0.00    +0.000 A 
ATOM      9  C   UNL     1       2.825   4.637  19.925  0.00  0.00    +0.000 A 
ENDROOT
BRANCH   2  10
ATOM     10  C   UNL     1       5.872   5.886  18.213  0.00  0.00    +0.000 A 
ATOM     11  N   UNL     1       5.723   6.469  17.020  0.00  0.00    +0.000 NA
ATOM     12  O   UNL     1       6.967   7.011  16.725  0.00  0.00    +0.000 OA
ATOM     13  N   UNL     1       7.890   6.745  17.727  0.00  0.00    +0.000 NA
ATOM     14  C   UNL     1       7.219   6.043  18.640  0.00  0.00    +0.000 A 
ATOM     15  N   UNL     1       7.755   5.554  19.776  0.00  0.00    +0.000 N 
ATOM     16  H   UNL     1       8.671   5.856  20.089  0.00  0.00    +0.000 HD
ATOM     17  H   UNL     1       7.152   5.127  20.477  0.00  0.00    +0.000 HD
ENDBRANCH   2  10
BRANCH   1  19
ATOM     18  C   UNL     1       2.281   7.034  17.654  0.00  0.00    +0.000 C 
ATOM     19  C   UNL     1       2.982   7.003  19.011  0.00  0.00    +0.000 C 
ATOM     20  C   UNL     1       2.093   7.613  20.102  0.00  0.00    +0.000 C 
ENDBRANCH   1  19
TORSDOF 2
ENDMDL
