MODEL 1
REMARK VINA RESULT:      -5.8      0.000      0.000
REMARK  Name = 
REMARK  5 active torsions:
REMARK  status: ('A' for Active; 'I' for Inactive)
REMARK    1  A    between atoms: C_2  and  C_3
REMARK    2  A    between atoms: C_2  and  C_4
REMARK    3  A    between atoms: C_4  and  N_5
REMARK    4  A    between atoms: C_6  and  N_7
REMARK    5  A    between atoms: N_11  and  C_12
REMARK                            x       y       z     vdW  Elec       q    Type
REMARK                         _______ _______ _______ _____ _____    ______ ____
ROOT
ATOM      1  N   UNL     1       4.675   5.031  18.735  0.00  0.00    +0.000 N 
ATOM      2  C   UNL     1       3.763   5.873  18.115  0.00  0.00    +0.000 A 
ATOM      3  C   UNL     1       2.568   5.389  17.759  0.00  0.00    +0.000 A 
ATOM      4  C   UNL     1       2.206   3.988  17.999  0.00  0.00    +0.000 A 
ATOM      5  O   UNL     1       1.126   3.578  17.579  0.00  0.00    +0.000 OA
ATOM      6  N   UNL     1       3.127   3.238  18.690  0.00  0.00    +0.000 N 
ATOM      7  C   UNL     1       2.806   1.862  19.018  0.00  0.00    +0.000 C 
ATOM      8  C   UNL     1       4.376   3.706  19.068  0.00  0.00    +0.000 A 
ATOM      9  O   UNL     1       5.176   2.974  19.657  0.00  0.00    +0.000 OA
ENDROOT
BRANCH   2  10
ATOM     10  N   UNL     1       4.041   7.207  17.867  0.00  0.00    +0.000 N 
ATOM     11  H   UNL     1       3.521   7.574  17.077  0.00  0.00    +0.000 HD
ATOM     12  H   UNL     1       3.940   7.808  18.681  0.00  0.00    +0.000 HD
ENDBRANCH   2  10
BRANCH   1  13
ATOM     13  C   UNL     1       6.004   5.514  19.124  0.00  0.00    +0.000 C 
BRANCH  13  15
ATOM     14  C   UNL     1       7.150   4.572  17.099  0.00  0.00    +0.000 C 
ATOM     15  C   UNL     1       6.924   5.614  17.919  0.00  0.00    +0.000 C 
ATOM     16  C   UNL     1       7.520   6.965  17.623  0.00  0.00    +0.000 C 
ENDBRANCH  13  15
ENDBRANCH   1  13
TORSDOF 3
ENDMDL
MODEL 2
REMARK VINA RESULT:      -5.6      1.973      4.203
REMARK  Name = 
REMARK  5 active torsions:
REMARK  status: ('A' for Active; 'I' for Inactive)
REMARK    1  A    between atoms: C_2  and  C_3
REMARK    2  A    between atoms: C_2  and  C_4
REMARK    3  A    between atoms: C_4  and  N_5
REMARK    4  A    between atoms: C_6  and  N_7
REMARK    5  A    between atoms: N_11  and  C_12
REMARK                            x       y       z     vdW  Elec       q    Type
REMARK                         _______ _______ _______ _____ _____    ______ ____
ROOT
ATOM      1  N   UNL     1       4.019   5.354  18.893  0.00  0.00    +0.000 N 
ATOM      2  C   UNL     1       3.650   6.452  18.129  0.00  0.00    +0.000 A 
ATOM      3  C   UNL     1       4.532   6.968  17.264  0.00  0.00    +0.000 A 
ATOM      4  C   UNL     1       5.879   6.406  17.116  0.00  0.00    +0.000 A 
ATOM      5  O   UNL     1       6.673   6.969  16.366  0.00  0.00    +0.000 OA
ATOM      6  N   UNL     1       6.142   5.272  17.845  0.00  0.00    +0.000 N 
ATOM      7  C   UNL     1       7.433   4.627  17.698  0.00  0.00    +0.000 C 
ATOM      8  C   UNL     1       5.255   4.715  18.753  0.00  0.00    +0.000 A 
ATOM      9  O   UNL     1       5.561   3.714  19.407  0.00  0.00    +0.000 OA
ENDROOT
BRANCH   2  10
ATOM     10  N   UNL     1       2.392   7.023  18.216  0.00  0.00    +0.000 N 
ATOM     11  H   UNL     1       1.773   6.510  18.836  0.00  0.00    +0.000 HD
ATOM     12  H   UNL     1       2.403   8.013  18.450  0.00  0.00    +0.000 HD
ENDBRANCH   2  10
BRANCH   1  13
ATOM     13  C   UNL     1       3.091   4.769  19.867  0.00  0.00    +0.000 C 
BRANCH  13  15
ATOM     14  C   UNL     1       2.277   3.378  17.942  0.00  0.00    +0.000 C 
ATOM     15  C   UNL     1       2.085   3.858  19.184  0.00  0.00    +0.000 C 
ATOM     16  C   UNL     1       0.883   3.441  19.990  0.00  0.00    +0.000 C 
ENDBRANCH  13  15
ENDBRANCH   1  13
TORSDOF 3
ENDMDL
MODEL 3
REMARK VINA RESULT:      -5.6      2.230      4.450
REMARK  Name = 
REMARK  5 active torsions:
REMARK  status: ('A' for Active; 'I' for Inactive)
REMARK    1  A    between atoms: C_2  and  C_3
REMARK    2  A    between atoms: C_2  and  C_4
REMARK    3  A    between atoms: C_4  and  N_5
REMARK    4  A    between atoms: C_6  and  N_7
REMARK    5  A    between atoms: N_11  and  C_12
REMARK                            x       y       z     vdW  Elec       q    Type
REMARK                         _______ _______ _______ _____ _____    ______ ____
ROOT
ATOM      1  N   UNL     1       4.147   3.316  18.951  0.00  0.00    +0.000 N 
ATOM      2  C   UNL     1       3.485   2.885  17.811  0.00  0.00    +0.000 A 
ATOM      3  C   UNL     1       3.848   3.379  16.621  0.00  0.00    +0.000 A 
ATOM      4  C   UNL     1       4.920   4.373  16.499  0.00  0.00    +0.000 A 
ATOM      5  O   UNL     1       5.156   4.851  15.392  0.00  0.00    +0.000 OA
ATOM      6  N   UNL     1       5.583   4.689  17.660  0.00  0.00    +0.000 N 
ATOM      7  C   UNL     1       6.696   5.617  17.601  0.00  0.00    +0.000 C 
ATOM      8  C   UNL     1       5.230   4.200  18.908  0.00  0.00    +0.000 A 
ATOM      9  O   UNL     1       5.841   4.548  19.922  0.00  0.00    +0.000 OA
ENDROOT
BRANCH   2  10
ATOM     10  N   UNL     1       2.470   1.944  17.858  0.00  0.00    +0.000 N 
ATOM     11  H   UNL     1       1.777   2.080  17.130  0.00  0.00    +0.000 HD
ATOM     12  H   UNL     1       2.800   0.981  17.872  0.00  0.00    +0.000 HD
ENDBRANCH   2  10
BRANCH   1  13
ATOM     13  C   UNL     1       3.769   2.815  20.277  0.00  0.00    +0.000 C 
BRANCH  13  15
ATOM     14  C   UNL     1       2.322   4.840  20.609  0.00  0.00    +0.000 C 
ATOM     15  C   UNL     1       2.529   3.524  20.795  0.00  0.00    +0.000 C 
ATOM     16  C   UNL     1       1.484   2.670  21.465  0.00  0.00    +0.000 C 
ENDBRANCH  13  15
ENDBRANCH   1  13
TORSDOF 3
ENDMDL
MODEL 4
REMARK VINA RESULT:      -5.6      1.954      4.632
REMARK  Name = 
REMARK  5 active torsions:
REMARK  status: ('A' for Active; 'I' for Inactive)
REMARK    1  A    between atoms: C_2  and  C_3
REMARK    2  A    between atoms: C_2  and  C_4
REMARK    3  A    between atoms: C_4  and  N_5
REMARK    4  A    between atoms: C_6  and  N_7
REMARK    5  A    between atoms: N_11  and  C_12
REMARK                            x       y       z     vdW  Elec       q    Type
REMARK                         _______ _______ _______ _____ _____    ______ ____
ROOT
ATOM      1  N   UNL     1       3.984   4.569  17.937  0.00  0.00    +0.000 N 
ATOM      2  C   UNL     1       4.338   5.040  19.192  0.00  0.00    +0.000 A 
ATOM      3  C   UNL     1       5.627   5.283  19.457  0.00  0.00    +0.000 A 
ATOM      4  C   UNL     1       6.671   5.050  18.453  0.00  0.00    +0.000 A 
ATOM      5  O   UNL     1       7.846   5.213  18.777  0.00  0.00    +0.000 OA
ATOM      6  N   UNL     1       6.237   4.662  17.210  0.00  0.00    +0.000 N 
ATOM      7  C   UNL     1       7.212   4.476  16.152  0.00  0.00    +0.000 C 
ATOM      8  C   UNL     1       4.911   4.397  16.904  0.00  0.00    +0.000 A 
ATOM      9  O   UNL     1       4.583   4.016  15.776  0.00  0.00    +0.000 OA
ENDROOT
BRANCH   2  10
ATOM     10  N   UNL     1       3.399   5.287  20.179  0.00  0.00    +0.000 N 
ATOM     11  H   UNL     1       3.402   4.580  20.907  0.00  0.00    +0.000 HD
ATOM     12  H   UNL     1       3.454   6.221  20.578  0.00  0.00    +0.000 HD
ENDBRANCH   2  10
BRANCH   1  13
ATOM     13  C   UNL     1       2.585   4.271  17.610  0.00  0.00    +0.000 C 
BRANCH  13  15
ATOM     14  C   UNL     1       2.991   1.832  18.042  0.00  0.00    +0.000 C 
ATOM     15  C   UNL     1       2.181   2.902  18.131  0.00  0.00    +0.000 C 
ATOM     16  C   UNL     1       0.854   2.803  18.835  0.00  0.00    +0.000 C 
ENDBRANCH  13  15
ENDBRANCH   1  13
TORSDOF 3
ENDMDL
MODEL 5
REMARK VINA RESULT:      -5.6      2.025      3.241
REMARK  Name = 
REMARK  5 active torsions:
REMARK  status: ('A' for Active; 'I' for Inactive)
REMARK    1  A    between atoms: C_2  and  C_3
REMARK    2  A    between atoms: C_2  and  C_4
REMARK    3  A    between atoms: C_4  and  N_5
REMARK    4  A    between atoms: C_6  and  N_7
REMARK    5  A    between atoms: N_11  and  C_12
REMARK                            x       y       z     vdW  Elec       q    Type
REMARK                         _______ _______ _______ _____ _____    ______ ____
ROOT
ATOM      1  N   UNL     1       3.667   3.901  18.217  0.00  0.00    +0.000 N 
ATOM      2  C   UNL     1       4.685   3.568  19.099  0.00  0.00    +0.000 A 
ATOM      3  C   UNL     1       4.367   3.067  20.299  0.00  0.00    +0.000 A 
ATOM      4  C   UNL     1       2.969   2.876  20.704  0.00  0.00    +0.000 A 
ATOM      5  O   UNL     1       2.735   2.489  21.846  0.00  0.00    +0.000 OA
ATOM      6  N   UNL     1       2.023   3.151  19.748  0.00  0.00    +0.000 N 
ATOM      7  C   UNL     1       0.624   2.923  20.059  0.00  0.00    +0.000 C 
ATOM      8  C   UNL     1       2.317   3.675  18.498  0.00  0.00    +0.000 A 
ATOM      9  O   UNL     1       1.419   3.936  17.692  0.00  0.00    +0.000 OA
ENDROOT
BRANCH   2  10
ATOM     10  N   UNL     1       6.022   3.717  18.774  0.00  0.00    +0.000 N 
ATOM     11  H   UNL     1       6.640   3.473  19.542  0.00  0.00    +0.000 HD
ATOM     12  H   UNL     1       6.296   3.239  17.920  0.00  0.00    +0.000 HD
ENDBRANCH   2  10
BRANCH   1  13
ATOM     13  C   UNL     1       3.970   4.470  16.899  0.00  0.00    +0.000 C 
BRANCH  13  15
ATOM     14  C   UNL     1       3.638   6.798  17.779  0.00  0.00    +0.000 C 
ATOM     15  C   UNL     1       4.334   5.941  17.009  0.00  0.00    +0.000 C 
ATOM     16  C   UNL     1       5.570   6.397  16.279  0.00  0.00    +0.000 C 
ENDBRANCH  13  15
ENDBRANCH   1  13
TORSDOF 3
ENDMDL
MODEL 6
REMARK VINA RESULT:      -5.5      2.170      3.169
REMARK  Name = 
REMARK  5 active torsions:
REMARK  status: ('A' for Active; 'I' for Inactive)
REMARK    1  A    between atoms: C_2  and  C_3
REMARK    2  A    between atoms: C_2  and  C_4
REMARK    3  A    between atoms: C_4  and  N_5
REMARK    4  A    between atoms: C_6  and  N_7
REMARK    5  A    between atoms: N_11  and  C_12
REMARK                            x       y       z     vdW  Elec       q    Type
REMARK                         _______ _______ _______ _____ _____    ______ ____
ROOT
ATOM      1  N   UNL     1       4.864   5.392  18.316  0.00  0.00    +0.000 N 
ATOM      2  C   UNL     1       4.541   4.349  19.172  0.00  0.00    +0.000 A 
ATOM      3  C   UNL     1       3.427   4.434  19.910  0.00  0.00    +0.000 A 
ATOM      4  C   UNL     1       2.551   5.608  19.842  0.00  0.00    +0.000 A 
ATOM      5  O   UNL     1       1.586   5.668  20.601  0.00  0.00    +0.000 OA
ATOM      6  N   UNL     1       2.892   6.561  18.914  0.00  0.00    +0.000 N 
ATOM      7  C   UNL     1       2.034   7.719  18.748  0.00  0.00    +0.000 C 
ATOM      8  C   UNL     1       4.040   6.507  18.138  0.00  0.00    +0.000 A 
ATOM      9  O   UNL     1       4.313   7.412  17.344  0.00  0.00    +0.000 OA
ENDROOT
BRANCH   2  10
ATOM     10  N   UNL     1       5.322   3.210  19.276  0.00  0.00    +0.000 N 
ATOM     11  H   UNL     1       5.532   2.968  20.239  0.00  0.00    +0.000 HD
ATOM     12  H   UNL     1       4.953   2.409  18.771  0.00  0.00    +0.000 HD
ENDBRANCH   2  10
BRANCH   1  13
ATOM     13  C   UNL     1       6.084   5.348  17.503  0.00  0.00    +0.000 C 
BRANCH  13  15
ATOM     14  C   UNL     1       7.849   5.712  19.252  0.00  0.00    +0.000 C 
ATOM     15  C   UNL     1       7.203   6.145  18.155  0.00  0.00    +0.000 C 
ATOM     16  C   UNL     1       7.624   7.418  17.469  0.00  0.00    +0.000 C 
ENDBRANCH  13  15
ENDBRANCH   1  13
TORSDOF 3
ENDMDL
MODEL 7
REMARK VINA RESULT:      -5.5      2.238      4.228
REMARK  Name = 
REMARK  5 active torsions:
REMARK  status: ('A' for Active; 'I' for Inactive)
REMARK    1  A    between atoms: C_2  and  C_3
REMARK    2  A    between atoms: C_2  and  C_4
REMARK    3  A    between atoms: C_4  and  N_5
REMARK    4  A    between atoms: C_6  and  N_7
REMARK    5  A    between atoms: N_11  and  C_12
REMARK                            x       y       z     vdW  Elec       q    Type
REMARK                         _______ _______ _______ _____ _____    ______ ____
ROOT
ATOM      1  N   UNL     1       4.129   4.654  18.636  0.00  0.00    +0.000 N 
ATOM      2  C   UNL     1       3.518   4.236  17.462  0.00  0.00    +0.000 A 
ATOM      3  C   UNL     1       4.275   3.986  16.388  0.00  0.00    +0.000 A 
ATOM      4  C   UNL     1       5.731   4.156  16.420  0.00  0.00    +0.000 A 
ATOM      5  O   UNL     1       6.367   3.991  15.381  0.00  0.00    +0.000 OA
ATOM      6  N   UNL     1       6.271   4.493  17.637  0.00  0.00    +0.000 N 
ATOM      7  C   UNL     1       7.712   4.614  17.756  0.00  0.00    +0.000 C 
ATOM      8  C   UNL     1       5.517   4.763  18.768  0.00  0.00    +0.000 A 
ATOM      9  O   UNL     1       6.057   5.096  19.827  0.00  0.00    +0.000 OA
ENDROOT
BRANCH   2  10
ATOM     10  N   UNL     1       2.149   4.049  17.370  0.00  0.00    +0.000 N 
ATOM     11  H   UNL     1       1.657   4.895  17.101  0.00  0.00    +0.000 HD
ATOM     12  H   UNL     1       1.878   3.266  16.780  0.00  0.00    +0.000 HD
ENDBRANCH   2  10
BRANCH   1  13
ATOM     13  C   UNL     1       3.336   4.956  19.832  0.00  0.00    +0.000 C 
BRANCH  13  15
ATOM     14  C   UNL     1       3.463   2.585  20.646  0.00  0.00    +0.000 C 
ATOM     15  C   UNL     1       2.733   3.692  20.422  0.00  0.00    +0.000 C 
ATOM     16  C   UNL     1       1.285   3.751  20.829  0.00  0.00    +0.000 C 
ENDBRANCH  13  15
ENDBRANCH   1  13
TORSDOF 3
ENDMDL
MODEL 8
REMARK VINA RESULT:      -5.5      2.267      4.420
REMARK  Name = 
REMARK  5 active torsions:
REMARK  status: ('A' for Active; 'I' for Inactive)
REMARK    1  A    between atoms: C_2  and  C_3
REMARK    2  A    between atoms: C_2  and  C_4
REMARK    3  A    between atoms: C_4  and  N_5
REMARK    4  A    between atoms: C_6  and  N_7
REMARK    5  A    between atoms: N_11  and  C_12
REMARK                            x       y       z     vdW  Elec       q    Type
REMARK                         _______ _______ _______ _____ _____    ______ ____
ROOT
ATOM      1  N   UNL     1       4.465   4.073  18.516  0.00  0.00    +0.000 N 
ATOM      2  C   UNL     1       3.916   3.844  17.263  0.00  0.00    +0.000 A 
ATOM      3  C   UNL     1       4.469   4.427  16.194  0.00  0.00    +0.000 A 
ATOM      4  C   UNL     1       5.634   5.310  16.319  0.00  0.00    +0.000 A 
ATOM      5  O   UNL     1       6.051   5.882  15.315  0.00  0.00    +0.000 OA
ATOM      6  N   UNL     1       6.170   5.424  17.578  0.00  0.00    +0.000 N 
ATOM      7  C   UNL     1       7.361   6.231  17.763  0.00  0.00    +0.000 C 
ATOM      8  C   UNL     1       5.619   4.838  18.708  0.00  0.00    +0.000 A 
ATOM      9  O   UNL     1       6.126   5.005  19.821  0.00  0.00    +0.000 OA
ENDROOT
BRANCH   2  10
ATOM     10  N   UNL     1       2.823   3.014  17.077  0.00  0.00    +0.000 N 
ATOM     11  H   UNL     1       2.468   2.634  17.949  0.00  0.00    +0.000 HD
ATOM     12  H   UNL     1       2.074   3.434  16.532  0.00  0.00    +0.000 HD
ENDBRANCH   2  10
BRANCH   1  13
ATOM     13  C   UNL     1       3.878   3.470  19.718  0.00  0.00    +0.000 C 
BRANCH  13  15
ATOM     14  C   UNL     1       2.474   5.512  20.117  0.00  0.00    +0.000 C 
ATOM     15  C   UNL     1       2.588   4.172  20.108  0.00  0.00    +0.000 C 
ATOM     16  C   UNL     1       1.399   3.299  20.411  0.00  0.00    +0.000 C 
ENDBRANCH  13  15
ENDBRANCH   1  13
TORSDOF 3
ENDMDL
MODEL 9
REMARK VINA RESULT:      -5.5      2.228      3.459
REMARK  Name = 
REMARK  5 active torsions:
REMARK  status: ('A' for Active; 'I' for Inactive)
REMARK    1  A    between atoms: C_2  and  C_3
REMARK    2  A    between atoms: C_2  and  C_4
REMARK    3  A    between atoms: C_4  and  N_5
REMARK    4  A    between atoms: C_6  and  N_7
REMARK    5  A    between atoms: N_11  and  C_12
REMARK                            x       y       z     vdW  Elec       q    Type
REMARK                         _______ _______ _______ _____ _____    ______ ____
ROOT
ATOM      1  N   UNL     1       3.433   3.727  18.289  0.00  0.00    +0.000 N 
ATOM      2  C   UNL     1       3.586   2.520  18.956  0.00  0.00    +0.000 A 
ATOM      3  C   UNL     1       3.136   2.409  20.211  0.00  0.00    +0.000 A 
ATOM      4  C   UNL     1       2.498   3.536  20.899  0.00  0.00    +0.000 A 
ATOM      5  O   UNL     1       2.177   3.402  22.078  0.00  0.00    +0.000 OA
ATOM      6  N   UNL     1       2.309   4.670  20.149  0.00  0.00    +0.000 N 
ATOM      7  C   UNL     1       1.626   5.802  20.747  0.00  0.00    +0.000 C 
ATOM      8  C   UNL     1       2.766   4.821  18.849  0.00  0.00    +0.000 A 
ATOM      9  O   UNL     1       2.598   5.879  18.235  0.00  0.00    +0.000 OA
ENDROOT
BRANCH   2  10
ATOM     10  N   UNL     1       4.172   1.417  18.359  0.00  0.00    +0.000 N 
ATOM     11  H   UNL     1       5.158   1.556  18.164  0.00  0.00    +0.000 HD
ATOM     12  H   UNL     1       4.020   0.545  18.862  0.00  0.00    +0.000 HD
ENDBRANCH   2  10
BRANCH   1  13
ATOM     13  C   UNL     1       3.928   3.899  16.919  0.00  0.00    +0.000 C 
BRANCH  13  15
ATOM     14  C   UNL     1       6.233   4.494  17.717  0.00  0.00    +0.000 C 
ATOM     15  C   UNL     1       5.195   4.738  16.897  0.00  0.00    +0.000 C 
ATOM     16  C   UNL     1       5.281   5.819  15.853  0.00  0.00    +0.000 C 
ENDBRANCH  13  15
ENDBRANCH   1  13
TORSDOF 3
ENDMDL
