MODEL 1
REMARK VINA RESULT:      -6.8      0.000      0.000
REMARK  Name = 
REMARK  4 active torsions:
REMARK  status: ('A' for Active; 'I' for Inactive)
REMARK    1  A    between atoms: N_8  and  C_9
REMARK    2  A    between atoms: C_11  and  C_12
REMARK    3  A    between atoms: C_12  and  O_13
REMARK    4  A    between atoms: C_14  and  O_15
REMARK                            x       y       z     vdW  Elec       q    Type
REMARK                         _______ _______ _______ _____ _____    ______ ____
ROOT
ATOM      1  C   UNL     1       3.767   4.749  17.866  0.00  0.00    +0.000 C 
ATOM      2  O   UNL     1       4.316   6.097  17.755  0.00  0.00    +0.000 OA
ATOM      3  C   UNL     1       5.743   6.008  17.951  0.00  0.00    +0.000 C 
ATOM      4  C   UNL     1       6.127   4.593  17.546  0.00  0.00    +0.000 C 
ATOM      5  C   UNL     1       4.947   3.795  18.064  0.00  0.00    +0.000 C 
ATOM      6  F   UNL     1       5.159   3.560  19.394  0.00  0.00    +0.000 F 
ENDROOT
BRANCH   1  14
ATOM      7  O   UNL     1       2.099   2.544  17.318  0.00  0.00    +0.000 OA
ATOM      8  N   UNL     1       1.333   2.800  18.255  0.00  0.00    +0.000 N 
ATOM      9  O   UNL     1       0.299   2.172  18.524  0.00  0.00    +0.000 OA
ATOM     10  C   UNL     1       1.691   3.904  19.109  0.00  0.00    +0.000 A 
ATOM     11  N   UNL     1       0.975   4.227  20.171  0.00  0.00    +0.000 NA
ATOM     12  C   UNL     1       1.631   5.284  20.735  0.00  0.00    +0.000 A 
ATOM     13  C   UNL     1       2.754   5.602  20.009  0.00  0.00    +0.000 A 
ATOM     14  N   UNL     1       2.776   4.729  18.939  0.00  0.00    +0.000 N 
ENDBRANCH   1  14
BRANCH   4  15
ATOM     15  O   UNL     1       7.359   4.189  18.132  0.00  0.00    +0.000 OA
ATOM     16  H   UNL     1       7.651   3.377  17.672  0.00  0.00    +0.000 HD
ENDBRANCH   4  15
BRANCH   3  17
ATOM     17  C   UNL     1       6.460   7.090  17.143  0.00  0.00    +0.000 C 
BRANCH  17  18
ATOM     18  O   UNL     1       7.546   6.535  16.402  0.00  0.00    +0.000 OA
ATOM     19  H   UNL     1       7.585   7.019  15.556  0.00  0.00    +0.000 HD
ENDBRANCH  17  18
ENDBRANCH   3  17
TORSDOF 4
ENDMDL
MODEL 2
REMARK VINA RESULT:      -6.7      3.021      5.436
REMARK  Name = 
REMARK  4 active torsions:
REMARK  status: ('A' for Active; 'I' for Inactive)
REMARK    1  A    between atoms: N_8  and  C_9
REMARK    2  A    between atoms: C_11  and  C_12
REMARK    3  A    between atoms: C_12  and  O_13
REMARK    4  A    between atoms: C_14  and  O_15
REMARK                            x       y       z     vdW  Elec       q    Type
REMARK                         _______ _______ _______ _____ _____    ______ ____
ROOT
ATOM      1  C   UNL     1       5.389   3.982  17.413  0.00  0.00    +0.000 C 
ATOM      2  O   UNL     1       5.483   3.513  18.792  0.00  0.00    +0.000 OA
ATOM      3  C   UNL     1       4.150   3.499  19.344  0.00  0.00    +0.000 C 
ATOM      4  C   UNL     1       3.214   3.339  18.155  0.00  0.00    +0.000 C 
ATOM      5  C   UNL     1       3.905   4.186  17.104  0.00  0.00    +0.000 C 
ATOM      6  F   UNL     1       3.542   5.487  17.319  0.00  0.00    +0.000 F 
ENDROOT
BRANCH   1  14
ATOM      7  O   UNL     1       6.321   3.931  14.753  0.00  0.00    +0.000 OA
ATOM      8  N   UNL     1       7.036   4.929  14.909  0.00  0.00    +0.000 N 
ATOM      9  O   UNL     1       7.789   5.409  14.049  0.00  0.00    +0.000 OA
ATOM     10  C   UNL     1       6.964   5.590  16.187  0.00  0.00    +0.000 A 
ATOM     11  N   UNL     1       7.641   6.696  16.440  0.00  0.00    +0.000 NA
ATOM     12  C   UNL     1       7.301   7.038  17.718  0.00  0.00    +0.000 A 
ATOM     13  C   UNL     1       6.410   6.131  18.242  0.00  0.00    +0.000 A 
ATOM     14  N   UNL     1       6.217   5.177  17.262  0.00  0.00    +0.000 N 
ENDBRANCH   1  14
BRANCH   4  15
ATOM     15  O   UNL     1       1.900   3.797  18.448  0.00  0.00    +0.000 OA
ATOM     16  H   UNL     1       1.758   4.625  17.948  0.00  0.00    +0.000 HD
ENDBRANCH   4  15
BRANCH   3  17
ATOM     17  C   UNL     1       4.014   2.385  20.382  0.00  0.00    +0.000 C 
BRANCH  17  18
ATOM     18  O   UNL     1       5.175   1.555  20.390  0.00  0.00    +0.000 OA
ATOM     19  H   UNL     1       5.245   1.162  19.501  0.00  0.00    +0.000 HD
ENDBRANCH  17  18
ENDBRANCH   3  17
TORSDOF 4
ENDMDL
MODEL 3
REMARK VINA RESULT:      -6.7      2.356      5.443
REMARK  Name = 
REMARK  4 active torsions:
REMARK  status: ('A' for Active; 'I' for Inactive)
REMARK    1  A    between atoms: N_8  and  C_9
REMARK    2  A    between atoms: C_11  and  C_12
REMARK    3  A    between atoms: C_12  and  O_13
REMARK    4  A    between atoms: C_14  and  O_15
REMARK                            x       y       z     vdW  Elec       q    Type
REMARK                         _______ _______ _______ _____ _____    ______ ____
ROOT
ATOM      1  C   UNL     1       4.447   4.611  19.172  0.00  0.00    +0.000 C 
ATOM      2  O   UNL     1       3.113   5.097  19.513  0.00  0.00    +0.000 OA
ATOM      3  C   UNL     1       2.188   4.004  19.333  0.00  0.00    +0.000 C 
ATOM      4  C   UNL     1       3.010   2.736  19.508  0.00  0.00    +0.000 C 
ATOM      5  C   UNL     1       4.317   3.123  18.843  0.00  0.00    +0.000 C 
ATOM      6  F   UNL     1       4.166   2.938  17.497  0.00  0.00    +0.000 F 
ENDROOT
BRANCH   1  14
ATOM      7  O   UNL     1       7.075   5.264  19.955  0.00  0.00    +0.000 OA
ATOM      8  N   UNL     1       7.258   6.002  18.980  0.00  0.00    +0.000 N 
ATOM      9  O   UNL     1       8.283   6.668  18.771  0.00  0.00    +0.000 OA
ATOM     10  C   UNL     1       6.200   6.071  18.004  0.00  0.00    +0.000 A 
ATOM     11  N   UNL     1       6.316   6.782  16.897  0.00  0.00    +0.000 NA
ATOM     12  C   UNL     1       5.147   6.580  16.220  0.00  0.00    +0.000 A 
ATOM     13  C   UNL     1       4.318   5.737  16.922  0.00  0.00    +0.000 A 
ATOM     14  N   UNL     1       4.988   5.433  18.092  0.00  0.00    +0.000 N 
ENDBRANCH   1  14
BRANCH   4  15
ATOM     15  O   UNL     1       2.394   1.614  18.887  0.00  0.00    +0.000 OA
ATOM     16  H   UNL     1       1.734   1.256  19.513  0.00  0.00    +0.000 HD
ENDBRANCH   4  15
BRANCH   3  17
ATOM     17  C   UNL     1       1.027   4.120  20.321  0.00  0.00    +0.000 C 
BRANCH  17  18
ATOM     18  O   UNL     1       0.784   2.871  20.967  0.00  0.00    +0.000 OA
ATOM     19  H   UNL     1       1.596   2.341  20.867  0.00  0.00    +0.000 HD
ENDBRANCH  17  18
ENDBRANCH   3  17
TORSDOF 4
ENDMDL
MODEL 4
REMARK VINA RESULT:      -6.6      2.736      5.408
REMARK  Name = 
REMARK  4 active torsions:
REMARK  status: ('A' for Active; 'I' for Inactive)
REMARK    1  A    between atoms: N_8  and  C_9
REMARK    2  A    between atoms: C_11  and  C_12
REMARK    3  A    between atoms: C_12  and  O_13
REMARK    4  A    between atoms: C_14  and  O_15
REMARK                            x       y       z     vdW  Elec       q    Type
REMARK                         _______ _______ _______ _____ _____    ______ ____
ROOT
ATOM      1  C   UNL     1       4.680   3.483  17.894  0.00  0.00    +0.000 C 
ATOM      2  O   UNL     1       4.152   3.135  19.210  0.00  0.00    +0.000 OA
ATOM      3  C   UNL     1       2.751   3.481  19.227  0.00  0.00    +0.000 C 
ATOM      4  C   UNL     1       2.297   3.431  17.776  0.00  0.00    +0.000 C 
ATOM      5  C   UNL     1       3.507   3.995  17.056  0.00  0.00    +0.000 C 
ATOM      6  F   UNL     1       3.427   5.358  17.122  0.00  0.00    +0.000 F 
ENDROOT
BRANCH   1  14
ATOM      7  O   UNL     1       5.938   3.644  15.377  0.00  0.00    +0.000 OA
ATOM      8  N   UNL     1       6.837   4.385  15.794  0.00  0.00    +0.000 N 
ATOM      9  O   UNL     1       7.794   4.795  15.121  0.00  0.00    +0.000 OA
ATOM     10  C   UNL     1       6.743   4.818  17.165  0.00  0.00    +0.000 A 
ATOM     11  N   UNL     1       7.616   5.656  17.694  0.00  0.00    +0.000 NA
ATOM     12  C   UNL     1       7.189   5.853  18.977  0.00  0.00    +0.000 A 
ATOM     13  C   UNL     1       6.047   5.129  19.224  0.00  0.00    +0.000 A 
ATOM     14  N   UNL     1       5.776   4.435  18.061  0.00  0.00    +0.000 N 
ENDBRANCH   1  14
BRANCH   4  15
ATOM     15  O   UNL     1       1.124   4.207  17.560  0.00  0.00    +0.000 OA
ATOM     16  H   UNL     1       1.102   4.904  18.244  0.00  0.00    +0.000 HD
ENDBRANCH   4  15
BRANCH   3  17
ATOM     17  C   UNL     1       1.978   2.529  20.141  0.00  0.00    +0.000 C 
BRANCH  17  18
ATOM     18  O   UNL     1       0.633   2.972  20.313  0.00  0.00    +0.000 OA
ATOM     19  H   UNL     1       0.155   2.249  20.760  0.00  0.00    +0.000 HD
ENDBRANCH  17  18
ENDBRANCH   3  17
TORSDOF 4
ENDMDL
MODEL 5
REMARK VINA RESULT:      -6.5      1.979      2.874
REMARK  Name = 
REMARK  4 active torsions:
REMARK  status: ('A' for Active; 'I' for Inactive)
REMARK    1  A    between atoms: N_8  and  C_9
REMARK    2  A    between atoms: C_11  and  C_12
REMARK    3  A    between atoms: C_12  and  O_13
REMARK    4  A    between atoms: C_14  and  O_15
REMARK                            x       y       z     vdW  Elec       q    Type
REMARK                         _______ _______ _______ _____ _____    ______ ____
ROOT
ATOM      1  C   UNL     1       4.476   5.151  18.870  0.00  0.00    +0.000 C 
ATOM      2  O   UNL     1       5.812   4.790  19.334  0.00  0.00    +0.000 OA
ATOM      3  C   UNL     1       6.764   5.322  18.389  0.00  0.00    +0.000 C 
ATOM      4  C   UNL     1       6.076   6.510  17.735  0.00  0.00    +0.000 C 
ATOM      5  C   UNL     1       4.649   6.011  17.617  0.00  0.00    +0.000 C 
ATOM      6  F   UNL     1       4.573   5.241  16.490  0.00  0.00    +0.000 F 
ENDROOT
BRANCH   1  14
ATOM      7  O   UNL     1       2.015   5.599  20.171  0.00  0.00    +0.000 OA
ATOM      8  N   UNL     1       1.612   4.448  19.958  0.00  0.00    +0.000 N 
ATOM      9  O   UNL     1       0.534   3.985  20.357  0.00  0.00    +0.000 OA
ATOM     10  C   UNL     1       2.460   3.595  19.164  0.00  0.00    +0.000 A 
ATOM     11  N   UNL     1       2.099   2.370  18.828  0.00  0.00    +0.000 NA
ATOM     12  C   UNL     1       3.126   1.893  18.064  0.00  0.00    +0.000 A 
ATOM     13  C   UNL     1       4.115   2.840  17.935  0.00  0.00    +0.000 A 
ATOM     14  N   UNL     1       3.698   3.930  18.673  0.00  0.00    +0.000 N 
ENDBRANCH   1  14
BRANCH   4  15
ATOM     15  O   UNL     1       6.649   6.826  16.472  0.00  0.00    +0.000 OA
ATOM     16  H   UNL     1       6.066   7.481  16.040  0.00  0.00    +0.000 HD
ENDBRANCH   4  15
BRANCH   3  17
ATOM     17  C   UNL     1       8.070   5.686  19.096  0.00  0.00    +0.000 C 
BRANCH  17  18
ATOM     18  O   UNL     1       7.972   5.446  20.499  0.00  0.00    +0.000 OA
ATOM     19  H   UNL     1       7.160   5.890  20.803  0.00  0.00    +0.000 HD
ENDBRANCH  17  18
ENDBRANCH   3  17
TORSDOF 4
ENDMDL
MODEL 6
REMARK VINA RESULT:      -6.5      2.214      2.694
REMARK  Name = 
REMARK  4 active torsions:
REMARK  status: ('A' for Active; 'I' for Inactive)
REMARK    1  A    between atoms: N_8  and  C_9
REMARK    2  A    between atoms: C_11  and  C_12
REMARK    3  A    between atoms: C_12  and  O_13
REMARK    4  A    between atoms: C_14  and  O_15
REMARK                            x       y       z     vdW  Elec       q    Type
REMARK                         _______ _______ _______ _____ _____    ______ ____
ROOT
ATOM      1  C   UNL     1       5.244   3.972  17.648  0.00  0.00    +0.000 C 
ATOM      2  O   UNL     1       5.194   3.921  16.190  0.00  0.00    +0.000 OA
ATOM      3  C   UNL     1       6.013   4.996  15.685  0.00  0.00    +0.000 C 
ATOM      4  C   UNL     1       7.038   5.280  16.773  0.00  0.00    +0.000 C 
ATOM      5  C   UNL     1       6.210   5.095  18.030  0.00  0.00    +0.000 C 
ATOM      6  F   UNL     1       5.530   6.261  18.251  0.00  0.00    +0.000 F 
ENDROOT
BRANCH   1  14
ATOM      7  O   UNL     1       5.184   2.554  20.084  0.00  0.00    +0.000 OA
ATOM      8  N   UNL     1       3.973   2.747  20.248  0.00  0.00    +0.000 N 
ATOM      9  O   UNL     1       3.299   2.296  21.186  0.00  0.00    +0.000 OA
ATOM     10  C   UNL     1       3.306   3.580  19.280  0.00  0.00    +0.000 A 
ATOM     11  N   UNL     1       2.029   3.897  19.392  0.00  0.00    +0.000 NA
ATOM     12  C   UNL     1       1.768   4.709  18.325  0.00  0.00    +0.000 A 
ATOM     13  C   UNL     1       2.898   4.886  17.562  0.00  0.00    +0.000 A 
ATOM     14  N   UNL     1       3.886   4.130  18.163  0.00  0.00    +0.000 N 
ENDBRANCH   1  14
BRANCH   4  15
ATOM     15  O   UNL     1       7.579   6.591  16.664  0.00  0.00    +0.000 OA
ATOM     16  H   UNL     1       7.968   6.822  17.531  0.00  0.00    +0.000 HD
ENDBRANCH   4  15
BRANCH   3  17
ATOM     17  C   UNL     1       6.638   4.605  14.345  0.00  0.00    +0.000 C 
BRANCH  17  18
ATOM     18  O   UNL     1       7.764   5.431  14.050  0.00  0.00    +0.000 OA
ATOM     19  H   UNL     1       8.161   5.081  13.231  0.00  0.00    +0.000 HD
ENDBRANCH  17  18
ENDBRANCH   3  17
TORSDOF 4
ENDMDL
MODEL 7
REMARK VINA RESULT:      -6.4      2.434      5.172
REMARK  Name = 
REMARK  4 active torsions:
REMARK  status: ('A' for Active; 'I' for Inactive)
REMARK    1  A    between atoms: N_8  and  C_9
REMARK    2  A    between atoms: C_11  and  C_12
REMARK    3  A    between atoms: C_12  and  O_13
REMARK    4  A    between atoms: C_14  and  O_15
REMARK                            x       y       z     vdW  Elec       q    Type
REMARK                         _______ _______ _______ _____ _____    ______ ____
ROOT
ATOM      1  C   UNL     1       4.233   4.182  19.112  0.00  0.00    +0.000 C 
ATOM      2  O   UNL     1       3.204   4.378  20.130  0.00  0.00    +0.000 OA
ATOM      3  C   UNL     1       2.193   3.367  19.932  0.00  0.00    +0.000 C 
ATOM      4  C   UNL     1       2.897   2.209  19.243  0.00  0.00    +0.000 C 
ATOM      5  C   UNL     1       3.847   2.937  18.312  0.00  0.00    +0.000 C 
ATOM      6  F   UNL     1       3.142   3.283  17.192  0.00  0.00    +0.000 F 
ENDROOT
BRANCH   1  14
ATOM      7  O   UNL     1       6.922   4.280  18.274  0.00  0.00    +0.000 OA
ATOM      8  N   UNL     1       6.792   5.393  17.748  0.00  0.00    +0.000 N 
ATOM      9  O   UNL     1       7.703   6.040  17.212  0.00  0.00    +0.000 OA
ATOM     10  C   UNL     1       5.469   5.963  17.744  0.00  0.00    +0.000 A 
ATOM     11  N   UNL     1       5.207   7.118  17.159  0.00  0.00    +0.000 NA
ATOM     12  C   UNL     1       3.867   7.311  17.333  0.00  0.00    +0.000 A 
ATOM     13  C   UNL     1       3.312   6.262  18.029  0.00  0.00    +0.000 A 
ATOM     14  N   UNL     1       4.355   5.405  18.322  0.00  0.00    +0.000 N 
ENDBRANCH   1  14
BRANCH   4  15
ATOM     15  O   UNL     1       1.983   1.372  18.544  0.00  0.00    +0.000 OA
ATOM     16  H   UNL     1       1.308   1.073  19.185  0.00  0.00    +0.000 HD
ENDBRANCH   4  15
BRANCH   3  17
ATOM     17  C   UNL     1       1.553   2.986  21.268  0.00  0.00    +0.000 C 
BRANCH  17  18
ATOM     18  O   UNL     1       2.543   2.547  22.197  0.00  0.00    +0.000 OA
ATOM     19  H   UNL     1       3.383   2.961  21.928  0.00  0.00    +0.000 HD
ENDBRANCH  17  18
ENDBRANCH   3  17
TORSDOF 4
ENDMDL
MODEL 8
REMARK VINA RESULT:      -6.4      2.704      5.075
REMARK  Name = 
REMARK  4 active torsions:
REMARK  status: ('A' for Active; 'I' for Inactive)
REMARK    1  A    between atoms: N_8  and  C_9
REMARK    2  A    between atoms: C_11  and  C_12
REMARK    3  A    between atoms: C_12  and  O_13
REMARK    4  A    between atoms: C_14  and  O_15
REMARK                            x       y       z     vdW  Elec       q    Type
REMARK                         _______ _______ _______ _____ _____    ______ ____
ROOT
ATOM      1  C   UNL     1       4.109   3.740  18.118  0.00  0.00    +0.000 C 
ATOM      2  O   UNL     1       3.920   3.790  19.564  0.00  0.00    +0.000 OA
ATOM      3  C   UNL     1       2.690   3.100  19.871  0.00  0.00    +0.000 C 
ATOM      4  C   UNL     1       2.479   2.110  18.735  0.00  0.00    +0.000 C 
ATOM      5  C   UNL     1       2.964   2.907  17.540  0.00  0.00    +0.000 C 
ATOM      6  F   UNL     1       1.936   3.715  17.138  0.00  0.00    +0.000 F 
ENDROOT
BRANCH   1  14
ATOM      7  O   UNL     1       5.810   3.605  15.874  0.00  0.00    +0.000 OA
ATOM      8  N   UNL     1       5.799   4.831  15.703  0.00  0.00    +0.000 N 
ATOM      9  O   UNL     1       6.445   5.436  14.835  0.00  0.00    +0.000 OA
ATOM     10  C   UNL     1       4.948   5.604  16.571  0.00  0.00    +0.000 A 
ATOM     11  N   UNL     1       4.817   6.911  16.436  0.00  0.00    +0.000 NA
ATOM     12  C   UNL     1       3.921   7.281  17.399  0.00  0.00    +0.000 A 
ATOM     13  C   UNL     1       3.505   6.186  18.121  0.00  0.00    +0.000 A 
ATOM     14  N   UNL     1       4.195   5.105  17.605  0.00  0.00    +0.000 N 
ENDBRANCH   1  14
BRANCH   4  15
ATOM     15  O   UNL     1       1.115   1.723  18.616  0.00  0.00    +0.000 OA
ATOM     16  H   UNL     1       0.650   2.430  18.127  0.00  0.00    +0.000 HD
ENDBRANCH   4  15
BRANCH   3  17
ATOM     17  C   UNL     1       2.778   2.440  21.247  0.00  0.00    +0.000 C 
BRANCH  17  18
ATOM     18  O   UNL     1       2.190   3.271  22.247  0.00  0.00    +0.000 OA
ATOM     19  H   UNL     1       2.341   2.829  23.103  0.00  0.00    +0.000 HD
ENDBRANCH  17  18
ENDBRANCH   3  17
TORSDOF 4
ENDMDL
MODEL 9
REMARK VINA RESULT:      -6.4      2.063      2.209
REMARK  Name = 
REMARK  4 active torsions:
REMARK  status: ('A' for Active; 'I' for Inactive)
REMARK    1  A    between atoms: N_8  and  C_9
REMARK    2  A    between atoms: C_11  and  C_12
REMARK    3  A    between atoms: C_12  and  O_13
REMARK    4  A    between atoms: C_14  and  O_15
REMARK                            x       y       z     vdW  Elec       q    Type
REMARK                         _______ _______ _______ _____ _____    ______ ____
ROOT
ATOM      1  C   UNL     1       4.505   4.082  18.343  0.00  0.00    +0.000 C 
ATOM      2  O   UNL     1       4.225   4.524  16.980  0.00  0.00    +0.000 OA
ATOM      3  C   UNL     1       5.404   5.191  16.483  0.00  0.00    +0.000 C 
ATOM      4  C   UNL     1       6.569   4.606  17.266  0.00  0.00    +0.000 C 
ATOM      5  C   UNL     1       5.961   4.441  18.645  0.00  0.00    +0.000 C 
ATOM      6  F   UNL     1       6.037   5.652  19.277  0.00  0.00    +0.000 F 
ENDROOT
BRANCH   1  14
ATOM      7  O   UNL     1       4.151   2.218  20.428  0.00  0.00    +0.000 OA
ATOM      8  N   UNL     1       3.252   2.881  20.963  0.00  0.00    +0.000 N 
ATOM      9  O   UNL     1       2.614   2.537  21.969  0.00  0.00    +0.000 OA
ATOM     10  C   UNL     1       2.947   4.161  20.377  0.00  0.00    +0.000 A 
ATOM     11  N   UNL     1       2.047   4.973  20.902  0.00  0.00    +0.000 NA
ATOM     12  C   UNL     1       2.057   6.081  20.103  0.00  0.00    +0.000 A 
ATOM     13  C   UNL     1       2.972   5.938  19.086  0.00  0.00    +0.000 A 
ATOM     14  N   UNL     1       3.525   4.682  19.245  0.00  0.00    +0.000 N 
ENDBRANCH   1  14
BRANCH   4  15
ATOM     15  O   UNL     1       7.697   5.473  17.268  0.00  0.00    +0.000 OA
ATOM     16  H   UNL     1       8.162   5.353  16.416  0.00  0.00    +0.000 HD
ENDBRANCH   4  15
BRANCH   3  17
ATOM     17  C   UNL     1       5.527   5.000  14.971  0.00  0.00    +0.000 C 
BRANCH  17  18
ATOM     18  O   UNL     1       6.785   5.480  14.500  0.00  0.00    +0.000 OA
ATOM     19  H   UNL     1       7.466   4.880  14.856  0.00  0.00    +0.000 HD
ENDBRANCH  17  18
ENDBRANCH   3  17
TORSDOF 4
ENDMDL
