MODEL 1
REMARK VINA RESULT:      -7.5      0.000      0.000
REMARK  Name = 
REMARK  4 active torsions:
REMARK  status: ('A' for Active; 'I' for Inactive)
REMARK    1  A    between atoms: C_1  and  C_2
REMARK    2  A    between atoms: N_12  and  C_13
REMARK    3  A    between atoms: C_16  and  C_17
REMARK    4  A    between atoms: C_25  and  N_26
REMARK                            x       y       z     vdW  Elec       q    Type
REMARK                         _______ _______ _______ _____ _____    ______ ____
ROOT
ATOM      1  C   UNL     1       1.876   8.211  20.279  0.00  0.00    +0.000 C 
ATOM      2  C   UNL     1       0.692   8.625  21.192  0.00  0.00    +0.000 C 
ATOM      3  C   UNL     1      -0.546   9.079  20.423  0.00  0.00    +0.000 C 
ATOM      4  C   UNL     1      -0.260  10.223  19.430  0.00  0.00    +0.000 C 
ATOM      5  C   UNL     1       1.033   9.990  18.598  0.00  0.00    +0.000 C 
ATOM      6  C   UNL     1       2.208   9.462  19.433  0.00  0.00    +0.000 C 
ENDROOT
BRANCH   1  18
ATOM      7  C   UNL     1       6.514   5.176  14.710  0.00  0.00    +0.000 C 
ATOM      8  C   UNL     1       5.854   5.045  16.034  0.00  0.00    +0.000 A 
ATOM      9  C   UNL     1       6.193   4.136  17.056  0.00  0.00    +0.000 A 
ATOM     10  C   UNL     1       5.252   4.325  18.037  0.00  0.00    +0.000 A 
ATOM     11  N   UNL     1       5.061   3.679  19.238  0.00  0.00    +0.000 NA
ATOM     12  C   UNL     1       4.040   4.078  19.943  0.00  0.00    +0.000 A 
ATOM     13  C   UNL     1       3.124   5.154  19.549  0.00  0.00    +0.000 A 
ATOM     14  C   UNL     1       3.374   5.775  18.402  0.00  0.00    +0.000 A 
ATOM     15  N   UNL     1       4.424   5.373  17.592  0.00  0.00    +0.000 N 
ATOM     16  N   UNL     1       4.809   5.819  16.366  0.00  0.00    +0.000 NA
ATOM     17  C   UNL     1       2.429   6.898  18.206  0.00  0.00    +0.000 C 
ATOM     18  N   UNL     1       1.613   6.977  19.488  0.00  0.00    +0.000 NA
ATOM     19  C   UNL     1       1.982   5.741  20.260  0.00  0.00    +0.000 C 
ENDBRANCH   1  18
BRANCH   4  20
ATOM     20  C   UNL     1      -1.467  10.458  18.523  0.00  0.00    +0.000 A 
ATOM     21  C   UNL     1      -1.598   9.780  17.300  0.00  0.00    +0.000 A 
ATOM     22  C   UNL     1      -2.693  10.019  16.472  0.00  0.00    +0.000 A 
ATOM     23  F   UNL     1      -2.799   9.351  15.316  0.00  0.00    +0.000 F 
ATOM     24  C   UNL     1      -3.671  10.939  16.824  0.00  0.00    +0.000 A 
ATOM     25  C   UNL     1      -3.555  11.628  18.030  0.00  0.00    +0.000 A 
ATOM     26  C   UNL     1      -2.464  11.383  18.869  0.00  0.00    +0.000 A 
ATOM     27  F   UNL     1      -2.377  12.067  20.017  0.00  0.00    +0.000 F 
ENDBRANCH   4  20
BRANCH   5  28
ATOM     28  N   UNL     1       1.476  11.241  17.950  0.00  0.00    +0.000 NA
ATOM     29  H   UNL     1       2.487  11.329  18.028  0.00  0.00    +0.000 HD
ATOM     30  H   UNL     1       1.097  12.039  18.461  0.00  0.00    +0.000 HD
ENDBRANCH   5  28
TORSDOF 3
ENDMDL
MODEL 2
REMARK VINA RESULT:      -7.2      3.610      8.958
REMARK  Name = 
REMARK  4 active torsions:
REMARK  status: ('A' for Active; 'I' for Inactive)
REMARK    1  A    between atoms: C_1  and  C_2
REMARK    2  A    between atoms: N_12  and  C_13
REMARK    3  A    between atoms: C_16  and  C_17
REMARK    4  A    between atoms: C_25  and  N_26
REMARK                            x       y       z     vdW  Elec       q    Type
REMARK                         _______ _______ _______ _____ _____    ______ ____
ROOT
ATOM      1  C   UNL     1       0.217  10.175  18.758  0.00  0.00    +0.000 C 
ATOM      2  C   UNL     1       1.397   9.787  17.829  0.00  0.00    +0.000 C 
ATOM      3  C   UNL     1       1.877   8.349  18.014  0.00  0.00    +0.000 C 
ATOM      4  C   UNL     1       2.260   8.018  19.470  0.00  0.00    +0.000 C 
ATOM      5  C   UNL     1       1.223   8.548  20.502  0.00  0.00    +0.000 C 
ATOM      6  C   UNL     1       0.737   9.972  20.200  0.00  0.00    +0.000 C 
ENDROOT
BRANCH   1  18
ATOM      7  C   UNL     1      -7.068  13.042  19.427  0.00  0.00    +0.000 C 
ATOM      8  C   UNL     1      -5.982  12.499  18.572  0.00  0.00    +0.000 A 
ATOM      9  C   UNL     1      -5.879  12.614  17.171  0.00  0.00    +0.000 A 
ATOM     10  C   UNL     1      -4.772  11.879  16.826  0.00  0.00    +0.000 A 
ATOM     11  N   UNL     1      -4.225  11.599  15.594  0.00  0.00    +0.000 NA
ATOM     12  C   UNL     1      -3.171  10.832  15.601  0.00  0.00    +0.000 A 
ATOM     13  C   UNL     1      -2.544  10.285  16.809  0.00  0.00    +0.000 A 
ATOM     14  C   UNL     1      -3.084  10.619  17.977  0.00  0.00    +0.000 A 
ATOM     15  N   UNL     1      -4.226  11.402  18.033  0.00  0.00    +0.000 N 
ATOM     16  N   UNL     1      -4.968  11.798  19.101  0.00  0.00    +0.000 NA
ATOM     17  C   UNL     1      -2.274  10.078  19.093  0.00  0.00    +0.000 C 
ATOM     18  N   UNL     1      -1.048   9.452  18.445  0.00  0.00    +0.000 NA
ATOM     19  C   UNL     1      -1.337   9.467  16.970  0.00  0.00    +0.000 C 
ENDBRANCH   1  18
BRANCH   4  20
ATOM     20  C   UNL     1       2.488   6.517  19.635  0.00  0.00    +0.000 A 
ATOM     21  C   UNL     1       1.617   5.731  20.407  0.00  0.00    +0.000 A 
ATOM     22  C   UNL     1       1.847   4.367  20.567  0.00  0.00    +0.000 A 
ATOM     23  F   UNL     1       0.995   3.639  21.301  0.00  0.00    +0.000 F 
ATOM     24  C   UNL     1       2.947   3.751  19.984  0.00  0.00    +0.000 A 
ATOM     25  C   UNL     1       3.827   4.515  19.219  0.00  0.00    +0.000 A 
ATOM     26  C   UNL     1       3.593   5.883  19.048  0.00  0.00    +0.000 A 
ATOM     27  F   UNL     1       4.463   6.590  18.314  0.00  0.00    +0.000 F 
ENDBRANCH   4  20
BRANCH   5  28
ATOM     28  N   UNL     1       1.792   8.552  21.865  0.00  0.00    +0.000 NA
ATOM     29  H   UNL     1       2.737   8.174  21.845  0.00  0.00    +0.000 HD
ATOM     30  H   UNL     1       1.259   7.913  22.456  0.00  0.00    +0.000 HD
ENDBRANCH   5  28
TORSDOF 3
ENDMDL
MODEL 3
REMARK VINA RESULT:      -7.1      5.028      9.786
REMARK  Name = 
REMARK  4 active torsions:
REMARK  status: ('A' for Active; 'I' for Inactive)
REMARK    1  A    between atoms: C_1  and  C_2
REMARK    2  A    between atoms: N_12  and  C_13
REMARK    3  A    between atoms: C_16  and  C_17
REMARK    4  A    between atoms: C_25  and  N_26
REMARK                            x       y       z     vdW  Elec       q    Type
REMARK                         _______ _______ _______ _____ _____    ______ ____
ROOT
ATOM      1  C   UNL     1      -1.801  12.851  19.804  0.00  0.00    +0.000 C 
ATOM      2  C   UNL     1      -2.128  11.850  18.664  0.00  0.00    +0.000 C 
ATOM      3  C   UNL     1      -1.264  10.591  18.686  0.00  0.00    +0.000 C 
ATOM      4  C   UNL     1       0.248  10.890  18.668  0.00  0.00    +0.000 C 
ATOM      5  C   UNL     1       0.649  12.031  19.647  0.00  0.00    +0.000 C 
ATOM      6  C   UNL     1      -0.313  13.227  19.616  0.00  0.00    +0.000 C 
ENDROOT
BRANCH   1  18
ATOM      7  C   UNL     1      -0.259  16.395  26.645  0.00  0.00    +0.000 C 
ATOM      8  C   UNL     1      -1.252  15.876  25.670  0.00  0.00    +0.000 A 
ATOM      9  C   UNL     1      -2.621  16.204  25.610  0.00  0.00    +0.000 A 
ATOM     10  C   UNL     1      -3.142  15.412  24.617  0.00  0.00    +0.000 A 
ATOM     11  N   UNL     1      -4.433  15.274  24.159  0.00  0.00    +0.000 NA
ATOM     12  C   UNL     1      -4.609  14.399  23.209  0.00  0.00    +0.000 A 
ATOM     13  C   UNL     1      -3.540  13.594  22.607  0.00  0.00    +0.000 A 
ATOM     14  C   UNL     1      -2.305  13.795  23.053  0.00  0.00    +0.000 A 
ATOM     15  N   UNL     1      -2.059  14.685  24.086  0.00  0.00    +0.000 N 
ATOM     16  N   UNL     1      -0.900  14.986  24.730  0.00  0.00    +0.000 NA
ATOM     17  C   UNL     1      -1.337  12.990  22.273  0.00  0.00    +0.000 C 
ATOM     18  N   UNL     1      -2.147  12.340  21.160  0.00  0.00    +0.000 NA
ATOM     19  C   UNL     1      -3.582  12.627  21.504  0.00  0.00    +0.000 C 
ENDBRANCH   1  18
BRANCH   4  20
ATOM     20  C   UNL     1       1.048   9.618  18.942  0.00  0.00    +0.000 A 
ATOM     21  C   UNL     1       1.859   9.043  17.949  0.00  0.00    +0.000 A 
ATOM     22  C   UNL     1       2.567   7.871  18.205  0.00  0.00    +0.000 A 
ATOM     23  F   UNL     1       3.340   7.349  17.244  0.00  0.00    +0.000 F 
ATOM     24  C   UNL     1       2.482   7.235  19.436  0.00  0.00    +0.000 A 
ATOM     25  C   UNL     1       1.677   7.785  20.432  0.00  0.00    +0.000 A 
ATOM     26  C   UNL     1       0.973   8.967  20.183  0.00  0.00    +0.000 A 
ATOM     27  F   UNL     1       0.202   9.466  21.158  0.00  0.00    +0.000 F 
ENDBRANCH   4  20
BRANCH   5  28
ATOM     28  N   UNL     1       2.000  12.541  19.336  0.00  0.00    +0.000 NA
ATOM     29  H   UNL     1       1.937  13.278  18.638  0.00  0.00    +0.000 HD
ATOM     30  H   UNL     1       2.549  11.800  18.897  0.00  0.00    +0.000 HD
ENDBRANCH   5  28
TORSDOF 3
ENDMDL
MODEL 4
REMARK VINA RESULT:      -7.0      1.852      2.435
REMARK  Name = 
REMARK  4 active torsions:
REMARK  status: ('A' for Active; 'I' for Inactive)
REMARK    1  A    between atoms: C_1  and  C_2
REMARK    2  A    between atoms: N_12  and  C_13
REMARK    3  A    between atoms: C_16  and  C_17
REMARK    4  A    between atoms: C_25  and  N_26
REMARK                            x       y       z     vdW  Elec       q    Type
REMARK                         _______ _______ _______ _____ _____    ______ ____
ROOT
ATOM      1  C   UNL     1       1.419  10.614  19.537  0.00  0.00    +0.000 C 
ATOM      2  C   UNL     1       0.784  10.913  20.921  0.00  0.00    +0.000 C 
ATOM      3  C   UNL     1      -0.724  11.143  20.868  0.00  0.00    +0.000 C 
ATOM      4  C   UNL     1      -1.135  12.253  19.881  0.00  0.00    +0.000 C 
ATOM      5  C   UNL     1      -0.395  12.153  18.517  0.00  0.00    +0.000 C 
ATOM      6  C   UNL     1       1.103  11.846  18.658  0.00  0.00    +0.000 C 
ENDROOT
BRANCH   1  18
ATOM      7  C   UNL     1       5.893   5.699  15.346  0.00  0.00    +0.000 C 
ATOM      8  C   UNL     1       5.086   5.969  16.563  0.00  0.00    +0.000 A 
ATOM      9  C   UNL     1       5.123   5.248  17.773  0.00  0.00    +0.000 A 
ATOM     10  C   UNL     1       4.144   5.803  18.558  0.00  0.00    +0.000 A 
ATOM     11  N   UNL     1       3.701   5.468  19.818  0.00  0.00    +0.000 NA
ATOM     12  C   UNL     1       2.715   6.182  20.283  0.00  0.00    +0.000 A 
ATOM     13  C   UNL     1       2.084   7.299  19.571  0.00  0.00    +0.000 A 
ATOM     14  C   UNL     1       2.574   7.611  18.376  0.00  0.00    +0.000 A 
ATOM     15  N   UNL     1       3.598   6.867  17.813  0.00  0.00    +0.000 N 
ATOM     16  N   UNL     1       4.192   6.970  16.594  0.00  0.00    +0.000 NA
ATOM     17  C   UNL     1       1.904   8.819  17.843  0.00  0.00    +0.000 C 
ATOM     18  N   UNL     1       0.992   9.309  18.958  0.00  0.00    +0.000 NA
ATOM     19  C   UNL     1       1.019   8.217  19.990  0.00  0.00    +0.000 C 
ENDBRANCH   1  18
BRANCH   4  20
ATOM     20  C   UNL     1      -2.651  12.263  19.689  0.00  0.00    +0.000 A 
ATOM     21  C   UNL     1      -3.251  11.584  18.615  0.00  0.00    +0.000 A 
ATOM     22  C   UNL     1      -4.632  11.618  18.439  0.00  0.00    +0.000 A 
ATOM     23  F   UNL     1      -5.179  10.953  17.412  0.00  0.00    +0.000 F 
ATOM     24  C   UNL     1      -5.449  12.332  19.305  0.00  0.00    +0.000 A 
ATOM     25  C   UNL     1      -4.873  13.018  20.373  0.00  0.00    +0.000 A 
ATOM     26  C   UNL     1      -3.487  12.978  20.559  0.00  0.00    +0.000 A 
ATOM     27  F   UNL     1      -2.964  13.655  21.589  0.00  0.00    +0.000 F 
ENDBRANCH   4  20
BRANCH   5  28
ATOM     28  N   UNL     1      -0.520  13.412  17.755  0.00  0.00    +0.000 NA
ATOM     29  H   UNL     1       0.348  13.599  17.256  0.00  0.00    +0.000 HD
ATOM     30  H   UNL     1      -0.629  14.191  18.405  0.00  0.00    +0.000 HD
ENDBRANCH   5  28
TORSDOF 3
ENDMDL
MODEL 5
REMARK VINA RESULT:      -6.8      2.592      3.371
REMARK  Name = 
REMARK  4 active torsions:
REMARK  status: ('A' for Active; 'I' for Inactive)
REMARK    1  A    between atoms: C_1  and  C_2
REMARK    2  A    between atoms: N_12  and  C_13
REMARK    3  A    between atoms: C_16  and  C_17
REMARK    4  A    between atoms: C_25  and  N_26
REMARK                            x       y       z     vdW  Elec       q    Type
REMARK                         _______ _______ _______ _____ _____    ______ ____
ROOT
ATOM      1  C   UNL     1       1.104  10.032  21.621  0.00  0.00    +0.000 C 
ATOM      2  C   UNL     1       0.313  10.047  22.956  0.00  0.00    +0.000 C 
ATOM      3  C   UNL     1      -1.116  10.567  22.818  0.00  0.00    +0.000 C 
ATOM      4  C   UNL     1      -1.194  11.966  22.177  0.00  0.00    +0.000 C 
ATOM      5  C   UNL     1      -0.274  12.112  20.932  0.00  0.00    +0.000 C 
ATOM      6  C   UNL     1       1.119  11.497  21.129  0.00  0.00    +0.000 C 
ENDROOT
BRANCH   1  18
ATOM      7  C   UNL     1       5.228   6.495  15.945  0.00  0.00    +0.000 C 
ATOM      8  C   UNL     1       4.423   6.398  17.189  0.00  0.00    +0.000 A 
ATOM      9  C   UNL     1       4.375   5.304  18.075  0.00  0.00    +0.000 A 
ATOM     10  C   UNL     1       3.430   5.637  19.014  0.00  0.00    +0.000 A 
ATOM     11  N   UNL     1       2.936   4.928  20.085  0.00  0.00    +0.000 NA
ATOM     12  C   UNL     1       2.005   5.520  20.779  0.00  0.00    +0.000 A 
ATOM     13  C   UNL     1       1.485   6.864  20.502  0.00  0.00    +0.000 A 
ATOM     14  C   UNL     1       2.024   7.525  19.483  0.00  0.00    +0.000 A 
ATOM     15  N   UNL     1       2.992   6.935  18.687  0.00  0.00    +0.000 N 
ATOM     16  N   UNL     1       3.617   7.400  17.572  0.00  0.00    +0.000 NA
ATOM     17  C   UNL     1       1.469   8.896  19.406  0.00  0.00    +0.000 C 
ATOM     18  N   UNL     1       0.580   9.049  20.632  0.00  0.00    +0.000 NA
ATOM     19  C   UNL     1       0.493   7.669  21.224  0.00  0.00    +0.000 C 
ENDBRANCH   1  18
BRANCH   4  20
ATOM     20  C   UNL     1      -2.642  12.319  21.839  0.00  0.00    +0.000 A 
ATOM     21  C   UNL     1      -3.097  12.326  20.510  0.00  0.00    +0.000 A 
ATOM     22  C   UNL     1      -4.413  12.669  20.213  0.00  0.00    +0.000 A 
ATOM     23  F   UNL     1      -4.823  12.658  18.938  0.00  0.00    +0.000 F 
ATOM     24  C   UNL     1      -5.305  13.027  21.216  0.00  0.00    +0.000 A 
ATOM     25  C   UNL     1      -4.872  13.034  22.541  0.00  0.00    +0.000 A 
ATOM     26  C   UNL     1      -3.553  12.679  22.843  0.00  0.00    +0.000 A 
ATOM     27  F   UNL     1      -3.166  12.704  24.125  0.00  0.00    +0.000 F 
ENDBRANCH   4  20
BRANCH   5  28
ATOM     28  N   UNL     1      -0.085  13.534  20.579  0.00  0.00    +0.000 NA
ATOM     29  H   UNL     1      -0.213  13.660  19.578  0.00  0.00    +0.000 HD
ATOM     30  H   UNL     1       0.883  13.802  20.762  0.00  0.00    +0.000 HD
ENDBRANCH   5  28
TORSDOF 3
ENDMDL
MODEL 6
REMARK VINA RESULT:      -6.8      0.736      1.586
REMARK  Name = 
REMARK  4 active torsions:
REMARK  status: ('A' for Active; 'I' for Inactive)
REMARK    1  A    between atoms: C_1  and  C_2
REMARK    2  A    between atoms: N_12  and  C_13
REMARK    3  A    between atoms: C_16  and  C_17
REMARK    4  A    between atoms: C_25  and  N_26
REMARK                            x       y       z     vdW  Elec       q    Type
REMARK                         _______ _______ _______ _____ _____    ______ ____
ROOT
ATOM      1  C   UNL     1       1.894   8.389  20.253  0.00  0.00    +0.000 C 
ATOM      2  C   UNL     1       0.754   8.767  21.236  0.00  0.00    +0.000 C 
ATOM      3  C   UNL     1      -0.528   9.221  20.543  0.00  0.00    +0.000 C 
ATOM      4  C   UNL     1      -0.309  10.389  19.562  0.00  0.00    +0.000 C 
ATOM      5  C   UNL     1       0.942  10.192  18.659  0.00  0.00    +0.000 C 
ATOM      6  C   UNL     1       2.166   9.663  19.420  0.00  0.00    +0.000 C 
ENDROOT
BRANCH   1  18
ATOM      7  C   UNL     1       6.544   5.218  14.771  0.00  0.00    +0.000 C 
ATOM      8  C   UNL     1       5.851   5.104  16.079  0.00  0.00    +0.000 A 
ATOM      9  C   UNL     1       6.134   4.179  17.103  0.00  0.00    +0.000 A 
ATOM     10  C   UNL     1       5.179   4.396  18.065  0.00  0.00    +0.000 A 
ATOM     11  N   UNL     1       4.939   3.752  19.258  0.00  0.00    +0.000 NA
ATOM     12  C   UNL     1       3.917   4.183  19.942  0.00  0.00    +0.000 A 
ATOM     13  C   UNL     1       3.048   5.293  19.534  0.00  0.00    +0.000 A 
ATOM     14  C   UNL     1       3.346   5.910  18.396  0.00  0.00    +0.000 A 
ATOM     15  N   UNL     1       4.399   5.475  17.607  0.00  0.00    +0.000 N 
ATOM     16  N   UNL     1       4.827   5.913  16.393  0.00  0.00    +0.000 NA
ATOM     17  C   UNL     1       2.446   7.067  18.185  0.00  0.00    +0.000 C 
ATOM     18  N   UNL     1       1.605   7.169  19.450  0.00  0.00    +0.000 NA
ATOM     19  C   UNL     1       1.913   5.917  20.223  0.00  0.00    +0.000 C 
ENDBRANCH   1  18
BRANCH   4  20
ATOM     20  C   UNL     1      -1.565  10.628  18.725  0.00  0.00    +0.000 A 
ATOM     21  C   UNL     1      -2.570  11.507  19.161  0.00  0.00    +0.000 A 
ATOM     22  C   UNL     1      -3.720  11.701  18.399  0.00  0.00    +0.000 A 
ATOM     23  F   UNL     1      -4.659  12.552  18.832  0.00  0.00    +0.000 F 
ATOM     24  C   UNL     1      -3.910  11.023  17.202  0.00  0.00    +0.000 A 
ATOM     25  C   UNL     1      -2.928  10.140  16.756  0.00  0.00    +0.000 A 
ATOM     26  C   UNL     1      -1.767   9.952  17.513  0.00  0.00    +0.000 A 
ATOM     27  F   UNL     1      -0.846   9.091  17.061  0.00  0.00    +0.000 F 
ENDBRANCH   4  20
BRANCH   5  28
ATOM     28  N   UNL     1       1.334  11.463  18.017  0.00  0.00    +0.000 NA
ATOM     29  H   UNL     1       0.881  11.544  17.109  0.00  0.00    +0.000 HD
ATOM     30  H   UNL     1       2.335  11.445  17.816  0.00  0.00    +0.000 HD
ENDBRANCH   5  28
TORSDOF 3
ENDMDL
MODEL 7
REMARK VINA RESULT:      -6.8      4.902      9.564
REMARK  Name = 
REMARK  4 active torsions:
REMARK  status: ('A' for Active; 'I' for Inactive)
REMARK    1  A    between atoms: C_1  and  C_2
REMARK    2  A    between atoms: N_12  and  C_13
REMARK    3  A    between atoms: C_16  and  C_17
REMARK    4  A    between atoms: C_25  and  N_26
REMARK                            x       y       z     vdW  Elec       q    Type
REMARK                         _______ _______ _______ _____ _____    ______ ____
ROOT
ATOM      1  C   UNL     1      -0.746  12.500  19.950  0.00  0.00    +0.000 C 
ATOM      2  C   UNL     1      -1.532  11.315  19.330  0.00  0.00    +0.000 C 
ATOM      3  C   UNL     1      -0.732  10.016  19.262  0.00  0.00    +0.000 C 
ATOM      4  C   UNL     1       0.610  10.167  18.519  0.00  0.00    +0.000 C 
ATOM      5  C   UNL     1       1.389  11.447  18.934  0.00  0.00    +0.000 C 
ATOM      6  C   UNL     1       0.498  12.692  19.052  0.00  0.00    +0.000 C 
ENDROOT
BRANCH   1  18
ATOM      7  C   UNL     1      -1.920  17.798  25.633  0.00  0.00    +0.000 C 
ATOM      8  C   UNL     1      -2.226  16.471  25.040  0.00  0.00    +0.000 A 
ATOM      9  C   UNL     1      -3.342  15.660  25.326  0.00  0.00    +0.000 A 
ATOM     10  C   UNL     1      -3.143  14.503  24.616  0.00  0.00    +0.000 A 
ATOM     11  N   UNL     1      -3.885  13.344  24.555  0.00  0.00    +0.000 NA
ATOM     12  C   UNL     1      -3.402  12.399  23.799  0.00  0.00    +0.000 A 
ATOM     13  C   UNL     1      -2.163  12.503  23.020  0.00  0.00    +0.000 A 
ATOM     14  C   UNL     1      -1.504  13.656  23.079  0.00  0.00    +0.000 A 
ATOM     15  N   UNL     1      -1.949  14.686  23.892  0.00  0.00    +0.000 N 
ATOM     16  N   UNL     1      -1.399  15.903  24.148  0.00  0.00    +0.000 NA
ATOM     17  C   UNL     1      -0.344  13.636  22.158  0.00  0.00    +0.000 C 
ATOM     18  N   UNL     1      -0.447  12.321  21.398  0.00  0.00    +0.000 NA
ATOM     19  C   UNL     1      -1.537  11.554  22.093  0.00  0.00    +0.000 C 
ENDBRANCH   1  18
BRANCH   4  20
ATOM     20  C   UNL     1       1.466   8.914  18.701  0.00  0.00    +0.000 A 
ATOM     21  C   UNL     1       2.261   8.421  17.654  0.00  0.00    +0.000 A 
ATOM     22  C   UNL     1       3.021   7.266  17.826  0.00  0.00    +0.000 A 
ATOM     23  F   UNL     1       3.779   6.823  16.814  0.00  0.00    +0.000 F 
ATOM     24  C   UNL     1       3.002   6.566  19.025  0.00  0.00    +0.000 A 
ATOM     25  C   UNL     1       2.213   7.035  20.074  0.00  0.00    +0.000 A 
ATOM     26  C   UNL     1       1.457   8.200  19.909  0.00  0.00    +0.000 A 
ATOM     27  F   UNL     1       0.703   8.619  20.933  0.00  0.00    +0.000 F 
ENDBRANCH   4  20
BRANCH   5  28
ATOM     28  N   UNL     1       2.455  11.756  17.959  0.00  0.00    +0.000 NA
ATOM     29  H   UNL     1       2.529  12.764  17.838  0.00  0.00    +0.000 HD
ATOM     30  H   UNL     1       2.188  11.395  17.042  0.00  0.00    +0.000 HD
ENDBRANCH   5  28
TORSDOF 3
ENDMDL
MODEL 8
REMARK VINA RESULT:      -6.8      3.297      4.894
REMARK  Name = 
REMARK  4 active torsions:
REMARK  status: ('A' for Active; 'I' for Inactive)
REMARK    1  A    between atoms: C_1  and  C_2
REMARK    2  A    between atoms: N_12  and  C_13
REMARK    3  A    between atoms: C_16  and  C_17
REMARK    4  A    between atoms: C_25  and  N_26
REMARK                            x       y       z     vdW  Elec       q    Type
REMARK                         _______ _______ _______ _____ _____    ______ ____
ROOT
ATOM      1  C   UNL     1      -0.255   9.860  20.290  0.00  0.00    +0.000 C 
ATOM      2  C   UNL     1      -0.669  10.297  18.860  0.00  0.00    +0.000 C 
ATOM      3  C   UNL     1      -0.006  11.593  18.398  0.00  0.00    +0.000 C 
ATOM      4  C   UNL     1      -0.236  12.771  19.365  0.00  0.00    +0.000 C 
ATOM      5  C   UNL     1      -0.036  12.376  20.856  0.00  0.00    +0.000 C 
ATOM      6  C   UNL     1      -0.669  11.025  21.218  0.00  0.00    +0.000 C 
ENDROOT
BRANCH   1  18
ATOM      7  C   UNL     1       2.439   2.609  21.669  0.00  0.00    +0.000 C 
ATOM      8  C   UNL     1       2.341   3.785  20.768  0.00  0.00    +0.000 A 
ATOM      9  C   UNL     1       2.608   3.809  19.385  0.00  0.00    +0.000 A 
ATOM     10  C   UNL     1       2.475   5.123  19.011  0.00  0.00    +0.000 A 
ATOM     11  N   UNL     1       2.667   5.737  17.794  0.00  0.00    +0.000 NA
ATOM     12  C   UNL     1       2.488   7.028  17.773  0.00  0.00    +0.000 A 
ATOM     13  C   UNL     1       2.087   7.834  18.931  0.00  0.00    +0.000 A 
ATOM     14  C   UNL     1       1.872   7.190  20.074  0.00  0.00    +0.000 A 
ATOM     15  N   UNL     1       2.080   5.823  20.167  0.00  0.00    +0.000 N 
ATOM     16  N   UNL     1       1.987   4.991  21.239  0.00  0.00    +0.000 NA
ATOM     17  C   UNL     1       1.372   8.125  21.108  0.00  0.00    +0.000 C 
ATOM     18  N   UNL     1       1.175   9.456  20.397  0.00  0.00    +0.000 NA
ATOM     19  C   UNL     1       1.794   9.268  19.040  0.00  0.00    +0.000 C 
ENDBRANCH   1  18
BRANCH   4  20
ATOM     20  C   UNL     1       0.648  13.957  18.982  0.00  0.00    +0.000 A 
ATOM     21  C   UNL     1       1.993  13.771  18.619  0.00  0.00    +0.000 A 
ATOM     22  C   UNL     1       2.795  14.862  18.292  0.00  0.00    +0.000 A 
ATOM     23  F   UNL     1       4.070  14.657  17.940  0.00  0.00    +0.000 F 
ATOM     24  C   UNL     1       2.295  16.157  18.330  0.00  0.00    +0.000 A 
ATOM     25  C   UNL     1       0.966  16.363  18.696  0.00  0.00    +0.000 A 
ATOM     26  C   UNL     1       0.155  15.269  19.014  0.00  0.00    +0.000 A 
ATOM     27  F   UNL     1      -1.116  15.501  19.368  0.00  0.00    +0.000 F 
ENDBRANCH   4  20
BRANCH   5  28
ATOM     28  N   UNL     1      -0.619  13.394  21.753  0.00  0.00    +0.000 NA
ATOM     29  H   UNL     1       0.059  14.135  21.918  0.00  0.00    +0.000 HD
ATOM     30  H   UNL     1      -0.791  12.978  22.670  0.00  0.00    +0.000 HD
ENDBRANCH   5  28
TORSDOF 3
ENDMDL
MODEL 9
REMARK VINA RESULT:      -6.8      3.308      5.018
REMARK  Name = 
REMARK  4 active torsions:
REMARK  status: ('A' for Active; 'I' for Inactive)
REMARK    1  A    between atoms: C_1  and  C_2
REMARK    2  A    between atoms: N_12  and  C_13
REMARK    3  A    between atoms: C_16  and  C_17
REMARK    4  A    between atoms: C_25  and  N_26
REMARK                            x       y       z     vdW  Elec       q    Type
REMARK                         _______ _______ _______ _____ _____    ______ ____
ROOT
ATOM      1  C   UNL     1      -0.348   9.870  20.362  0.00  0.00    +0.000 C 
ATOM      2  C   UNL     1      -0.728  10.367  18.942  0.00  0.00    +0.000 C 
ATOM      3  C   UNL     1      -0.090  11.703  18.568  0.00  0.00    +0.000 C 
ATOM      4  C   UNL     1      -0.384  12.824  19.583  0.00  0.00    +0.000 C 
ATOM      5  C   UNL     1      -0.220  12.360  21.059  0.00  0.00    +0.000 C 
ATOM      6  C   UNL     1      -0.824  10.976  21.333  0.00  0.00    +0.000 C 
ENDROOT
BRANCH   1  18
ATOM      7  C   UNL     1       2.503   2.654  21.596  0.00  0.00    +0.000 C 
ATOM      8  C   UNL     1       2.397   3.854  20.729  0.00  0.00    +0.000 A 
ATOM      9  C   UNL     1       2.701   3.928  19.355  0.00  0.00    +0.000 A 
ATOM     10  C   UNL     1       2.542   5.249  19.017  0.00  0.00    +0.000 A 
ATOM     11  N   UNL     1       2.751   5.905  17.825  0.00  0.00    +0.000 NA
ATOM     12  C   UNL     1       2.537   7.190  17.838  0.00  0.00    +0.000 A 
ATOM     13  C   UNL     1       2.083   7.949  19.009  0.00  0.00    +0.000 A 
ATOM     14  C   UNL     1       1.856   7.265  20.125  0.00  0.00    +0.000 A 
ATOM     15  N   UNL     1       2.098   5.902  20.183  0.00  0.00    +0.000 N 
ATOM     16  N   UNL     1       1.999   5.035  21.226  0.00  0.00    +0.000 NA
ATOM     17  C   UNL     1       1.303   8.154  21.172  0.00  0.00    +0.000 C 
ATOM     18  N   UNL     1       1.089   9.501  20.496  0.00  0.00    +0.000 NA
ATOM     19  C   UNL     1       1.749   9.371  19.152  0.00  0.00    +0.000 C 
ENDBRANCH   1  18
BRANCH   4  20
ATOM     20  C   UNL     1       0.477  14.051  19.290  0.00  0.00    +0.000 A 
ATOM     21  C   UNL     1      -0.104  15.269  18.899  0.00  0.00    +0.000 A 
ATOM     22  C   UNL     1       0.692  16.375  18.614  0.00  0.00    +0.000 A 
ATOM     23  F   UNL     1       0.112  17.527  18.253  0.00  0.00    +0.000 F 
ATOM     24  C   UNL     1       2.077  16.301  18.693  0.00  0.00    +0.000 A 
ATOM     25  C   UNL     1       2.674  15.100  19.071  0.00  0.00    +0.000 A 
ATOM     26  C   UNL     1       1.876  13.991  19.369  0.00  0.00    +0.000 A 
ATOM     27  F   UNL     1       2.481  12.849  19.721  0.00  0.00    +0.000 F 
ENDBRANCH   4  20
BRANCH   5  28
ATOM     28  N   UNL     1      -0.861  13.315  21.986  0.00  0.00    +0.000 NA
ATOM     29  H   UNL     1      -1.696  13.705  21.555  0.00  0.00    +0.000 HD
ATOM     30  H   UNL     1      -0.239  14.111  22.135  0.00  0.00    +0.000 HD
ENDBRANCH   5  28
TORSDOF 3
ENDMDL
