MODEL 1
REMARK VINA RESULT:      -7.4      0.000      0.000
REMARK  Name = 
REMARK  9 active torsions:
REMARK  status: ('A' for Active; 'I' for Inactive)
REMARK    1  A    between atoms: C_1  and  C_2
REMARK    2  A    between atoms: C_2  and  C_3
REMARK    3  A    between atoms: C_2  and  C_4
REMARK    4  A    between atoms: C_4  and  O_5
REMARK    5  A    between atoms: O_5  and  C_6
REMARK    6  A    between atoms: C_6  and  C_7
REMARK    7  A    between atoms: C_6  and  C_8
REMARK    8  A    between atoms: N_10  and  C_11
REMARK    9  A    between atoms: C_11  and  C_12
REMARK                            x       y       z     vdW  Elec       q    Type
REMARK                         _______ _______ _______ _____ _____    ______ ____
ROOT
ATOM      1  C   UNL     1       6.863   5.012  16.960  0.00  0.00    +0.000 C 
ATOM      2  O   UNL     1       7.848   4.443  17.427  0.00  0.00    +0.000 OA
ATOM      3  N   UNL     1       5.833   5.469  17.747  0.00  0.00    +0.000 N 
ATOM      4  H   UNL     1       4.959   5.710  17.282  0.00  0.00    +0.000 HD
ENDROOT
BRANCH   1   5
ATOM      5  C   UNL     1       6.738   5.353  15.457  0.00  0.00    +0.000 C 
ATOM      6  C   UNL     1       5.414   6.077  15.223  0.00  0.00    +0.000 C 
BRANCH   5   7
ATOM      7  O   UNL     1       6.824   4.161  14.664  0.00  0.00    +0.000 OA
BRANCH   7   8
ATOM      8  C   UNL     1       5.637   3.890  13.916  0.00  0.00    +0.000 C 
BRANCH   8  10
ATOM      9  C   UNL     1       4.745   3.250  11.663  0.00  0.00    +0.000 C 
ATOM     10  C   UNL     1       5.998   3.330  12.536  0.00  0.00    +0.000 C 
ATOM     11  C   UNL     1       7.080   4.162  11.853  0.00  0.00    +0.000 C 
ENDBRANCH   8  10
ENDBRANCH   7   8
ENDBRANCH   5   7
ENDBRANCH   1   5
BRANCH   3  12
ATOM     12  C   UNL     1       5.825   5.250  19.177  0.00  0.00    +0.000 C 
BRANCH  12  13
ATOM     13  C   UNL     1       4.924   4.119  19.519  0.00  0.00    +0.000 A 
ATOM     14  N   UNL     1       5.225   2.832  19.523  0.00  0.00    +0.000 NA
ATOM     15  N   UNL     1       4.098   2.122  19.866  0.00  0.00    +0.000 NA
ATOM     16  C   UNL     1       3.129   2.984  20.073  0.00  0.00    +0.000 A 
ATOM     17  C   UNL     1       1.761   2.827  20.436  0.00  0.00    +0.000 A 
ATOM     18  C   UNL     1       0.983   3.914  20.581  0.00  0.00    +0.000 A 
ATOM     19  C   UNL     1       1.509   5.258  20.388  0.00  0.00    +0.000 A 
ATOM     20  C   UNL     1       2.802   5.408  20.043  0.00  0.00    +0.000 A 
ATOM     21  N   UNL     1       3.599   4.277  19.880  0.00  0.00    +0.000 N 
ENDBRANCH  12  13
ENDBRANCH   3  12
TORSDOF 6
ENDMDL
MODEL 2
REMARK VINA RESULT:      -7.1      1.479      1.771
REMARK  Name = 
REMARK  9 active torsions:
REMARK  status: ('A' for Active; 'I' for Inactive)
REMARK    1  A    between atoms: C_1  and  C_2
REMARK    2  A    between atoms: C_2  and  C_3
REMARK    3  A    between atoms: C_2  and  C_4
REMARK    4  A    between atoms: C_4  and  O_5
REMARK    5  A    between atoms: O_5  and  C_6
REMARK    6  A    between atoms: C_6  and  C_7
REMARK    7  A    between atoms: C_6  and  C_8
REMARK    8  A    between atoms: N_10  and  C_11
REMARK    9  A    between atoms: C_11  and  C_12
REMARK                            x       y       z     vdW  Elec       q    Type
REMARK                         _______ _______ _______ _____ _____    ______ ____
ROOT
ATOM      1  C   UNL     1       5.860   5.096  15.507  0.00  0.00    +0.000 C 
ATOM      2  O   UNL     1       5.574   6.289  15.423  0.00  0.00    +0.000 OA
ATOM      3  N   UNL     1       5.191   4.234  16.343  0.00  0.00    +0.000 N 
ATOM      4  H   UNL     1       5.627   3.333  16.533  0.00  0.00    +0.000 HD
ENDROOT
BRANCH   1   5
ATOM      5  C   UNL     1       6.930   4.435  14.606  0.00  0.00    +0.000 C 
ATOM      6  C   UNL     1       7.515   5.495  13.676  0.00  0.00    +0.000 C 
BRANCH   5   7
ATOM      7  O   UNL     1       6.358   3.351  13.862  0.00  0.00    +0.000 OA
BRANCH   7   8
ATOM      8  C   UNL     1       6.042   3.694  12.512  0.00  0.00    +0.000 C 
BRANCH   8  10
ATOM      9  C   UNL     1       4.109   3.275  10.972  0.00  0.00    +0.000 C 
ATOM     10  C   UNL     1       5.143   2.621  11.889  0.00  0.00    +0.000 C 
ATOM     11  C   UNL     1       5.955   1.575  11.128  0.00  0.00    +0.000 C 
ENDBRANCH   8  10
ENDBRANCH   7   8
ENDBRANCH   5   7
ENDBRANCH   1   5
BRANCH   3  12
ATOM     12  C   UNL     1       4.143   4.702  17.223  0.00  0.00    +0.000 C 
BRANCH  12  13
ATOM     13  C   UNL     1       4.167   3.943  18.500  0.00  0.00    +0.000 A 
ATOM     14  N   UNL     1       5.204   3.327  19.043  0.00  0.00    +0.000 NA
ATOM     15  N   UNL     1       4.790   2.720  20.206  0.00  0.00    +0.000 NA
ATOM     16  C   UNL     1       3.511   2.979  20.360  0.00  0.00    +0.000 A 
ATOM     17  C   UNL     1       2.566   2.608  21.358  0.00  0.00    +0.000 A 
ATOM     18  C   UNL     1       1.293   3.027  21.258  0.00  0.00    +0.000 A 
ATOM     19  C   UNL     1       0.854   3.867  20.152  0.00  0.00    +0.000 A 
ATOM     20  C   UNL     1       1.746   4.217  19.206  0.00  0.00    +0.000 A 
ATOM     21  N   UNL     1       3.060   3.768  19.309  0.00  0.00    +0.000 N 
ENDBRANCH  12  13
ENDBRANCH   3  12
TORSDOF 6
ENDMDL
MODEL 3
REMARK VINA RESULT:      -7.1      3.002      5.958
REMARK  Name = 
REMARK  9 active torsions:
REMARK  status: ('A' for Active; 'I' for Inactive)
REMARK    1  A    between atoms: C_1  and  C_2
REMARK    2  A    between atoms: C_2  and  C_3
REMARK    3  A    between atoms: C_2  and  C_4
REMARK    4  A    between atoms: C_4  and  O_5
REMARK    5  A    between atoms: O_5  and  C_6
REMARK    6  A    between atoms: C_6  and  C_7
REMARK    7  A    between atoms: C_6  and  C_8
REMARK    8  A    between atoms: N_10  and  C_11
REMARK    9  A    between atoms: C_11  and  C_12
REMARK                            x       y       z     vdW  Elec       q    Type
REMARK                         _______ _______ _______ _____ _____    ______ ____
ROOT
ATOM      1  C   UNL     1       2.067   5.137  20.430  0.00  0.00    +0.000 C 
ATOM      2  O   UNL     1       1.676   6.269  20.708  0.00  0.00    +0.000 OA
ATOM      3  N   UNL     1       3.303   4.897  19.880  0.00  0.00    +0.000 N 
ATOM      4  H   UNL     1       3.461   3.980  19.464  0.00  0.00    +0.000 HD
ENDROOT
BRANCH   1   5
ATOM      5  C   UNL     1       1.243   3.871  20.765  0.00  0.00    +0.000 C 
ATOM      6  C   UNL     1       2.098   2.938  21.621  0.00  0.00    +0.000 C 
BRANCH   5   7
ATOM      7  O   UNL     1       0.812   3.221  19.562  0.00  0.00    +0.000 OA
BRANCH   7   8
ATOM      8  C   UNL     1       1.510   2.004  19.293  0.00  0.00    +0.000 C 
BRANCH   8  10
ATOM      9  C   UNL     1       1.900   3.424  17.265  0.00  0.00    +0.000 C 
ATOM     10  C   UNL     1       2.200   2.079  17.927  0.00  0.00    +0.000 C 
ATOM     11  C   UNL     1       3.706   1.857  18.042  0.00  0.00    +0.000 C 
ENDBRANCH   8  10
ENDBRANCH   7   8
ENDBRANCH   5   7
ENDBRANCH   1   5
BRANCH   3  12
ATOM     12  C   UNL     1       4.198   5.981  19.541  0.00  0.00    +0.000 C 
BRANCH  12  13
ATOM     13  C   UNL     1       5.462   5.445  18.973  0.00  0.00    +0.000 A 
ATOM     14  N   UNL     1       6.562   5.127  19.633  0.00  0.00    +0.000 NA
ATOM     15  N   UNL     1       7.506   4.701  18.727  0.00  0.00    +0.000 NA
ATOM     16  C   UNL     1       6.968   4.759  17.531  0.00  0.00    +0.000 A 
ATOM     17  C   UNL     1       7.470   4.456  16.233  0.00  0.00    +0.000 A 
ATOM     18  C   UNL     1       6.676   4.613  15.160  0.00  0.00    +0.000 A 
ATOM     19  C   UNL     1       5.301   5.076  15.291  0.00  0.00    +0.000 A 
ATOM     20  C   UNL     1       4.826   5.365  16.518  0.00  0.00    +0.000 A 
ATOM     21  N   UNL     1       5.659   5.214  17.624  0.00  0.00    +0.000 N 
ENDBRANCH  12  13
ENDBRANCH   3  12
TORSDOF 6
ENDMDL
MODEL 4
REMARK VINA RESULT:      -7.0      0.869      1.145
REMARK  Name = 
REMARK  9 active torsions:
REMARK  status: ('A' for Active; 'I' for Inactive)
REMARK    1  A    between atoms: C_1  and  C_2
REMARK    2  A    between atoms: C_2  and  C_3
REMARK    3  A    between atoms: C_2  and  C_4
REMARK    4  A    between atoms: C_4  and  O_5
REMARK    5  A    between atoms: O_5  and  C_6
REMARK    6  A    between atoms: C_6  and  C_7
REMARK    7  A    between atoms: C_6  and  C_8
REMARK    8  A    between atoms: N_10  and  C_11
REMARK    9  A    between atoms: C_11  and  C_12
REMARK                            x       y       z     vdW  Elec       q    Type
REMARK                         _______ _______ _______ _____ _____    ______ ____
ROOT
ATOM      1  C   UNL     1       6.859   4.667  16.564  0.00  0.00    +0.000 C 
ATOM      2  O   UNL     1       7.918   4.205  16.986  0.00  0.00    +0.000 OA
ATOM      3  N   UNL     1       5.710   4.685  17.318  0.00  0.00    +0.000 N 
ATOM      4  H   UNL     1       4.832   4.859  16.831  0.00  0.00    +0.000 HD
ENDROOT
BRANCH   1   5
ATOM      5  C   UNL     1       6.747   5.359  15.186  0.00  0.00    +0.000 C 
ATOM      6  C   UNL     1       5.323   5.884  15.011  0.00  0.00    +0.000 C 
BRANCH   5   7
ATOM      7  O   UNL     1       7.094   4.445  14.137  0.00  0.00    +0.000 OA
BRANCH   7   8
ATOM      8  C   UNL     1       6.007   3.616  13.723  0.00  0.00    +0.000 C 
BRANCH   8  10
ATOM      9  C   UNL     1       6.844   2.432  11.679  0.00  0.00    +0.000 C 
ATOM     10  C   UNL     1       5.941   3.553  12.193  0.00  0.00    +0.000 C 
ATOM     11  C   UNL     1       4.510   3.364  11.697  0.00  0.00    +0.000 C 
ENDBRANCH   8  10
ENDBRANCH   7   8
ENDBRANCH   5   7
ENDBRANCH   1   5
BRANCH   3  12
ATOM     12  C   UNL     1       5.670   4.101  18.642  0.00  0.00    +0.000 C 
BRANCH  12  13
ATOM     13  C   UNL     1       4.407   3.341  18.830  0.00  0.00    +0.000 A 
ATOM     14  N   UNL     1       4.156   2.103  18.441  0.00  0.00    +0.000 NA
ATOM     15  N   UNL     1       2.859   1.794  18.781  0.00  0.00    +0.000 NA
ATOM     16  C   UNL     1       2.341   2.843  19.378  0.00  0.00    +0.000 A 
ATOM     17  C   UNL     1       1.052   3.101  19.926  0.00  0.00    +0.000 A 
ATOM     18  C   UNL     1       0.796   4.295  20.489  0.00  0.00    +0.000 A 
ATOM     19  C   UNL     1       1.814   5.335  20.565  0.00  0.00    +0.000 A 
ATOM     20  C   UNL     1       3.032   5.092  20.046  0.00  0.00    +0.000 A 
ATOM     21  N   UNL     1       3.286   3.859  19.451  0.00  0.00    +0.000 N 
ENDBRANCH  12  13
ENDBRANCH   3  12
TORSDOF 6
ENDMDL
MODEL 5
REMARK VINA RESULT:      -6.9      1.116      1.921
REMARK  Name = 
REMARK  9 active torsions:
REMARK  status: ('A' for Active; 'I' for Inactive)
REMARK    1  A    between atoms: C_1  and  C_2
REMARK    2  A    between atoms: C_2  and  C_3
REMARK    3  A    between atoms: C_2  and  C_4
REMARK    4  A    between atoms: C_4  and  O_5
REMARK    5  A    between atoms: O_5  and  C_6
REMARK    6  A    between atoms: C_6  and  C_7
REMARK    7  A    between atoms: C_6  and  C_8
REMARK    8  A    between atoms: N_10  and  C_11
REMARK    9  A    between atoms: C_11  and  C_12
REMARK                            x       y       z     vdW  Elec       q    Type
REMARK                         _______ _______ _______ _____ _____    ______ ____
ROOT
ATOM      1  C   UNL     1       6.942   4.462  16.437  0.00  0.00    +0.000 C 
ATOM      2  O   UNL     1       8.007   4.246  17.012  0.00  0.00    +0.000 OA
ATOM      3  N   UNL     1       5.727   4.354  17.071  0.00  0.00    +0.000 N 
ATOM      4  H   UNL     1       4.894   4.315  16.485  0.00  0.00    +0.000 HD
ENDROOT
BRANCH   1   5
ATOM      5  C   UNL     1       6.875   4.972  14.979  0.00  0.00    +0.000 C 
ATOM      6  C   UNL     1       5.648   5.868  14.824  0.00  0.00    +0.000 C 
BRANCH   5   7
ATOM      7  O   UNL     1       6.830   3.869  14.064  0.00  0.00    +0.000 OA
BRANCH   7   8
ATOM      8  C   UNL     1       5.527   3.627  13.530  0.00  0.00    +0.000 C 
BRANCH   8  10
ATOM      9  C   UNL     1       6.399   2.126  11.723  0.00  0.00    +0.000 C 
ATOM     10  C   UNL     1       5.608   3.401  12.017  0.00  0.00    +0.000 C 
ATOM     11  C   UNL     1       4.222   3.336  11.380  0.00  0.00    +0.000 C 
ENDBRANCH   8  10
ENDBRANCH   7   8
ENDBRANCH   5   7
ENDBRANCH   1   5
BRANCH   3  12
ATOM     12  C   UNL     1       5.633   3.917  18.447  0.00  0.00    +0.000 C 
BRANCH  12  13
ATOM     13  C   UNL     1       4.413   4.480  19.082  0.00  0.00    +0.000 A 
ATOM     14  N   UNL     1       4.255   5.701  19.562  0.00  0.00    +0.000 NA
ATOM     15  N   UNL     1       2.989   5.801  20.092  0.00  0.00    +0.000 NA
ATOM     16  C   UNL     1       2.391   4.643  19.921  0.00  0.00    +0.000 A 
ATOM     17  C   UNL     1       1.097   4.167  20.273  0.00  0.00    +0.000 A 
ATOM     18  C   UNL     1       0.747   2.905  19.967  0.00  0.00    +0.000 A 
ATOM     19  C   UNL     1       1.660   2.011  19.268  0.00  0.00    +0.000 A 
ATOM     20  C   UNL     1       2.885   2.460  18.936  0.00  0.00    +0.000 A 
ATOM     21  N   UNL     1       3.246   3.763  19.270  0.00  0.00    +0.000 N 
ENDBRANCH  12  13
ENDBRANCH   3  12
TORSDOF 6
ENDMDL
MODEL 6
REMARK VINA RESULT:      -6.9      1.499      1.706
REMARK  Name = 
REMARK  9 active torsions:
REMARK  status: ('A' for Active; 'I' for Inactive)
REMARK    1  A    between atoms: C_1  and  C_2
REMARK    2  A    between atoms: C_2  and  C_3
REMARK    3  A    between atoms: C_2  and  C_4
REMARK    4  A    between atoms: C_4  and  O_5
REMARK    5  A    between atoms: O_5  and  C_6
REMARK    6  A    between atoms: C_6  and  C_7
REMARK    7  A    between atoms: C_6  and  C_8
REMARK    8  A    between atoms: N_10  and  C_11
REMARK    9  A    between atoms: C_11  and  C_12
REMARK                            x       y       z     vdW  Elec       q    Type
REMARK                         _______ _______ _______ _____ _____    ______ ____
ROOT
ATOM      1  C   UNL     1       6.835   4.628  15.824  0.00  0.00    +0.000 C 
ATOM      2  O   UNL     1       7.838   4.719  16.530  0.00  0.00    +0.000 OA
ATOM      3  N   UNL     1       5.595   5.038  16.249  0.00  0.00    +0.000 N 
ATOM      4  H   UNL     1       4.787   4.720  15.715  0.00  0.00    +0.000 HD
ENDROOT
BRANCH   1   5
ATOM      5  C   UNL     1       6.896   4.137  14.359  0.00  0.00    +0.000 C 
ATOM      6  C   UNL     1       7.409   5.275  13.478  0.00  0.00    +0.000 C 
BRANCH   5   7
ATOM      7  O   UNL     1       5.603   3.690  13.927  0.00  0.00    +0.000 OA
BRANCH   7   8
ATOM      8  C   UNL     1       5.279   4.094  12.595  0.00  0.00    +0.000 C 
BRANCH   8  10
ATOM      9  C   UNL     1       3.818   3.464  10.658  0.00  0.00    +0.000 C 
ATOM     10  C   UNL     1       4.642   2.929  11.829  0.00  0.00    +0.000 C 
ATOM     11  C   UNL     1       5.692   1.933  11.341  0.00  0.00    +0.000 C 
ENDBRANCH   8  10
ENDBRANCH   7   8
ENDBRANCH   5   7
ENDBRANCH   1   5
BRANCH   3  12
ATOM     12  C   UNL     1       5.389   5.549  17.587  0.00  0.00    +0.000 C 
BRANCH  12  13
ATOM     13  C   UNL     1       4.886   4.471  18.477  0.00  0.00    +0.000 A 
ATOM     14  N   UNL     1       5.587   3.762  19.345  0.00  0.00    +0.000 NA
ATOM     15  N   UNL     1       4.748   2.848  19.939  0.00  0.00    +0.000 NA
ATOM     16  C   UNL     1       3.548   3.017  19.432  0.00  0.00    +0.000 A 
ATOM     17  C   UNL     1       2.305   2.359  19.657  0.00  0.00    +0.000 A 
ATOM     18  C   UNL     1       1.212   2.752  18.979  0.00  0.00    +0.000 A 
ATOM     19  C   UNL     1       1.264   3.849  18.022  0.00  0.00    +0.000 A 
ATOM     20  C   UNL     1       2.439   4.470  17.807  0.00  0.00    +0.000 A 
ATOM     21  N   UNL     1       3.570   4.049  18.503  0.00  0.00    +0.000 N 
ENDBRANCH  12  13
ENDBRANCH   3  12
TORSDOF 6
ENDMDL
MODEL 7
REMARK VINA RESULT:      -6.9      1.758      2.503
REMARK  Name = 
REMARK  9 active torsions:
REMARK  status: ('A' for Active; 'I' for Inactive)
REMARK    1  A    between atoms: C_1  and  C_2
REMARK    2  A    between atoms: C_2  and  C_3
REMARK    3  A    between atoms: C_2  and  C_4
REMARK    4  A    between atoms: C_4  and  O_5
REMARK    5  A    between atoms: O_5  and  C_6
REMARK    6  A    between atoms: C_6  and  C_7
REMARK    7  A    between atoms: C_6  and  C_8
REMARK    8  A    between atoms: N_10  and  C_11
REMARK    9  A    between atoms: C_11  and  C_12
REMARK                            x       y       z     vdW  Elec       q    Type
REMARK                         _______ _______ _______ _____ _____    ______ ____
ROOT
ATOM      1  C   UNL     1       6.676   5.127  15.782  0.00  0.00    +0.000 C 
ATOM      2  O   UNL     1       6.515   6.342  15.879  0.00  0.00    +0.000 OA
ATOM      3  N   UNL     1       6.401   4.262  16.813  0.00  0.00    +0.000 N 
ATOM      4  H   UNL     1       6.775   3.317  16.745  0.00  0.00    +0.000 HD
ENDROOT
BRANCH   1   5
ATOM      5  C   UNL     1       7.108   4.451  14.459  0.00  0.00    +0.000 C 
ATOM      6  C   UNL     1       7.850   5.475  13.601  0.00  0.00    +0.000 C 
BRANCH   5   7
ATOM      7  O   UNL     1       5.966   3.927  13.768  0.00  0.00    +0.000 OA
BRANCH   7   8
ATOM      8  C   UNL     1       6.226   3.608  12.401  0.00  0.00    +0.000 C 
BRANCH   8  10
ATOM      9  C   UNL     1       4.122   3.102  11.137  0.00  0.00    +0.000 C 
ATOM     10  C   UNL     1       5.283   2.497  11.927  0.00  0.00    +0.000 C 
ATOM     11  C   UNL     1       6.017   1.450  11.093  0.00  0.00    +0.000 C 
ENDBRANCH   8  10
ENDBRANCH   7   8
ENDBRANCH   5   7
ENDBRANCH   1   5
BRANCH   3  12
ATOM     12  C   UNL     1       5.958   4.745  18.103  0.00  0.00    +0.000 C 
BRANCH  12  13
ATOM     13  C   UNL     1       4.483   4.927  18.105  0.00  0.00    +0.000 A 
ATOM     14  N   UNL     1       3.818   6.058  17.944  0.00  0.00    +0.000 NA
ATOM     15  N   UNL     1       2.472   5.791  18.047  0.00  0.00    +0.000 NA
ATOM     16  C   UNL     1       2.335   4.502  18.261  0.00  0.00    +0.000 A 
ATOM     17  C   UNL     1       1.193   3.675  18.457  0.00  0.00    +0.000 A 
ATOM     18  C   UNL     1       1.355   2.356  18.660  0.00  0.00    +0.000 A 
ATOM     19  C   UNL     1       2.677   1.744  18.674  0.00  0.00    +0.000 A 
ATOM     20  C   UNL     1       3.758   2.527  18.491  0.00  0.00    +0.000 A 
ATOM     21  N   UNL     1       3.584   3.894  18.295  0.00  0.00    +0.000 N 
ENDBRANCH  12  13
ENDBRANCH   3  12
TORSDOF 6
ENDMDL
MODEL 8
REMARK VINA RESULT:      -6.8      2.253      4.013
REMARK  Name = 
REMARK  9 active torsions:
REMARK  status: ('A' for Active; 'I' for Inactive)
REMARK    1  A    between atoms: C_1  and  C_2
REMARK    2  A    between atoms: C_2  and  C_3
REMARK    3  A    between atoms: C_2  and  C_4
REMARK    4  A    between atoms: C_4  and  O_5
REMARK    5  A    between atoms: O_5  and  C_6
REMARK    6  A    between atoms: C_6  and  C_7
REMARK    7  A    between atoms: C_6  and  C_8
REMARK    8  A    between atoms: N_10  and  C_11
REMARK    9  A    between atoms: C_11  and  C_12
REMARK                            x       y       z     vdW  Elec       q    Type
REMARK                         _______ _______ _______ _____ _____    ______ ____
ROOT
ATOM      1  C   UNL     1       5.236   6.123  15.836  0.00  0.00    +0.000 C 
ATOM      2  O   UNL     1       5.036   7.107  15.127  0.00  0.00    +0.000 OA
ATOM      3  N   UNL     1       4.480   5.850  16.951  0.00  0.00    +0.000 N 
ATOM      4  H   UNL     1       4.846   5.165  17.610  0.00  0.00    +0.000 HD
ENDROOT
BRANCH   1   5
ATOM      5  C   UNL     1       6.292   5.049  15.484  0.00  0.00    +0.000 C 
ATOM      6  C   UNL     1       5.723   3.670  15.815  0.00  0.00    +0.000 C 
BRANCH   5   7
ATOM      7  O   UNL     1       7.511   5.291  16.200  0.00  0.00    +0.000 OA
BRANCH   7   8
ATOM      8  C   UNL     1       7.593   4.583  17.437  0.00  0.00    +0.000 C 
BRANCH   8  10
ATOM      9  C   UNL     1       7.797   6.998  18.075  0.00  0.00    +0.000 C 
ATOM     10  C   UNL     1       7.687   5.569  18.607  0.00  0.00    +0.000 C 
ATOM     11  C   UNL     1       6.497   5.435  19.555  0.00  0.00    +0.000 C 
ENDBRANCH   8  10
ENDBRANCH   7   8
ENDBRANCH   5   7
ENDBRANCH   1   5
BRANCH   3  12
ATOM     12  C   UNL     1       3.434   6.749  17.388  0.00  0.00    +0.000 C 
BRANCH  12  13
ATOM     13  C   UNL     1       2.768   6.211  18.603  0.00  0.00    +0.000 A 
ATOM     14  N   UNL     1       2.610   6.824  19.763  0.00  0.00    +0.000 NA
ATOM     15  N   UNL     1       1.973   5.963  20.627  0.00  0.00    +0.000 NA
ATOM     16  C   UNL     1       1.745   4.843  19.980  0.00  0.00    +0.000 A 
ATOM     17  C   UNL     1       1.137   3.615  20.366  0.00  0.00    +0.000 A 
ATOM     18  C   UNL     1       1.037   2.613  19.475  0.00  0.00    +0.000 A 
ATOM     19  C   UNL     1       1.528   2.757  18.111  0.00  0.00    +0.000 A 
ATOM     20  C   UNL     1       2.106   3.917  17.746  0.00  0.00    +0.000 A 
ATOM     21  N   UNL     1       2.218   4.945  18.679  0.00  0.00    +0.000 N 
ENDBRANCH  12  13
ENDBRANCH   3  12
TORSDOF 6
ENDMDL
MODEL 9
REMARK VINA RESULT:      -6.8      3.057      6.661
REMARK  Name = 
REMARK  9 active torsions:
REMARK  status: ('A' for Active; 'I' for Inactive)
REMARK    1  A    between atoms: C_1  and  C_2
REMARK    2  A    between atoms: C_2  and  C_3
REMARK    3  A    between atoms: C_2  and  C_4
REMARK    4  A    between atoms: C_4  and  O_5
REMARK    5  A    between atoms: O_5  and  C_6
REMARK    6  A    between atoms: C_6  and  C_7
REMARK    7  A    between atoms: C_6  and  C_8
REMARK    8  A    between atoms: N_10  and  C_11
REMARK    9  A    between atoms: C_11  and  C_12
REMARK                            x       y       z     vdW  Elec       q    Type
REMARK                         _______ _______ _______ _____ _____    ______ ____
ROOT
ATOM      1  C   UNL     1       3.112   2.335  17.879  0.00  0.00    +0.000 C 
ATOM      2  O   UNL     1       3.776   1.354  18.207  0.00  0.00    +0.000 OA
ATOM      3  N   UNL     1       3.648   3.388  17.178  0.00  0.00    +0.000 N 
ATOM      4  H   UNL     1       3.113   4.254  17.150  0.00  0.00    +0.000 HD
ENDROOT
BRANCH   1   5
ATOM      5  C   UNL     1       1.590   2.430  18.138  0.00  0.00    +0.000 C 
ATOM      6  C   UNL     1       1.113   3.834  17.772  0.00  0.00    +0.000 C 
BRANCH   5   7
ATOM      7  O   UNL     1       1.294   2.122  19.507  0.00  0.00    +0.000 OA
BRANCH   7   8
ATOM      8  C   UNL     1       0.714   3.215  20.222  0.00  0.00    +0.000 C 
BRANCH   8  10
ATOM      9  C   UNL     1       2.692   2.612  21.638  0.00  0.00    +0.000 C 
ATOM     10  C   UNL     1       1.676   3.706  21.309  0.00  0.00    +0.000 C 
ATOM     11  C   UNL     1       2.383   4.995  20.898  0.00  0.00    +0.000 C 
ENDBRANCH   8  10
ENDBRANCH   7   8
ENDBRANCH   5   7
ENDBRANCH   1   5
BRANCH   3  12
ATOM     12  C   UNL     1       5.054   3.426  16.836  0.00  0.00    +0.000 C 
BRANCH  12  13
ATOM     13  C   UNL     1       5.496   4.830  16.633  0.00  0.00    +0.000 A 
ATOM     14  N   UNL     1       5.108   5.657  15.678  0.00  0.00    +0.000 NA
ATOM     15  N   UNL     1       5.782   6.847  15.832  0.00  0.00    +0.000 NA
ATOM     16  C   UNL     1       6.565   6.730  16.881  0.00  0.00    +0.000 A 
ATOM     17  C   UNL     1       7.486   7.623  17.499  0.00  0.00    +0.000 A 
ATOM     18  C   UNL     1       8.168   7.226  18.588  0.00  0.00    +0.000 A 
ATOM     19  C   UNL     1       7.978   5.901  19.163  0.00  0.00    +0.000 A 
ATOM     20  C   UNL     1       7.108   5.056  18.578  0.00  0.00    +0.000 A 
ATOM     21  N   UNL     1       6.416   5.469  17.442  0.00  0.00    +0.000 N 
ENDBRANCH  12  13
ENDBRANCH   3  12
TORSDOF 6
ENDMDL
