MODEL 1
REMARK VINA RESULT:      -7.6      0.000      0.000
REMARK  Name = 
REMARK  14 active torsions:
REMARK  status: ('A' for Active; 'I' for Inactive)
REMARK    1  A    between atoms: C_2  and  C_3
REMARK    2  A    between atoms: C_3  and  C_13
REMARK    3  A    between atoms: C_4  and  C_5
REMARK    4  A    between atoms: C_8  and  O_9
REMARK    5  A    between atoms: C_10  and  O_11
REMARK    6  A    between atoms: N_15  and  C_16
REMARK    7  A    between atoms: C_16  and  C_17
REMARK    8  A    between atoms: C_17  and  C_18
REMARK    9  A    between atoms: C_18  and  N_19
REMARK   10  A    between atoms: C_20  and  C_22
REMARK   11  A    between atoms: C_22  and  C_23
REMARK   12  A    between atoms: C_25  and  C_26
REMARK   13  A    between atoms: C_29  and  O_30
REMARK   14  A    between atoms: C_31  and  O_32
REMARK                            x       y       z     vdW  Elec       q    Type
REMARK                         _______ _______ _______ _____ _____    ______ ____
ROOT
ATOM      1  C   UNL     1       1.070   3.920  20.791  0.00  0.00    +0.000 C 
ENDROOT
BRANCH   1   2
ATOM      2  C   UNL     1       1.091   3.375  19.357  0.00  0.00    +0.000 C 
BRANCH   2   5
ATOM      3  C   UNL     1       3.436   3.095  18.593  0.00  0.00    +0.000 C 
ATOM      4  O   UNL     1       3.547   2.033  19.200  0.00  0.00    +0.000 OA
ATOM      5  N   UNL     1       2.261   3.826  18.607  0.00  0.00    +0.000 N 
ATOM      6  H   UNL     1       2.190   4.706  18.109  0.00  0.00    +0.000 HD
BRANCH   3   7
ATOM      7  C   UNL     1       4.583   3.659  17.790  0.00  0.00    +0.000 C 
ATOM      8  C   UNL     1       4.511   3.621  16.441  0.00  0.00    +0.000 C 
BRANCH   8   9
ATOM      9  C   UNL     1       5.523   4.181  15.528  0.00  0.00    +0.000 A 
ATOM     10  C   UNL     1       6.314   5.280  15.905  0.00  0.00    +0.000 A 
ATOM     11  C   UNL     1       7.253   5.824  15.016  0.00  0.00    +0.000 A 
ATOM     12  C   UNL     1       7.401   5.261  13.754  0.00  0.00    +0.000 A 
ATOM     13  C   UNL     1       6.626   4.166  13.384  0.00  0.00    +0.000 A 
ATOM     14  C   UNL     1       5.690   3.621  14.257  0.00  0.00    +0.000 A 
BRANCH  12  15
ATOM     15  O   UNL     1       8.292   5.750  12.839  0.00  0.00    +0.000 OA
ATOM     16  H   UNL     1       9.114   5.984  13.304  0.00  0.00    +0.000 HD
ENDBRANCH  12  15
BRANCH  13  17
ATOM     17  O   UNL     1       6.780   3.613  12.144  0.00  0.00    +0.000 OA
ATOM     18  H   UNL     1       7.608   3.096  12.204  0.00  0.00    +0.000 HD
ENDBRANCH  13  17
ENDBRANCH   8   9
BRANCH   7  20
ATOM     19  N   UNL     1       6.600   4.644  19.062  0.00  0.00    +0.000 NA
ATOM     20  C   UNL     1       5.699   4.223  18.465  0.00  0.00    +0.000 C 
ENDBRANCH   7  20
ENDBRANCH   3   7
ENDBRANCH   2   5
ENDBRANCH   1   2
BRANCH   1  21
ATOM     21  C   UNL     1       2.170   4.960  21.044  0.00  0.00    +0.000 C 
BRANCH  21  22
ATOM     22  N   UNL     1       1.677   6.339  20.959  0.00  0.00    +0.000 N 
ATOM     23  C   UNL     1       2.037   7.182  19.926  0.00  0.00    +0.000 C 
ATOM     24  O   UNL     1       2.751   6.801  19.000  0.00  0.00    +0.000 OA
ATOM     25  H   UNL     1       1.092   6.666  21.718  0.00  0.00    +0.000 HD
BRANCH  23  26
ATOM     26  C   UNL     1       1.528   8.603  19.968  0.00  0.00    +0.000 C 
ATOM     27  C   UNL     1       1.321   9.262  18.810  0.00  0.00    +0.000 C 
BRANCH  27  28
ATOM     28  C   UNL     1       0.811  10.640  18.740  0.00  0.00    +0.000 A 
ATOM     29  C   UNL     1       1.700  11.729  18.714  0.00  0.00    +0.000 A 
ATOM     30  C   UNL     1       1.219  13.042  18.610  0.00  0.00    +0.000 A 
ATOM     31  C   UNL     1      -0.150  13.257  18.527  0.00  0.00    +0.000 A 
ATOM     32  C   UNL     1      -1.031  12.180  18.542  0.00  0.00    +0.000 A 
ATOM     33  C   UNL     1      -0.566  10.875  18.648  0.00  0.00    +0.000 A 
BRANCH  31  34
ATOM     34  O   UNL     1      -0.683  14.512  18.427  0.00  0.00    +0.000 OA
ATOM     35  H   UNL     1      -1.228  14.678  19.217  0.00  0.00    +0.000 HD
ENDBRANCH  31  34
BRANCH  32  36
ATOM     36  O   UNL     1      -2.376  12.399  18.447  0.00  0.00    +0.000 OA
ATOM     37  H   UNL     1      -2.459  13.364  18.300  0.00  0.00    +0.000 HD
ENDBRANCH  32  36
ENDBRANCH  27  28
BRANCH  26  38
ATOM     38  C   UNL     1       1.201   9.289  21.284  0.00  0.00    +0.000 C 
ATOM     39  N   UNL     1       0.930   9.860  22.376  0.00  0.00    +0.000 NA
ENDBRANCH  26  38
ENDBRANCH  23  26
ENDBRANCH  21  22
ENDBRANCH   1  21
TORSDOF 14
ENDMDL
MODEL 2
REMARK VINA RESULT:      -7.3      3.688     11.511
REMARK  Name = 
REMARK  14 active torsions:
REMARK  status: ('A' for Active; 'I' for Inactive)
REMARK    1  A    between atoms: C_2  and  C_3
REMARK    2  A    between atoms: C_3  and  C_13
REMARK    3  A    between atoms: C_4  and  C_5
REMARK    4  A    between atoms: C_8  and  O_9
REMARK    5  A    between atoms: C_10  and  O_11
REMARK    6  A    between atoms: N_15  and  C_16
REMARK    7  A    between atoms: C_16  and  C_17
REMARK    8  A    between atoms: C_17  and  C_18
REMARK    9  A    between atoms: C_18  and  N_19
REMARK   10  A    between atoms: C_20  and  C_22
REMARK   11  A    between atoms: C_22  and  C_23
REMARK   12  A    between atoms: C_25  and  C_26
REMARK   13  A    between atoms: C_29  and  O_30
REMARK   14  A    between atoms: C_31  and  O_32
REMARK                            x       y       z     vdW  Elec       q    Type
REMARK                         _______ _______ _______ _____ _____    ______ ____
ROOT
ATOM      1  C   UNL     1       2.407  11.732  17.855  0.00  0.00    +0.000 C 
ENDROOT
BRANCH   1   2
ATOM      2  C   UNL     1       2.483  13.025  18.678  0.00  0.00    +0.000 C 
BRANCH   2   5
ATOM      3  C   UNL     1       1.203  13.299  20.787  0.00  0.00    +0.000 C 
ATOM      4  O   UNL     1       2.202  13.081  21.466  0.00  0.00    +0.000 OA
ATOM      5  N   UNL     1       1.245  13.297  19.403  0.00  0.00    +0.000 N 
ATOM      6  H   UNL     1       0.408  13.468  18.858  0.00  0.00    +0.000 HD
BRANCH   3   7
ATOM      7  C   UNL     1      -0.132  13.586  21.431  0.00  0.00    +0.000 C 
ATOM      8  C   UNL     1      -1.149  12.720  21.226  0.00  0.00    +0.000 C 
BRANCH   8   9
ATOM      9  C   UNL     1      -2.488  12.837  21.832  0.00  0.00    +0.000 A 
ATOM     10  C   UNL     1      -3.507  13.572  21.206  0.00  0.00    +0.000 A 
ATOM     11  C   UNL     1      -4.769  13.702  21.806  0.00  0.00    +0.000 A 
ATOM     12  C   UNL     1      -5.005  13.089  23.032  0.00  0.00    +0.000 A 
ATOM     13  C   UNL     1      -3.999  12.351  23.647  0.00  0.00    +0.000 A 
ATOM     14  C   UNL     1      -2.744  12.219  23.061  0.00  0.00    +0.000 A 
BRANCH  12  15
ATOM     15  O   UNL     1      -6.209  13.185  23.673  0.00  0.00    +0.000 OA
ATOM     16  H   UNL     1      -6.913  12.951  23.044  0.00  0.00    +0.000 HD
ENDBRANCH  12  15
BRANCH  13  17
ATOM     17  O   UNL     1      -4.239  11.746  24.849  0.00  0.00    +0.000 OA
ATOM     18  H   UNL     1      -4.032  12.431  25.517  0.00  0.00    +0.000 HD
ENDBRANCH  13  17
ENDBRANCH   8   9
BRANCH   7  20
ATOM     19  N   UNL     1      -0.420  15.721  22.849  0.00  0.00    +0.000 NA
ATOM     20  C   UNL     1      -0.284  14.744  22.240  0.00  0.00    +0.000 C 
ENDBRANCH   7  20
ENDBRANCH   3   7
ENDBRANCH   2   5
ENDBRANCH   1   2
BRANCH   1  21
ATOM     21  C   UNL     1       1.577  10.641  18.545  0.00  0.00    +0.000 C 
BRANCH  21  22
ATOM     22  N   UNL     1       2.055   9.288  18.242  0.00  0.00    +0.000 N 
ATOM     23  C   UNL     1       2.003   8.269  19.173  0.00  0.00    +0.000 C 
ATOM     24  O   UNL     1       1.509   8.436  20.287  0.00  0.00    +0.000 OA
ATOM     25  H   UNL     1       2.468   9.139  17.330  0.00  0.00    +0.000 HD
BRANCH  23  26
ATOM     26  C   UNL     1       2.583   6.931  18.783  0.00  0.00    +0.000 C 
ATOM     27  C   UNL     1       2.093   5.810  19.352  0.00  0.00    +0.000 C 
BRANCH  27  28
ATOM     28  C   UNL     1       2.574   4.458  19.030  0.00  0.00    +0.000 A 
ATOM     29  C   UNL     1       1.980   3.717  17.994  0.00  0.00    +0.000 A 
ATOM     30  C   UNL     1       2.459   2.443  17.660  0.00  0.00    +0.000 A 
ATOM     31  C   UNL     1       3.536   1.919  18.362  0.00  0.00    +0.000 A 
ATOM     32  C   UNL     1       4.133   2.655  19.382  0.00  0.00    +0.000 A 
ATOM     33  C   UNL     1       3.664   3.917  19.723  0.00  0.00    +0.000 A 
BRANCH  31  34
ATOM     34  O   UNL     1       4.048   0.681  18.088  0.00  0.00    +0.000 OA
ATOM     35  H   UNL     1       3.313   0.044  18.060  0.00  0.00    +0.000 HD
ENDBRANCH  31  34
BRANCH  32  36
ATOM     36  O   UNL     1       5.200   2.138  20.060  0.00  0.00    +0.000 OA
ATOM     37  H   UNL     1       5.920   2.104  19.397  0.00  0.00    +0.000 HD
ENDBRANCH  32  36
ENDBRANCH  27  28
BRANCH  26  38
ATOM     38  C   UNL     1       3.674   6.815  17.731  0.00  0.00    +0.000 C 
ATOM     39  N   UNL     1       4.580   6.720  16.858  0.00  0.00    +0.000 NA
ENDBRANCH  26  38
ENDBRANCH  23  26
ENDBRANCH  21  22
ENDBRANCH   1  21
TORSDOF 14
ENDMDL
MODEL 3
REMARK VINA RESULT:      -7.3      0.564      1.206
REMARK  Name = 
REMARK  14 active torsions:
REMARK  status: ('A' for Active; 'I' for Inactive)
REMARK    1  A    between atoms: C_2  and  C_3
REMARK    2  A    between atoms: C_3  and  C_13
REMARK    3  A    between atoms: C_4  and  C_5
REMARK    4  A    between atoms: C_8  and  O_9
REMARK    5  A    between atoms: C_10  and  O_11
REMARK    6  A    between atoms: N_15  and  C_16
REMARK    7  A    between atoms: C_16  and  C_17
REMARK    8  A    between atoms: C_17  and  C_18
REMARK    9  A    between atoms: C_18  and  N_19
REMARK   10  A    between atoms: C_20  and  C_22
REMARK   11  A    between atoms: C_22  and  C_23
REMARK   12  A    between atoms: C_25  and  C_26
REMARK   13  A    between atoms: C_29  and  O_30
REMARK   14  A    between atoms: C_31  and  O_32
REMARK                            x       y       z     vdW  Elec       q    Type
REMARK                         _______ _______ _______ _____ _____    ______ ____
ROOT
ATOM      1  C   UNL     1       1.018   3.820  20.735  0.00  0.00    +0.000 C 
ENDROOT
BRANCH   1   2
ATOM      2  C   UNL     1       1.118   3.326  19.286  0.00  0.00    +0.000 C 
BRANCH   2   5
ATOM      3  C   UNL     1       3.295   2.933  18.160  0.00  0.00    +0.000 C 
ATOM      4  O   UNL     1       3.186   1.717  18.290  0.00  0.00    +0.000 OA
ATOM      5  N   UNL     1       2.323   3.807  18.615  0.00  0.00    +0.000 N 
ATOM      6  H   UNL     1       2.434   4.809  18.510  0.00  0.00    +0.000 HD
BRANCH   3   7
ATOM      7  C   UNL     1       4.502   3.541  17.488  0.00  0.00    +0.000 C 
ATOM      8  C   UNL     1       4.541   3.581  16.138  0.00  0.00    +0.000 C 
BRANCH   8   9
ATOM      9  C   UNL     1       5.623   4.191  15.345  0.00  0.00    +0.000 A 
ATOM     10  C   UNL     1       6.418   5.222  15.872  0.00  0.00    +0.000 A 
ATOM     11  C   UNL     1       7.425   5.817  15.097  0.00  0.00    +0.000 A 
ATOM     12  C   UNL     1       7.636   5.372  13.797  0.00  0.00    +0.000 A 
ATOM     13  C   UNL     1       6.856   4.343  13.278  0.00  0.00    +0.000 A 
ATOM     14  C   UNL     1       5.853   3.749  14.038  0.00  0.00    +0.000 A 
BRANCH  12  15
ATOM     15  O   UNL     1       8.595   5.916  12.988  0.00  0.00    +0.000 OA
ATOM     16  H   UNL     1       9.035   6.635  13.473  0.00  0.00    +0.000 HD
ENDBRANCH  12  15
BRANCH  13  17
ATOM     17  O   UNL     1       7.071   3.905  12.002  0.00  0.00    +0.000 OA
ATOM     18  H   UNL     1       8.038   3.764  11.948  0.00  0.00    +0.000 HD
ENDBRANCH  13  17
ENDBRANCH   8   9
BRANCH   7  20
ATOM     19  N   UNL     1       6.384   4.477  18.984  0.00  0.00    +0.000 NA
ATOM     20  C   UNL     1       5.556   4.065  18.284  0.00  0.00    +0.000 C 
ENDBRANCH   7  20
ENDBRANCH   3   7
ENDBRANCH   2   5
ENDBRANCH   1   2
BRANCH   1  21
ATOM     21  C   UNL     1       2.086   4.868  21.077  0.00  0.00    +0.000 C 
BRANCH  21  22
ATOM     22  N   UNL     1       1.594   6.243  20.946  0.00  0.00    +0.000 N 
ATOM     23  C   UNL     1       2.071   7.102  19.976  0.00  0.00    +0.000 C 
ATOM     24  O   UNL     1       2.900   6.739  19.143  0.00  0.00    +0.000 OA
ATOM     25  H   UNL     1       0.914   6.556  21.629  0.00  0.00    +0.000 HD
BRANCH  23  26
ATOM     26  C   UNL     1       1.546   8.518  19.970  0.00  0.00    +0.000 C 
ATOM     27  C   UNL     1       1.344   9.140  18.790  0.00  0.00    +0.000 C 
BRANCH  27  28
ATOM     28  C   UNL     1       0.820  10.509  18.672  0.00  0.00    +0.000 A 
ATOM     29  C   UNL     1      -0.566  10.743  18.650  0.00  0.00    +0.000 A 
ATOM     30  C   UNL     1      -1.069  12.049  18.575  0.00  0.00    +0.000 A 
ATOM     31  C   UNL     1      -0.181  13.116  18.528  0.00  0.00    +0.000 A 
ATOM     32  C   UNL     1       1.191  12.887  18.559  0.00  0.00    +0.000 A 
ATOM     33  C   UNL     1       1.701  11.596  18.631  0.00  0.00    +0.000 A 
BRANCH  31  34
ATOM     34  O   UNL     1      -0.608  14.412  18.450  0.00  0.00    +0.000 OA
ATOM     35  H   UNL     1      -1.383  14.446  17.863  0.00  0.00    +0.000 HD
ENDBRANCH  31  34
BRANCH  32  36
ATOM     36  O   UNL     1       2.058  13.942  18.526  0.00  0.00    +0.000 OA
ATOM     37  H   UNL     1       1.966  14.366  19.403  0.00  0.00    +0.000 HD
ENDBRANCH  32  36
ENDBRANCH  27  28
BRANCH  26  38
ATOM     38  C   UNL     1       1.197   9.240  21.261  0.00  0.00    +0.000 C 
ATOM     39  N   UNL     1       0.908   9.840  22.332  0.00  0.00    +0.000 NA
ENDBRANCH  26  38
ENDBRANCH  23  26
ENDBRANCH  21  22
ENDBRANCH   1  21
TORSDOF 14
ENDMDL
MODEL 4
REMARK VINA RESULT:      -7.3      3.482     11.410
REMARK  Name = 
REMARK  14 active torsions:
REMARK  status: ('A' for Active; 'I' for Inactive)
REMARK    1  A    between atoms: C_2  and  C_3
REMARK    2  A    between atoms: C_3  and  C_13
REMARK    3  A    between atoms: C_4  and  C_5
REMARK    4  A    between atoms: C_8  and  O_9
REMARK    5  A    between atoms: C_10  and  O_11
REMARK    6  A    between atoms: N_15  and  C_16
REMARK    7  A    between atoms: C_16  and  C_17
REMARK    8  A    between atoms: C_17  and  C_18
REMARK    9  A    between atoms: C_18  and  N_19
REMARK   10  A    between atoms: C_20  and  C_22
REMARK   11  A    between atoms: C_22  and  C_23
REMARK   12  A    between atoms: C_25  and  C_26
REMARK   13  A    between atoms: C_29  and  O_30
REMARK   14  A    between atoms: C_31  and  O_32
REMARK                            x       y       z     vdW  Elec       q    Type
REMARK                         _______ _______ _______ _____ _____    ______ ____
ROOT
ATOM      1  C   UNL     1       1.108   9.036  21.989  0.00  0.00    +0.000 C 
ENDROOT
BRANCH   1   2
ATOM      2  C   UNL     1       0.387   9.454  23.278  0.00  0.00    +0.000 C 
BRANCH   2   5
ATOM      3  C   UNL     1      -0.849  11.487  22.570  0.00  0.00    +0.000 C 
ATOM      4  O   UNL     1       0.196  12.100  22.373  0.00  0.00    +0.000 OA
ATOM      5  N   UNL     1      -0.856  10.175  23.012  0.00  0.00    +0.000 N 
ATOM      6  H   UNL     1      -1.728   9.687  23.181  0.00  0.00    +0.000 HD
BRANCH   3   7
ATOM      7  C   UNL     1      -2.192  12.136  22.335  0.00  0.00    +0.000 C 
ATOM      8  C   UNL     1      -2.444  12.684  21.126  0.00  0.00    +0.000 C 
BRANCH   8   9
ATOM      9  C   UNL     1      -3.723  13.300  20.731  0.00  0.00    +0.000 A 
ATOM     10  C   UNL     1      -4.737  12.544  20.120  0.00  0.00    +0.000 A 
ATOM     11  C   UNL     1      -5.939  13.148  19.721  0.00  0.00    +0.000 A 
ATOM     12  C   UNL     1      -6.122  14.509  19.941  0.00  0.00    +0.000 A 
ATOM     13  C   UNL     1      -5.123  15.256  20.557  0.00  0.00    +0.000 A 
ATOM     14  C   UNL     1      -3.927  14.667  20.954  0.00  0.00    +0.000 A 
BRANCH  12  15
ATOM     15  O   UNL     1      -7.266  15.158  19.569  0.00  0.00    +0.000 OA
ATOM     16  H   UNL     1      -8.030  14.633  19.864  0.00  0.00    +0.000 HD
ENDBRANCH  12  15
BRANCH  13  17
ATOM     17  O   UNL     1      -5.311  16.592  20.777  0.00  0.00    +0.000 OA
ATOM     18  H   UNL     1      -4.458  16.906  21.137  0.00  0.00    +0.000 HD
ENDBRANCH  13  17
ENDBRANCH   8   9
BRANCH   7  20
ATOM     19  N   UNL     1      -3.952  12.093  24.221  0.00  0.00    +0.000 NA
ATOM     20  C   UNL     1      -3.157  12.146  23.378  0.00  0.00    +0.000 C 
ENDBRANCH   7  20
ENDBRANCH   3   7
ENDBRANCH   2   5
ENDBRANCH   1   2
BRANCH   1  21
ATOM     21  C   UNL     1       0.811   7.584  21.591  0.00  0.00    +0.000 C 
BRANCH  21  22
ATOM     22  N   UNL     1       1.615   7.132  20.451  0.00  0.00    +0.000 N 
ATOM     23  C   UNL     1       1.918   5.800  20.252  0.00  0.00    +0.000 C 
ATOM     24  O   UNL     1       1.489   4.921  20.998  0.00  0.00    +0.000 OA
ATOM     25  H   UNL     1       1.978   7.847  19.833  0.00  0.00    +0.000 HD
BRANCH  23  26
ATOM     26  C   UNL     1       2.809   5.448  19.085  0.00  0.00    +0.000 C 
ATOM     27  C   UNL     1       3.995   6.076  18.949  0.00  0.00    +0.000 C 
BRANCH  27  28
ATOM     28  C   UNL     1       4.943   5.795  17.860  0.00  0.00    +0.000 A 
ATOM     29  C   UNL     1       4.720   6.307  16.570  0.00  0.00    +0.000 A 
ATOM     30  C   UNL     1       5.639   6.072  15.539  0.00  0.00    +0.000 A 
ATOM     31  C   UNL     1       6.782   5.330  15.806  0.00  0.00    +0.000 A 
ATOM     32  C   UNL     1       7.010   4.831  17.085  0.00  0.00    +0.000 A 
ATOM     33  C   UNL     1       6.104   5.055  18.114  0.00  0.00    +0.000 A 
BRANCH  31  34
ATOM     34  O   UNL     1       7.716   5.063  14.844  0.00  0.00    +0.000 OA
ATOM     35  H   UNL     1       8.525   4.744  15.281  0.00  0.00    +0.000 HD
ENDBRANCH  31  34
BRANCH  32  36
ATOM     36  O   UNL     1       8.144   4.113  17.343  0.00  0.00    +0.000 OA
ATOM     37  H   UNL     1       8.128   3.384  16.690  0.00  0.00    +0.000 HD
ENDBRANCH  32  36
ENDBRANCH  27  28
BRANCH  26  38
ATOM     38  C   UNL     1       2.418   4.372  18.085  0.00  0.00    +0.000 C 
ATOM     39  N   UNL     1       2.093   3.480  17.255  0.00  0.00    +0.000 NA
ENDBRANCH  26  38
ENDBRANCH  23  26
ENDBRANCH  21  22
ENDBRANCH   1  21
TORSDOF 14
ENDMDL
MODEL 5
REMARK VINA RESULT:      -7.3      4.218     12.070
REMARK  Name = 
REMARK  14 active torsions:
REMARK  status: ('A' for Active; 'I' for Inactive)
REMARK    1  A    between atoms: C_2  and  C_3
REMARK    2  A    between atoms: C_3  and  C_13
REMARK    3  A    between atoms: C_4  and  C_5
REMARK    4  A    between atoms: C_8  and  O_9
REMARK    5  A    between atoms: C_10  and  O_11
REMARK    6  A    between atoms: N_15  and  C_16
REMARK    7  A    between atoms: C_16  and  C_17
REMARK    8  A    between atoms: C_17  and  C_18
REMARK    9  A    between atoms: C_18  and  N_19
REMARK   10  A    between atoms: C_20  and  C_22
REMARK   11  A    between atoms: C_22  and  C_23
REMARK   12  A    between atoms: C_25  and  C_26
REMARK   13  A    between atoms: C_29  and  O_30
REMARK   14  A    between atoms: C_31  and  O_32
REMARK                            x       y       z     vdW  Elec       q    Type
REMARK                         _______ _______ _______ _____ _____    ______ ____
ROOT
ATOM      1  C   UNL     1       0.407   8.769  21.336  0.00  0.00    +0.000 C 
ENDROOT
BRANCH   1   2
ATOM      2  C   UNL     1       0.309   9.607  22.617  0.00  0.00    +0.000 C 
BRANCH   2   5
ATOM      3  C   UNL     1      -0.589  11.872  22.140  0.00  0.00    +0.000 C 
ATOM      4  O   UNL     1       0.512  12.273  21.773  0.00  0.00    +0.000 OA
ATOM      5  N   UNL     1      -0.788  10.571  22.569  0.00  0.00    +0.000 N 
ATOM      6  H   UNL     1      -1.701  10.260  22.880  0.00  0.00    +0.000 HD
BRANCH   3   7
ATOM      7  C   UNL     1      -1.792  12.783  22.139  0.00  0.00    +0.000 C 
ATOM      8  C   UNL     1      -2.807  12.519  22.991  0.00  0.00    +0.000 C 
BRANCH   8   9
ATOM      9  C   UNL     1      -4.016  13.347  23.142  0.00  0.00    +0.000 A 
ATOM     10  C   UNL     1      -5.199  13.042  22.447  0.00  0.00    +0.000 A 
ATOM     11  C   UNL     1      -6.334  13.856  22.576  0.00  0.00    +0.000 A 
ATOM     12  C   UNL     1      -6.283  14.971  23.404  0.00  0.00    +0.000 A 
ATOM     13  C   UNL     1      -5.115  15.267  24.102  0.00  0.00    +0.000 A 
ATOM     14  C   UNL     1      -3.983  14.468  23.979  0.00  0.00    +0.000 A 
BRANCH  12  15
ATOM     15  O   UNL     1      -7.352  15.808  23.565  0.00  0.00    +0.000 OA
ATOM     16  H   UNL     1      -7.055  16.598  24.049  0.00  0.00    +0.000 HD
ENDBRANCH  12  15
BRANCH  13  17
ATOM     17  O   UNL     1      -5.072  16.361  24.920  0.00  0.00    +0.000 OA
ATOM     18  H   UNL     1      -4.244  16.821  24.675  0.00  0.00    +0.000 HD
ENDBRANCH  13  17
ENDBRANCH   8   9
BRANCH   7  20
ATOM     19  N   UNL     1      -1.898  14.777  20.505  0.00  0.00    +0.000 NA
ATOM     20  C   UNL     1      -1.826  13.897  21.256  0.00  0.00    +0.000 C 
ENDBRANCH   7  20
ENDBRANCH   3   7
ENDBRANCH   2   5
ENDBRANCH   1   2
BRANCH   1  21
ATOM     21  C   UNL     1       1.040   7.392  21.579  0.00  0.00    +0.000 C 
BRANCH  21  22
ATOM     22  N   UNL     1       1.863   6.939  20.452  0.00  0.00    +0.000 N 
ATOM     23  C   UNL     1       1.882   5.621  20.044  0.00  0.00    +0.000 C 
ATOM     24  O   UNL     1       1.171   4.769  20.576  0.00  0.00    +0.000 OA
ATOM     25  H   UNL     1       2.456   7.630  20.009  0.00  0.00    +0.000 HD
BRANCH  23  26
ATOM     26  C   UNL     1       2.814   5.247  18.916  0.00  0.00    +0.000 C 
ATOM     27  C   UNL     1       3.962   5.937  18.755  0.00  0.00    +0.000 C 
BRANCH  27  28
ATOM     28  C   UNL     1       4.946   5.643  17.702  0.00  0.00    +0.000 A 
ATOM     29  C   UNL     1       4.736   6.087  16.385  0.00  0.00    +0.000 A 
ATOM     30  C   UNL     1       5.688   5.841  15.387  0.00  0.00    +0.000 A 
ATOM     31  C   UNL     1       6.851   5.155  15.714  0.00  0.00    +0.000 A 
ATOM     32  C   UNL     1       7.065   4.723  17.020  0.00  0.00    +0.000 A 
ATOM     33  C   UNL     1       6.126   4.959  18.016  0.00  0.00    +0.000 A 
BRANCH  31  34
ATOM     34  O   UNL     1       7.816   4.879  14.787  0.00  0.00    +0.000 OA
ATOM     35  H   UNL     1       7.564   4.068  14.312  0.00  0.00    +0.000 HD
ENDBRANCH  31  34
BRANCH  32  36
ATOM     36  O   UNL     1       8.217   4.060  17.337  0.00  0.00    +0.000 OA
ATOM     37  H   UNL     1       8.249   4.074  18.315  0.00  0.00    +0.000 HD
ENDBRANCH  32  36
ENDBRANCH  27  28
BRANCH  26  38
ATOM     38  C   UNL     1       2.510   4.082  17.988  0.00  0.00    +0.000 C 
ATOM     39  N   UNL     1       2.257   3.115  17.219  0.00  0.00    +0.000 NA
ENDBRANCH  26  38
ENDBRANCH  23  26
ENDBRANCH  21  22
ENDBRANCH   1  21
TORSDOF 14
ENDMDL
MODEL 6
REMARK VINA RESULT:      -7.2      4.016     11.967
REMARK  Name = 
REMARK  14 active torsions:
REMARK  status: ('A' for Active; 'I' for Inactive)
REMARK    1  A    between atoms: C_2  and  C_3
REMARK    2  A    between atoms: C_3  and  C_13
REMARK    3  A    between atoms: C_4  and  C_5
REMARK    4  A    between atoms: C_8  and  O_9
REMARK    5  A    between atoms: C_10  and  O_11
REMARK    6  A    between atoms: N_15  and  C_16
REMARK    7  A    between atoms: C_16  and  C_17
REMARK    8  A    between atoms: C_17  and  C_18
REMARK    9  A    between atoms: C_18  and  N_19
REMARK   10  A    between atoms: C_20  and  C_22
REMARK   11  A    between atoms: C_22  and  C_23
REMARK   12  A    between atoms: C_25  and  C_26
REMARK   13  A    between atoms: C_29  and  O_30
REMARK   14  A    between atoms: C_31  and  O_32
REMARK                            x       y       z     vdW  Elec       q    Type
REMARK                         _______ _______ _______ _____ _____    ______ ____
ROOT
ATOM      1  C   UNL     1       0.726  10.685  18.536  0.00  0.00    +0.000 C 
ENDROOT
BRANCH   1   2
ATOM      2  C   UNL     1       0.670  12.198  18.784  0.00  0.00    +0.000 C 
BRANCH   2   5
ATOM      3  C   UNL     1      -0.282  12.985  20.936  0.00  0.00    +0.000 C 
ATOM      4  O   UNL     1       0.830  13.043  21.452  0.00  0.00    +0.000 OA
ATOM      5  N   UNL     1      -0.461  12.584  19.624  0.00  0.00    +0.000 N 
ATOM      6  H   UNL     1      -1.388  12.531  19.218  0.00  0.00    +0.000 HD
BRANCH   3   7
ATOM      7  C   UNL     1      -1.523  13.354  21.713  0.00  0.00    +0.000 C 
ATOM      8  C   UNL     1      -2.499  12.431  21.852  0.00  0.00    +0.000 C 
BRANCH   8   9
ATOM      9  C   UNL     1      -3.738  12.626  22.627  0.00  0.00    +0.000 A 
ATOM     10  C   UNL     1      -3.787  12.347  24.003  0.00  0.00    +0.000 A 
ATOM     11  C   UNL     1      -4.979  12.507  24.724  0.00  0.00    +0.000 A 
ATOM     12  C   UNL     1      -6.119  12.953  24.064  0.00  0.00    +0.000 A 
ATOM     13  C   UNL     1      -6.068  13.240  22.703  0.00  0.00    +0.000 A 
ATOM     14  C   UNL     1      -4.891  13.082  21.979  0.00  0.00    +0.000 A 
BRANCH  12  15
ATOM     15  O   UNL     1      -7.314  13.121  24.707  0.00  0.00    +0.000 OA
ATOM     16  H   UNL     1      -7.955  12.491  24.336  0.00  0.00    +0.000 HD
ENDBRANCH  12  15
BRANCH  13  17
ATOM     17  O   UNL     1      -7.190  13.683  22.061  0.00  0.00    +0.000 OA
ATOM     18  H   UNL     1      -7.640  14.256  22.714  0.00  0.00    +0.000 HD
ENDBRANCH  13  17
ENDBRANCH   8   9
BRANCH   7  20
ATOM     19  N   UNL     1      -1.656  15.712  22.752  0.00  0.00    +0.000 NA
ATOM     20  C   UNL     1      -1.630  14.650  22.286  0.00  0.00    +0.000 C 
ENDBRANCH   7  20
ENDBRANCH   3   7
ENDBRANCH   2   5
ENDBRANCH   1   2
BRANCH   1  21
ATOM     21  C   UNL     1       0.951   9.883  19.826  0.00  0.00    +0.000 C 
BRANCH  21  22
ATOM     22  N   UNL     1       1.591   8.587  19.583  0.00  0.00    +0.000 N 
ATOM     23  C   UNL     1       2.245   8.304  18.401  0.00  0.00    +0.000 C 
ATOM     24  O   UNL     1       2.364   9.144  17.511  0.00  0.00    +0.000 OA
ATOM     25  H   UNL     1       1.497   7.884  20.307  0.00  0.00    +0.000 HD
BRANCH  23  26
ATOM     26  C   UNL     1       2.813   6.915  18.225  0.00  0.00    +0.000 C 
ATOM     27  C   UNL     1       2.190   5.871  18.810  0.00  0.00    +0.000 C 
BRANCH  27  28
ATOM     28  C   UNL     1       2.649   4.479  18.687  0.00  0.00    +0.000 A 
ATOM     29  C   UNL     1       2.064   3.616  17.745  0.00  0.00    +0.000 A 
ATOM     30  C   UNL     1       2.523   2.299  17.599  0.00  0.00    +0.000 A 
ATOM     31  C   UNL     1       3.571   1.855  18.396  0.00  0.00    +0.000 A 
ATOM     32  C   UNL     1       4.157   2.712  19.323  0.00  0.00    +0.000 A 
ATOM     33  C   UNL     1       3.708   4.018  19.477  0.00  0.00    +0.000 A 
BRANCH  31  34
ATOM     34  O   UNL     1       4.062   0.583  18.306  0.00  0.00    +0.000 OA
ATOM     35  H   UNL     1       5.010   0.604  18.529  0.00  0.00    +0.000 HD
ENDBRANCH  31  34
BRANCH  32  36
ATOM     36  O   UNL     1       5.196   2.272  20.094  0.00  0.00    +0.000 OA
ATOM     37  H   UNL     1       5.825   3.021  20.112  0.00  0.00    +0.000 HD
ENDBRANCH  32  36
ENDBRANCH  27  28
BRANCH  26  38
ATOM     38  C   UNL     1       4.043   6.664  17.369  0.00  0.00    +0.000 C 
ATOM     39  N   UNL     1       5.063   6.455  16.657  0.00  0.00    +0.000 NA
ENDBRANCH  26  38
ENDBRANCH  23  26
ENDBRANCH  21  22
ENDBRANCH   1  21
TORSDOF 14
ENDMDL
MODEL 7
REMARK VINA RESULT:      -7.2      3.608     10.108
REMARK  Name = 
REMARK  14 active torsions:
REMARK  status: ('A' for Active; 'I' for Inactive)
REMARK    1  A    between atoms: C_2  and  C_3
REMARK    2  A    between atoms: C_3  and  C_13
REMARK    3  A    between atoms: C_4  and  C_5
REMARK    4  A    between atoms: C_8  and  O_9
REMARK    5  A    between atoms: C_10  and  O_11
REMARK    6  A    between atoms: N_15  and  C_16
REMARK    7  A    between atoms: C_16  and  C_17
REMARK    8  A    between atoms: C_17  and  C_18
REMARK    9  A    between atoms: C_18  and  N_19
REMARK   10  A    between atoms: C_20  and  C_22
REMARK   11  A    between atoms: C_22  and  C_23
REMARK   12  A    between atoms: C_25  and  C_26
REMARK   13  A    between atoms: C_29  and  O_30
REMARK   14  A    between atoms: C_31  and  O_32
REMARK                            x       y       z     vdW  Elec       q    Type
REMARK                         _______ _______ _______ _____ _____    ______ ____
ROOT
ATOM      1  C   UNL     1      -0.068  10.068  20.521  0.00  0.00    +0.000 C 
ENDROOT
BRANCH   1   2
ATOM      2  C   UNL     1      -0.589  11.472  20.857  0.00  0.00    +0.000 C 
BRANCH   2   5
ATOM      3  C   UNL     1       0.148  13.470  19.582  0.00  0.00    +0.000 C 
ATOM      4  O   UNL     1      -0.895  13.490  18.936  0.00  0.00    +0.000 OA
ATOM      5  N   UNL     1       0.388  12.515  20.555  0.00  0.00    +0.000 N 
ATOM      6  H   UNL     1       1.260  12.507  21.072  0.00  0.00    +0.000 HD
BRANCH   3   7
ATOM      7  C   UNL     1       1.230  14.496  19.349  0.00  0.00    +0.000 C 
ATOM      8  C   UNL     1       2.502  14.184  19.684  0.00  0.00    +0.000 C 
BRANCH   8   9
ATOM      9  C   UNL     1       3.668  15.058  19.465  0.00  0.00    +0.000 A 
ATOM     10  C   UNL     1       3.778  16.300  20.112  0.00  0.00    +0.000 A 
ATOM     11  C   UNL     1       4.878  17.138  19.873  0.00  0.00    +0.000 A 
ATOM     12  C   UNL     1       5.867  16.725  18.987  0.00  0.00    +0.000 A 
ATOM     13  C   UNL     1       5.765  15.490  18.354  0.00  0.00    +0.000 A 
ATOM     14  C   UNL     1       4.677  14.654  18.583  0.00  0.00    +0.000 A 
BRANCH  12  15
ATOM     15  O   UNL     1       6.959  17.498  18.704  0.00  0.00    +0.000 OA
ATOM     16  H   UNL     1       7.417  17.115  17.936  0.00  0.00    +0.000 HD
ENDBRANCH  12  15
BRANCH  13  17
ATOM     17  O   UNL     1       6.743  15.087  17.489  0.00  0.00    +0.000 OA
ATOM     18  H   UNL     1       7.568  15.466  17.854  0.00  0.00    +0.000 HD
ENDBRANCH  13  17
ENDBRANCH   8   9
BRANCH   7  20
ATOM     19  N   UNL     1       0.665  16.803  18.342  0.00  0.00    +0.000 NA
ATOM     20  C   UNL     1       0.893  15.752  18.778  0.00  0.00    +0.000 C 
ENDBRANCH   7  20
ENDBRANCH   3   7
ENDBRANCH   2   5
ENDBRANCH   1   2
BRANCH   1  21
ATOM     21  C   UNL     1       1.090  10.093  19.514  0.00  0.00    +0.000 C 
BRANCH  21  22
ATOM     22  N   UNL     1       1.712   8.778  19.332  0.00  0.00    +0.000 N 
ATOM     23  C   UNL     1       2.316   8.413  18.145  0.00  0.00    +0.000 C 
ATOM     24  O   UNL     1       2.403   9.192  17.198  0.00  0.00    +0.000 OA
ATOM     25  H   UNL     1       1.643   8.126  20.103  0.00  0.00    +0.000 HD
BRANCH  23  26
ATOM     26  C   UNL     1       2.868   7.011  18.039  0.00  0.00    +0.000 C 
ATOM     27  C   UNL     1       2.186   5.991  18.600  0.00  0.00    +0.000 C 
BRANCH  27  28
ATOM     28  C   UNL     1       2.626   4.589  18.539  0.00  0.00    +0.000 A 
ATOM     29  C   UNL     1       1.991   3.679  17.676  0.00  0.00    +0.000 A 
ATOM     30  C   UNL     1       2.431   2.351  17.587  0.00  0.00    +0.000 A 
ATOM     31  C   UNL     1       3.509   1.942  18.361  0.00  0.00    +0.000 A 
ATOM     32  C   UNL     1       4.145   2.844  19.210  0.00  0.00    +0.000 A 
ATOM     33  C   UNL     1       3.716   4.162  19.307  0.00  0.00    +0.000 A 
BRANCH  31  34
ATOM     34  O   UNL     1       3.984   0.661  18.324  0.00  0.00    +0.000 OA
ATOM     35  H   UNL     1       4.870   0.673  17.921  0.00  0.00    +0.000 HD
ENDBRANCH  31  34
BRANCH  32  36
ATOM     36  O   UNL     1       5.213   2.437  19.958  0.00  0.00    +0.000 OA
ATOM     37  H   UNL     1       5.014   2.751  20.864  0.00  0.00    +0.000 HD
ENDBRANCH  32  36
ENDBRANCH  27  28
BRANCH  26  38
ATOM     38  C   UNL     1       4.149   6.719  17.275  0.00  0.00    +0.000 C 
ATOM     39  N   UNL     1       5.213   6.478  16.642  0.00  0.00    +0.000 NA
ENDBRANCH  26  38
ENDBRANCH  23  26
ENDBRANCH  21  22
ENDBRANCH   1  21
TORSDOF 14
ENDMDL
MODEL 8
REMARK VINA RESULT:      -7.2      3.359     10.413
REMARK  Name = 
REMARK  14 active torsions:
REMARK  status: ('A' for Active; 'I' for Inactive)
REMARK    1  A    between atoms: C_2  and  C_3
REMARK    2  A    between atoms: C_3  and  C_13
REMARK    3  A    between atoms: C_4  and  C_5
REMARK    4  A    between atoms: C_8  and  O_9
REMARK    5  A    between atoms: C_10  and  O_11
REMARK    6  A    between atoms: N_15  and  C_16
REMARK    7  A    between atoms: C_16  and  C_17
REMARK    8  A    between atoms: C_17  and  C_18
REMARK    9  A    between atoms: C_18  and  N_19
REMARK   10  A    between atoms: C_20  and  C_22
REMARK   11  A    between atoms: C_22  and  C_23
REMARK   12  A    between atoms: C_25  and  C_26
REMARK   13  A    between atoms: C_29  and  O_30
REMARK   14  A    between atoms: C_31  and  O_32
REMARK                            x       y       z     vdW  Elec       q    Type
REMARK                         _______ _______ _______ _____ _____    ______ ____
ROOT
ATOM      1  C   UNL     1      -0.392   9.742  20.396  0.00  0.00    +0.000 C 
ENDROOT
BRANCH   1   2
ATOM      2  C   UNL     1      -1.116  11.091  20.509  0.00  0.00    +0.000 C 
BRANCH   2   5
ATOM      3  C   UNL     1      -0.503  13.207  19.366  0.00  0.00    +0.000 C 
ATOM      4  O   UNL     1      -1.522  13.177  18.681  0.00  0.00    +0.000 OA
ATOM      5  N   UNL     1      -0.219  12.224  20.298  0.00  0.00    +0.000 N 
ATOM      6  H   UNL     1       0.633  12.258  20.846  0.00  0.00    +0.000 HD
BRANCH   3   7
ATOM      7  C   UNL     1       0.498  14.328  19.226  0.00  0.00    +0.000 C 
ATOM      8  C   UNL     1       1.792  14.082  19.528  0.00  0.00    +0.000 C 
BRANCH   8   9
ATOM      9  C   UNL     1       2.888  15.057  19.389  0.00  0.00    +0.000 A 
ATOM     10  C   UNL     1       3.590  15.195  18.179  0.00  0.00    +0.000 A 
ATOM     11  C   UNL     1       4.652  16.105  18.067  0.00  0.00    +0.000 A 
ATOM     12  C   UNL     1       5.004  16.878  19.167  0.00  0.00    +0.000 A 
ATOM     13  C   UNL     1       4.302  16.751  20.362  0.00  0.00    +0.000 A 
ATOM     14  C   UNL     1       3.249  15.850  20.484  0.00  0.00    +0.000 A 
BRANCH  12  15
ATOM     15  O   UNL     1       6.034  17.777  19.125  0.00  0.00    +0.000 OA
ATOM     16  H   UNL     1       5.724  18.619  19.500  0.00  0.00    +0.000 HD
ENDBRANCH  12  15
BRANCH  13  17
ATOM     17  O   UNL     1       4.649  17.519  21.438  0.00  0.00    +0.000 OA
ATOM     18  H   UNL     1       5.389  17.037  21.858  0.00  0.00    +0.000 HD
ENDBRANCH  13  17
ENDBRANCH   8   9
BRANCH   7  20
ATOM     19  N   UNL     1      -0.315  16.615  18.354  0.00  0.00    +0.000 NA
ATOM     20  C   UNL     1       0.063  15.602  18.773  0.00  0.00    +0.000 C 
ENDBRANCH   7  20
ENDBRANCH   3   7
ENDBRANCH   2   5
ENDBRANCH   1   2
BRANCH   1  21
ATOM     21  C   UNL     1       1.056   9.889  19.909  0.00  0.00    +0.000 C 
BRANCH  21  22
ATOM     22  N   UNL     1       1.700   8.598  19.648  0.00  0.00    +0.000 N 
ATOM     23  C   UNL     1       2.198   8.267  18.404  0.00  0.00    +0.000 C 
ATOM     24  O   UNL     1       2.167   9.060  17.464  0.00  0.00    +0.000 OA
ATOM     25  H   UNL     1       1.728   7.934  20.413  0.00  0.00    +0.000 HD
BRANCH  23  26
ATOM     26  C   UNL     1       2.782   6.886  18.224  0.00  0.00    +0.000 C 
ATOM     27  C   UNL     1       2.176   5.833  18.811  0.00  0.00    +0.000 C 
BRANCH  27  28
ATOM     28  C   UNL     1       2.653   4.447  18.685  0.00  0.00    +0.000 A 
ATOM     29  C   UNL     1       2.114   3.595  17.706  0.00  0.00    +0.000 A 
ATOM     30  C   UNL     1       2.591   2.285  17.558  0.00  0.00    +0.000 A 
ATOM     31  C   UNL     1       3.609   1.837  18.389  0.00  0.00    +0.000 A 
ATOM     32  C   UNL     1       4.150   2.683  19.354  0.00  0.00    +0.000 A 
ATOM     33  C   UNL     1       3.683   3.982  19.510  0.00  0.00    +0.000 A 
BRANCH  31  34
ATOM     34  O   UNL     1       4.116   0.570  18.299  0.00  0.00    +0.000 OA
ATOM     35  H   UNL     1       4.960   0.611  17.816  0.00  0.00    +0.000 HD
ENDBRANCH  31  34
BRANCH  32  36
ATOM     36  O   UNL     1       5.160   2.239  20.159  0.00  0.00    +0.000 OA
ATOM     37  H   UNL     1       4.710   1.926  20.970  0.00  0.00    +0.000 HD
ENDBRANCH  32  36
ENDBRANCH  27  28
BRANCH  26  38
ATOM     38  C   UNL     1       4.010   6.651  17.360  0.00  0.00    +0.000 C 
ATOM     39  N   UNL     1       5.030   6.455  16.644  0.00  0.00    +0.000 NA
ENDBRANCH  26  38
ENDBRANCH  23  26
ENDBRANCH  21  22
ENDBRANCH   1  21
TORSDOF 14
ENDMDL
MODEL 9
REMARK VINA RESULT:      -7.1      4.645      6.856
REMARK  Name = 
REMARK  14 active torsions:
REMARK  status: ('A' for Active; 'I' for Inactive)
REMARK    1  A    between atoms: C_2  and  C_3
REMARK    2  A    between atoms: C_3  and  C_13
REMARK    3  A    between atoms: C_4  and  C_5
REMARK    4  A    between atoms: C_8  and  O_9
REMARK    5  A    between atoms: C_10  and  O_11
REMARK    6  A    between atoms: N_15  and  C_16
REMARK    7  A    between atoms: C_16  and  C_17
REMARK    8  A    between atoms: C_17  and  C_18
REMARK    9  A    between atoms: C_18  and  N_19
REMARK   10  A    between atoms: C_20  and  C_22
REMARK   11  A    between atoms: C_22  and  C_23
REMARK   12  A    between atoms: C_25  and  C_26
REMARK   13  A    between atoms: C_29  and  O_30
REMARK   14  A    between atoms: C_31  and  O_32
REMARK                            x       y       z     vdW  Elec       q    Type
REMARK                         _______ _______ _______ _____ _____    ______ ____
ROOT
ATOM      1  C   UNL     1      -0.236   9.758  20.830  0.00  0.00    +0.000 C 
ENDROOT
BRANCH   1   2
ATOM      2  C   UNL     1       0.865   9.880  19.769  0.00  0.00    +0.000 C 
BRANCH   2   5
ATOM      3  C   UNL     1       2.161   8.357  18.297  0.00  0.00    +0.000 C 
ATOM      4  O   UNL     1       2.210   9.199  17.405  0.00  0.00    +0.000 OA
ATOM      5  N   UNL     1       1.524   8.603  19.501  0.00  0.00    +0.000 N 
ATOM      6  H   UNL     1       1.482   7.892  20.222  0.00  0.00    +0.000 HD
BRANCH   3   7
ATOM      7  C   UNL     1       2.801   7.001  18.126  0.00  0.00    +0.000 C 
ATOM      8  C   UNL     1       2.207   5.928  18.694  0.00  0.00    +0.000 C 
BRANCH   8   9
ATOM      9  C   UNL     1       2.682   4.539  18.568  0.00  0.00    +0.000 A 
ATOM     10  C   UNL     1       2.087   3.646  17.661  0.00  0.00    +0.000 A 
ATOM     11  C   UNL     1       2.527   2.317  17.571  0.00  0.00    +0.000 A 
ATOM     12  C   UNL     1       3.567   1.888  18.388  0.00  0.00    +0.000 A 
ATOM     13  C   UNL     1       4.166   2.775  19.278  0.00  0.00    +0.000 A 
ATOM     14  C   UNL     1       3.734   4.094  19.377  0.00  0.00    +0.000 A 
BRANCH  12  15
ATOM     15  O   UNL     1       4.037   0.604  18.355  0.00  0.00    +0.000 OA
ATOM     16  H   UNL     1       4.405   0.388  19.229  0.00  0.00    +0.000 HD
ENDBRANCH  12  15
BRANCH  13  17
ATOM     17  O   UNL     1       5.192   2.349  20.074  0.00  0.00    +0.000 OA
ATOM     18  H   UNL     1       4.847   1.546  20.514  0.00  0.00    +0.000 HD
ENDBRANCH  13  17
ENDBRANCH   8   9
BRANCH   7  20
ATOM     19  N   UNL     1       4.968   6.723  16.754  0.00  0.00    +0.000 NA
ATOM     20  C   UNL     1       3.997   6.882  17.369  0.00  0.00    +0.000 C 
ENDBRANCH   7  20
ENDBRANCH   3   7
ENDBRANCH   2   5
ENDBRANCH   1   2
BRANCH   1  21
ATOM     21  C   UNL     1      -0.161  10.868  21.888  0.00  0.00    +0.000 C 
BRANCH  21  22
ATOM     22  N   UNL     1      -1.358  11.715  21.907  0.00  0.00    +0.000 N 
ATOM     23  C   UNL     1      -1.470  12.804  22.748  0.00  0.00    +0.000 C 
ATOM     24  O   UNL     1      -0.550  13.144  23.491  0.00  0.00    +0.000 OA
ATOM     25  H   UNL     1      -2.124  11.443  21.303  0.00  0.00    +0.000 HD
BRANCH  23  26
ATOM     26  C   UNL     1      -2.770  13.571  22.736  0.00  0.00    +0.000 C 
ATOM     27  C   UNL     1      -2.753  14.899  22.976  0.00  0.00    +0.000 C 
BRANCH  27  28
ATOM     28  C   UNL     1      -3.959  15.741  22.970  0.00  0.00    +0.000 A 
ATOM     29  C   UNL     1      -4.726  15.896  24.138  0.00  0.00    +0.000 A 
ATOM     30  C   UNL     1      -5.855  16.727  24.146  0.00  0.00    +0.000 A 
ATOM     31  C   UNL     1      -6.208  17.403  22.985  0.00  0.00    +0.000 A 
ATOM     32  C   UNL     1      -5.444  17.258  21.831  0.00  0.00    +0.000 A 
ATOM     33  C   UNL     1      -4.325  16.435  21.811  0.00  0.00    +0.000 A 
BRANCH  31  34
ATOM     34  O   UNL     1      -7.299  18.224  22.926  0.00  0.00    +0.000 OA
ATOM     35  H   UNL     1      -7.852  18.057  23.710  0.00  0.00    +0.000 HD
ENDBRANCH  31  34
BRANCH  32  36
ATOM     36  O   UNL     1      -5.790  17.936  20.696  0.00  0.00    +0.000 OA
ATOM     37  H   UNL     1      -5.528  18.862  20.873  0.00  0.00    +0.000 HD
ENDBRANCH  32  36
ENDBRANCH  27  28
BRANCH  26  38
ATOM     38  C   UNL     1      -4.090  12.890  22.416  0.00  0.00    +0.000 C 
ATOM     39  N   UNL     1      -5.186  12.324  22.152  0.00  0.00    +0.000 NA
ENDBRANCH  26  38
ENDBRANCH  23  26
ENDBRANCH  21  22
ENDBRANCH   1  21
TORSDOF 14
ENDMDL
