MODEL 1
REMARK VINA RESULT:      -6.8      0.000      0.000
REMARK  Name = 
REMARK  11 active torsions:
REMARK  status: ('A' for Active; 'I' for Inactive)
REMARK    1  A    between atoms: C_1  and  C_2
REMARK    2  A    between atoms: C_2  and  C_3
REMARK    3  A    between atoms: C_3  and  C_4
REMARK    4  A    between atoms: C_4  and  C_5
REMARK    5  A    between atoms: C_5  and  C_6
REMARK    6  A    between atoms: C_6  and  C_7
REMARK    7  A    between atoms: C_7  and  C_8
REMARK    8  A    between atoms: C_8  and  C_9
REMARK    9  A    between atoms: C_9  and  N_10
REMARK   10  A    between atoms: C_11  and  C_13
REMARK   11  A    between atoms: N_16  and  O_17
REMARK                            x       y       z     vdW  Elec       q    Type
REMARK                         _______ _______ _______ _____ _____    ______ ____
ROOT
ATOM      1  C   UNL     1       3.163   5.924  17.513  0.00  0.00    +0.000 C 
ATOM      2  C   UNL     1       2.307   6.921  18.262  0.00  0.00    +0.000 C 
ATOM      3  O   UNL     1       1.737   7.889  17.725  0.00  0.00    +0.000 OA
ATOM      4  N   UNL     1       2.286   6.604  19.597  0.00  0.00    +0.000 N 
ATOM      5  C   UNL     1       1.764   5.407  20.058  0.00  0.00    +0.000 C 
ATOM      6  O   UNL     1       1.083   5.232  21.036  0.00  0.00    +0.000 OA
ATOM      7  C   UNL     1       2.166   4.264  19.178  0.00  0.00    +0.000 A 
ATOM      8  C   UNL     1       1.959   2.948  19.602  0.00  0.00    +0.000 A 
ATOM      9  C   UNL     1       2.425   1.882  18.827  0.00  0.00    +0.000 A 
ATOM     10  C   UNL     1       3.096   2.115  17.627  0.00  0.00    +0.000 A 
ATOM     11  C   UNL     1       3.316   3.422  17.198  0.00  0.00    +0.000 A 
ATOM     12  C   UNL     1       2.871   4.504  17.970  0.00  0.00    +0.000 A 
ENDROOT
BRANCH   1  14
ATOM     13  N   UNL     1       5.412   5.413  18.406  0.00  0.00    +0.000 N 
ATOM     14  C   UNL     1       4.626   6.308  17.712  0.00  0.00    +0.000 C 
ATOM     15  O   UNL     1       5.091   7.387  17.293  0.00  0.00    +0.000 OA
ATOM     16  H   UNL     1       5.043   4.509  18.683  0.00  0.00    +0.000 HD
BRANCH  13  17
ATOM     17  C   UNL     1       6.824   5.653  18.626  0.00  0.00    +0.000 C 
BRANCH  17  18
ATOM     18  C   UNL     1       7.687   4.644  17.882  0.00  0.00    +0.000 C 
BRANCH  18  19
ATOM     19  C   UNL     1       6.971   4.161  16.628  0.00  0.00    +0.000 C 
BRANCH  19  20
ATOM     20  C   UNL     1       7.294   5.063  15.447  0.00  0.00    +0.000 C 
BRANCH  20  21
ATOM     21  C   UNL     1       6.058   5.255  14.581  0.00  0.00    +0.000 C 
BRANCH  21  22
ATOM     22  C   UNL     1       5.602   3.919  14.019  0.00  0.00    +0.000 C 
BRANCH  22  23
ATOM     23  C   UNL     1       6.354   3.608  12.736  0.00  0.00    +0.000 C 
BRANCH  23  25
ATOM     24  C   UNL     1       6.468   1.671  11.174  0.00  0.00    +0.000 C 
ATOM     25  C   UNL     1       5.547   2.653  11.868  0.00  0.00    +0.000 C 
ENDBRANCH  23  25
ENDBRANCH  22  23
ENDBRANCH  21  22
ENDBRANCH  20  21
ENDBRANCH  19  20
ENDBRANCH  18  19
ENDBRANCH  17  18
ENDBRANCH  13  17
ENDBRANCH   1  14
BRANCH   4  26
ATOM     26  O   UNL     1       2.608   7.586  20.549  0.00  0.00    +0.000 OA
ATOM     27  H   UNL     1       3.127   8.225  20.011  0.00  0.00    +0.000 HD
ENDBRANCH   4  26
TORSDOF 10
ENDMDL
MODEL 2
REMARK VINA RESULT:      -6.7      4.116      7.706
REMARK  Name = 
REMARK  11 active torsions:
REMARK  status: ('A' for Active; 'I' for Inactive)
REMARK    1  A    between atoms: C_1  and  C_2
REMARK    2  A    between atoms: C_2  and  C_3
REMARK    3  A    between atoms: C_3  and  C_4
REMARK    4  A    between atoms: C_4  and  C_5
REMARK    5  A    between atoms: C_5  and  C_6
REMARK    6  A    between atoms: C_6  and  C_7
REMARK    7  A    between atoms: C_7  and  C_8
REMARK    8  A    between atoms: C_8  and  C_9
REMARK    9  A    between atoms: C_9  and  N_10
REMARK   10  A    between atoms: C_11  and  C_13
REMARK   11  A    between atoms: N_16  and  O_17
REMARK                            x       y       z     vdW  Elec       q    Type
REMARK                         _______ _______ _______ _____ _____    ______ ____
ROOT
ATOM      1  C   UNL     1       3.022   5.874  17.823  0.00  0.00    +0.000 C 
ATOM      2  C   UNL     1       2.453   4.517  18.173  0.00  0.00    +0.000 C 
ATOM      3  O   UNL     1       1.501   3.987  17.570  0.00  0.00    +0.000 OA
ATOM      4  N   UNL     1       3.126   3.996  19.249  0.00  0.00    +0.000 N 
ATOM      5  C   UNL     1       4.480   3.712  19.199  0.00  0.00    +0.000 C 
ATOM      6  O   UNL     1       5.046   2.752  19.658  0.00  0.00    +0.000 OA
ATOM      7  C   UNL     1       5.236   4.789  18.487  0.00  0.00    +0.000 A 
ATOM      8  C   UNL     1       6.633   4.822  18.548  0.00  0.00    +0.000 A 
ATOM      9  C   UNL     1       7.333   5.884  17.969  0.00  0.00    +0.000 A 
ATOM     10  C   UNL     1       6.654   6.917  17.324  0.00  0.00    +0.000 A 
ATOM     11  C   UNL     1       5.262   6.900  17.263  0.00  0.00    +0.000 A 
ATOM     12  C   UNL     1       4.542   5.853  17.853  0.00  0.00    +0.000 A 
ENDROOT
BRANCH   1  14
ATOM     13  N   UNL     1       2.052   8.109  18.253  0.00  0.00    +0.000 N 
ATOM     14  C   UNL     1       2.438   6.899  18.790  0.00  0.00    +0.000 C 
ATOM     15  O   UNL     1       2.334   6.673  20.013  0.00  0.00    +0.000 OA
ATOM     16  H   UNL     1       2.076   8.258  17.250  0.00  0.00    +0.000 HD
BRANCH  13  17
ATOM     17  C   UNL     1       1.451   9.145  19.068  0.00  0.00    +0.000 C 
BRANCH  17  18
ATOM     18  C   UNL     1       1.393  10.475  18.331  0.00  0.00    +0.000 C 
BRANCH  18  19
ATOM     19  C   UNL     1       0.099  11.206  18.664  0.00  0.00    +0.000 C 
BRANCH  19  20
ATOM     20  C   UNL     1      -1.065  10.230  18.724  0.00  0.00    +0.000 C 
BRANCH  20  21
ATOM     21  C   UNL     1      -1.683  10.066  17.343  0.00  0.00    +0.000 C 
BRANCH  21  22
ATOM     22  C   UNL     1      -3.145   9.668  17.470  0.00  0.00    +0.000 C 
BRANCH  22  23
ATOM     23  C   UNL     1      -3.968  10.851  17.951  0.00  0.00    +0.000 C 
BRANCH  23  25
ATOM     24  C   UNL     1      -5.801  12.380  17.239  0.00  0.00    +0.000 C 
ATOM     25  C   UNL     1      -4.616  11.560  16.770  0.00  0.00    +0.000 C 
ENDBRANCH  23  25
ENDBRANCH  22  23
ENDBRANCH  21  22
ENDBRANCH  20  21
ENDBRANCH  19  20
ENDBRANCH  18  19
ENDBRANCH  17  18
ENDBRANCH  13  17
ENDBRANCH   1  14
BRANCH   4  26
ATOM     26  O   UNL     1       2.404   3.543  20.365  0.00  0.00    +0.000 OA
ATOM     27  H   UNL     1       2.921   2.750  20.630  0.00  0.00    +0.000 HD
ENDBRANCH   4  26
TORSDOF 10
ENDMDL
MODEL 3
REMARK VINA RESULT:      -6.7      5.029      7.363
REMARK  Name = 
REMARK  11 active torsions:
REMARK  status: ('A' for Active; 'I' for Inactive)
REMARK    1  A    between atoms: C_1  and  C_2
REMARK    2  A    between atoms: C_2  and  C_3
REMARK    3  A    between atoms: C_3  and  C_4
REMARK    4  A    between atoms: C_4  and  C_5
REMARK    5  A    between atoms: C_5  and  C_6
REMARK    6  A    between atoms: C_6  and  C_7
REMARK    7  A    between atoms: C_7  and  C_8
REMARK    8  A    between atoms: C_8  and  C_9
REMARK    9  A    between atoms: C_9  and  N_10
REMARK   10  A    between atoms: C_11  and  C_13
REMARK   11  A    between atoms: N_16  and  O_17
REMARK                            x       y       z     vdW  Elec       q    Type
REMARK                         _______ _______ _______ _____ _____    ______ ____
ROOT
ATOM      1  C   UNL     1       6.573   5.488  18.340  0.00  0.00    +0.000 C 
ATOM      2  C   UNL     1       7.510   4.641  17.507  0.00  0.00    +0.000 C 
ATOM      3  O   UNL     1       8.581   4.168  17.931  0.00  0.00    +0.000 OA
ATOM      4  N   UNL     1       7.008   4.508  16.237  0.00  0.00    +0.000 N 
ATOM      5  C   UNL     1       5.795   3.886  15.990  0.00  0.00    +0.000 C 
ATOM      6  O   UNL     1       5.529   3.127  15.092  0.00  0.00    +0.000 OA
ATOM      7  C   UNL     1       4.765   4.281  17.002  0.00  0.00    +0.000 A 
ATOM      8  C   UNL     1       3.419   3.968  16.789  0.00  0.00    +0.000 A 
ATOM      9  C   UNL     1       2.445   4.425  17.681  0.00  0.00    +0.000 A 
ATOM     10  C   UNL     1       2.801   5.192  18.790  0.00  0.00    +0.000 A 
ATOM     11  C   UNL     1       4.137   5.517  19.009  0.00  0.00    +0.000 A 
ATOM     12  C   UNL     1       5.126   5.082  18.116  0.00  0.00    +0.000 A 
ENDROOT
BRANCH   1  14
ATOM     13  N   UNL     1       8.045   7.476  18.367  0.00  0.00    +0.000 N 
ATOM     14  C   UNL     1       6.824   6.953  17.997  0.00  0.00    +0.000 C 
ATOM     15  O   UNL     1       5.963   7.659  17.433  0.00  0.00    +0.000 OA
ATOM     16  H   UNL     1       8.763   6.879  18.763  0.00  0.00    +0.000 HD
BRANCH  13  17
ATOM     17  C   UNL     1       8.409   8.845  18.062  0.00  0.00    +0.000 C 
BRANCH  17  18
ATOM     18  C   UNL     1       8.995   9.553  19.275  0.00  0.00    +0.000 C 
BRANCH  18  19
ATOM     19  C   UNL     1       9.633  10.872  18.859  0.00  0.00    +0.000 C 
BRANCH  19  20
ATOM     20  C   UNL     1       9.759  11.805  20.054  0.00  0.00    +0.000 C 
BRANCH  20  21
ATOM     21  C   UNL     1      11.214  12.193  20.263  0.00  0.00    +0.000 C 
BRANCH  21  22
ATOM     22  C   UNL     1      11.906  12.369  18.921  0.00  0.00    +0.000 C 
BRANCH  22  23
ATOM     23  C   UNL     1      12.316  13.819  18.731  0.00  0.00    +0.000 C 
BRANCH  23  25
ATOM     24  C   UNL     1      11.267  13.200  16.559  0.00  0.00    +0.000 C 
ATOM     25  C   UNL     1      12.064  14.257  17.296  0.00  0.00    +0.000 C 
ENDBRANCH  23  25
ENDBRANCH  22  23
ENDBRANCH  21  22
ENDBRANCH  20  21
ENDBRANCH  19  20
ENDBRANCH  18  19
ENDBRANCH  17  18
ENDBRANCH  13  17
ENDBRANCH   1  14
BRANCH   4  26
ATOM     26  O   UNL     1       7.819   4.818  15.134  0.00  0.00    +0.000 OA
ATOM     27  H   UNL     1       8.322   5.595  15.466  0.00  0.00    +0.000 HD
ENDBRANCH   4  26
TORSDOF 10
ENDMDL
MODEL 4
REMARK VINA RESULT:      -6.7      3.703      7.732
REMARK  Name = 
REMARK  11 active torsions:
REMARK  status: ('A' for Active; 'I' for Inactive)
REMARK    1  A    between atoms: C_1  and  C_2
REMARK    2  A    between atoms: C_2  and  C_3
REMARK    3  A    between atoms: C_3  and  C_4
REMARK    4  A    between atoms: C_4  and  C_5
REMARK    5  A    between atoms: C_5  and  C_6
REMARK    6  A    between atoms: C_6  and  C_7
REMARK    7  A    between atoms: C_7  and  C_8
REMARK    8  A    between atoms: C_8  and  C_9
REMARK    9  A    between atoms: C_9  and  N_10
REMARK   10  A    between atoms: C_11  and  C_13
REMARK   11  A    between atoms: N_16  and  O_17
REMARK                            x       y       z     vdW  Elec       q    Type
REMARK                         _______ _______ _______ _____ _____    ______ ____
ROOT
ATOM      1  C   UNL     1       4.158   5.377  19.181  0.00  0.00    +0.000 C 
ATOM      2  C   UNL     1       5.294   4.514  18.680  0.00  0.00    +0.000 C 
ATOM      3  O   UNL     1       6.483   4.664  19.019  0.00  0.00    +0.000 OA
ATOM      4  N   UNL     1       4.813   3.582  17.795  0.00  0.00    +0.000 N 
ATOM      5  C   UNL     1       3.894   2.618  18.175  0.00  0.00    +0.000 C 
ATOM      6  O   UNL     1       3.875   1.456  17.854  0.00  0.00    +0.000 OA
ATOM      7  C   UNL     1       2.841   3.193  19.069  0.00  0.00    +0.000 A 
ATOM      8  C   UNL     1       1.688   2.455  19.357  0.00  0.00    +0.000 A 
ATOM      9  C   UNL     1       0.659   3.030  20.108  0.00  0.00    +0.000 A 
ATOM     10  C   UNL     1       0.769   4.337  20.581  0.00  0.00    +0.000 A 
ATOM     11  C   UNL     1       1.909   5.085  20.295  0.00  0.00    +0.000 A 
ATOM     12  C   UNL     1       2.943   4.531  19.529  0.00  0.00    +0.000 A 
ENDROOT
BRANCH   1  14
ATOM     13  N   UNL     1       2.932   7.398  18.452  0.00  0.00    +0.000 N 
ATOM     14  C   UNL     1       3.850   6.425  18.117  0.00  0.00    +0.000 C 
ATOM     15  O   UNL     1       4.378   6.397  16.986  0.00  0.00    +0.000 OA
ATOM     16  H   UNL     1       2.560   7.452  19.394  0.00  0.00    +0.000 HD
BRANCH  13  17
ATOM     17  C   UNL     1       2.587   8.465  17.534  0.00  0.00    +0.000 C 
BRANCH  17  18
ATOM     18  C   UNL     1       1.359   9.232  18.003  0.00  0.00    +0.000 C 
BRANCH  18  19
ATOM     19  C   UNL     1       1.236   9.153  19.519  0.00  0.00    +0.000 C 
BRANCH  19  20
ATOM     20  C   UNL     1       0.965  10.530  20.105  0.00  0.00    +0.000 C 
BRANCH  20  21
ATOM     21  C   UNL     1      -0.435  10.581  20.698  0.00  0.00    +0.000 C 
BRANCH  21  22
ATOM     22  C   UNL     1      -0.550   9.596  21.849  0.00  0.00    +0.000 C 
BRANCH  22  23
ATOM     23  C   UNL     1      -0.730  10.342  23.160  0.00  0.00    +0.000 C 
BRANCH  23  25
ATOM     24  C   UNL     1      -2.653  11.912  23.369  0.00  0.00    +0.000 C 
ATOM     25  C   UNL     1      -1.220  11.759  22.899  0.00  0.00    +0.000 C 
ENDBRANCH  23  25
ENDBRANCH  22  23
ENDBRANCH  21  22
ENDBRANCH  20  21
ENDBRANCH  19  20
ENDBRANCH  18  19
ENDBRANCH  17  18
ENDBRANCH  13  17
ENDBRANCH   1  14
BRANCH   4  26
ATOM     26  O   UNL     1       5.405   3.457  16.528  0.00  0.00    +0.000 OA
ATOM     27  H   UNL     1       5.574   4.397  16.292  0.00  0.00    +0.000 HD
ENDBRANCH   4  26
TORSDOF 10
ENDMDL
MODEL 5
REMARK VINA RESULT:      -6.7      3.850      8.067
REMARK  Name = 
REMARK  11 active torsions:
REMARK  status: ('A' for Active; 'I' for Inactive)
REMARK    1  A    between atoms: C_1  and  C_2
REMARK    2  A    between atoms: C_2  and  C_3
REMARK    3  A    between atoms: C_3  and  C_4
REMARK    4  A    between atoms: C_4  and  C_5
REMARK    5  A    between atoms: C_5  and  C_6
REMARK    6  A    between atoms: C_6  and  C_7
REMARK    7  A    between atoms: C_7  and  C_8
REMARK    8  A    between atoms: C_8  and  C_9
REMARK    9  A    between atoms: C_9  and  N_10
REMARK   10  A    between atoms: C_11  and  C_13
REMARK   11  A    between atoms: N_16  and  O_17
REMARK                            x       y       z     vdW  Elec       q    Type
REMARK                         _______ _______ _______ _____ _____    ______ ____
ROOT
ATOM      1  C   UNL     1       3.185   5.994  17.608  0.00  0.00    +0.000 C 
ATOM      2  C   UNL     1       2.487   4.728  18.052  0.00  0.00    +0.000 C 
ATOM      3  O   UNL     1       1.514   4.227  17.458  0.00  0.00    +0.000 OA
ATOM      4  N   UNL     1       3.073   4.252  19.198  0.00  0.00    +0.000 N 
ATOM      5  C   UNL     1       4.399   3.852  19.231  0.00  0.00    +0.000 C 
ATOM      6  O   UNL     1       4.861   2.894  19.798  0.00  0.00    +0.000 OA
ATOM      7  C   UNL     1       5.271   4.792  18.459  0.00  0.00    +0.000 A 
ATOM      8  C   UNL     1       6.662   4.711  18.577  0.00  0.00    +0.000 A 
ATOM      9  C   UNL     1       7.473   5.653  17.937  0.00  0.00    +0.000 A 
ATOM     10  C   UNL     1       6.910   6.676  17.175  0.00  0.00    +0.000 A 
ATOM     11  C   UNL     1       5.525   6.772  17.056  0.00  0.00    +0.000 A 
ATOM     12  C   UNL     1       4.695   5.847  17.705  0.00  0.00    +0.000 A 
ENDROOT
BRANCH   1  14
ATOM     13  N   UNL     1       2.440   8.345  17.804  0.00  0.00    +0.000 N 
ATOM     14  C   UNL     1       2.660   7.149  18.455  0.00  0.00    +0.000 C 
ATOM     15  O   UNL     1       2.460   7.035  19.682  0.00  0.00    +0.000 OA
ATOM     16  H   UNL     1       2.540   8.409  16.797  0.00  0.00    +0.000 HD
BRANCH  13  17
ATOM     17  C   UNL     1       1.909   9.500  18.498  0.00  0.00    +0.000 C 
BRANCH  17  18
ATOM     18  C   UNL     1       0.462   9.772  18.109  0.00  0.00    +0.000 C 
BRANCH  18  19
ATOM     19  C   UNL     1      -0.359  10.119  19.344  0.00  0.00    +0.000 C 
BRANCH  19  20
ATOM     20  C   UNL     1       0.375   9.701  20.608  0.00  0.00    +0.000 C 
BRANCH  20  21
ATOM     21  C   UNL     1      -0.623   9.304  21.685  0.00  0.00    +0.000 C 
BRANCH  21  22
ATOM     22  C   UNL     1      -0.384  10.121  22.944  0.00  0.00    +0.000 C 
BRANCH  22  23
ATOM     23  C   UNL     1      -0.801  11.564  22.717  0.00  0.00    +0.000 C 
BRANCH  23  25
ATOM     24  C   UNL     1      -3.045  12.452  22.099  0.00  0.00    +0.000 C 
ATOM     25  C   UNL     1      -2.232  11.782  23.188  0.00  0.00    +0.000 C 
ENDBRANCH  23  25
ENDBRANCH  22  23
ENDBRANCH  21  22
ENDBRANCH  20  21
ENDBRANCH  19  20
ENDBRANCH  18  19
ENDBRANCH  17  18
ENDBRANCH  13  17
ENDBRANCH   1  14
BRANCH   4  26
ATOM     26  O   UNL     1       2.276   3.967  20.318  0.00  0.00    +0.000 OA
ATOM     27  H   UNL     1       2.808   3.276  20.772  0.00  0.00    +0.000 HD
ENDBRANCH   4  26
TORSDOF 10
ENDMDL
MODEL 6
REMARK VINA RESULT:      -6.6      2.549      3.644
REMARK  Name = 
REMARK  11 active torsions:
REMARK  status: ('A' for Active; 'I' for Inactive)
REMARK    1  A    between atoms: C_1  and  C_2
REMARK    2  A    between atoms: C_2  and  C_3
REMARK    3  A    between atoms: C_3  and  C_4
REMARK    4  A    between atoms: C_4  and  C_5
REMARK    5  A    between atoms: C_5  and  C_6
REMARK    6  A    between atoms: C_6  and  C_7
REMARK    7  A    between atoms: C_7  and  C_8
REMARK    8  A    between atoms: C_8  and  C_9
REMARK    9  A    between atoms: C_9  and  N_10
REMARK   10  A    between atoms: C_11  and  C_13
REMARK   11  A    between atoms: N_16  and  O_17
REMARK                            x       y       z     vdW  Elec       q    Type
REMARK                         _______ _______ _______ _____ _____    ______ ____
ROOT
ATOM      1  C   UNL     1       4.428   4.194  19.916  0.00  0.00    +0.000 C 
ATOM      2  C   UNL     1       4.127   2.716  20.035  0.00  0.00    +0.000 C 
ATOM      3  O   UNL     1       4.293   2.055  21.078  0.00  0.00    +0.000 OA
ATOM      4  N   UNL     1       3.679   2.236  18.831  0.00  0.00    +0.000 N 
ATOM      5  C   UNL     1       2.512   2.699  18.246  0.00  0.00    +0.000 C 
ATOM      6  O   UNL     1       1.671   2.052  17.675  0.00  0.00    +0.000 OA
ATOM      7  C   UNL     1       2.389   4.184  18.381  0.00  0.00    +0.000 A 
ATOM      8  C   UNL     1       1.421   4.875  17.645  0.00  0.00    +0.000 A 
ATOM      9  C   UNL     1       1.372   6.271  17.693  0.00  0.00    +0.000 A 
ATOM     10  C   UNL     1       2.278   6.989  18.471  0.00  0.00    +0.000 A 
ATOM     11  C   UNL     1       3.253   6.313  19.203  0.00  0.00    +0.000 A 
ATOM     12  C   UNL     1       3.328   4.915  19.154  0.00  0.00    +0.000 A 
ENDROOT
BRANCH   1  14
ATOM     13  N   UNL     1       6.578   5.396  19.688  0.00  0.00    +0.000 N 
ATOM     14  C   UNL     1       5.792   4.350  19.252  0.00  0.00    +0.000 C 
ATOM     15  O   UNL     1       6.177   3.589  18.340  0.00  0.00    +0.000 OA
ATOM     16  H   UNL     1       6.287   5.966  20.475  0.00  0.00    +0.000 HD
BRANCH  13  17
ATOM     17  C   UNL     1       7.907   5.621  19.155  0.00  0.00    +0.000 C 
BRANCH  17  18
ATOM     18  C   UNL     1       7.985   6.928  18.379  0.00  0.00    +0.000 C 
BRANCH  18  19
ATOM     19  C   UNL     1       7.357   6.761  17.001  0.00  0.00    +0.000 C 
BRANCH  19  20
ATOM     20  C   UNL     1       5.878   7.114  17.043  0.00  0.00    +0.000 C 
BRANCH  20  21
ATOM     21  C   UNL     1       5.187   6.623  15.780  0.00  0.00    +0.000 C 
BRANCH  21  22
ATOM     22  C   UNL     1       5.389   5.124  15.624  0.00  0.00    +0.000 C 
BRANCH  22  23
ATOM     23  C   UNL     1       6.271   4.838  14.420  0.00  0.00    +0.000 C 
BRANCH  23  25
ATOM     24  C   UNL     1       6.436   3.565  12.286  0.00  0.00    +0.000 C 
ATOM     25  C   UNL     1       5.690   3.697  13.598  0.00  0.00    +0.000 C 
ENDBRANCH  23  25
ENDBRANCH  22  23
ENDBRANCH  21  22
ENDBRANCH  20  21
ENDBRANCH  19  20
ENDBRANCH  18  19
ENDBRANCH  17  18
ENDBRANCH  13  17
ENDBRANCH   1  14
BRANCH   4  26
ATOM     26  O   UNL     1       4.292   1.107  18.262  0.00  0.00    +0.000 OA
ATOM     27  H   UNL     1       3.572   0.439  18.316  0.00  0.00    +0.000 HD
ENDBRANCH   4  26
TORSDOF 10
ENDMDL
MODEL 7
REMARK VINA RESULT:      -6.6      3.398      6.976
REMARK  Name = 
REMARK  11 active torsions:
REMARK  status: ('A' for Active; 'I' for Inactive)
REMARK    1  A    between atoms: C_1  and  C_2
REMARK    2  A    between atoms: C_2  and  C_3
REMARK    3  A    between atoms: C_3  and  C_4
REMARK    4  A    between atoms: C_4  and  C_5
REMARK    5  A    between atoms: C_5  and  C_6
REMARK    6  A    between atoms: C_6  and  C_7
REMARK    7  A    between atoms: C_7  and  C_8
REMARK    8  A    between atoms: C_8  and  C_9
REMARK    9  A    between atoms: C_9  and  N_10
REMARK   10  A    between atoms: C_11  and  C_13
REMARK   11  A    between atoms: N_16  and  O_17
REMARK                            x       y       z     vdW  Elec       q    Type
REMARK                         _______ _______ _______ _____ _____    ______ ____
ROOT
ATOM      1  C   UNL     1       4.167   5.438  19.188  0.00  0.00    +0.000 C 
ATOM      2  C   UNL     1       5.311   4.588  18.682  0.00  0.00    +0.000 C 
ATOM      3  O   UNL     1       6.498   4.746  19.023  0.00  0.00    +0.000 OA
ATOM      4  N   UNL     1       4.839   3.658  17.791  0.00  0.00    +0.000 N 
ATOM      5  C   UNL     1       3.927   2.684  18.163  0.00  0.00    +0.000 C 
ATOM      6  O   UNL     1       3.917   1.524  17.835  0.00  0.00    +0.000 OA
ATOM      7  C   UNL     1       2.868   3.244  19.060  0.00  0.00    +0.000 A 
ATOM      8  C   UNL     1       1.721   2.495  19.342  0.00  0.00    +0.000 A 
ATOM      9  C   UNL     1       0.687   3.058  20.096  0.00  0.00    +0.000 A 
ATOM     10  C   UNL     1       0.786   4.362  20.578  0.00  0.00    +0.000 A 
ATOM     11  C   UNL     1       1.920   5.122  20.297  0.00  0.00    +0.000 A 
ATOM     12  C   UNL     1       2.959   4.581  19.528  0.00  0.00    +0.000 A 
ENDROOT
BRANCH   1  14
ATOM     13  N   UNL     1       2.894   7.428  18.454  0.00  0.00    +0.000 N 
ATOM     14  C   UNL     1       3.852   6.491  18.130  0.00  0.00    +0.000 C 
ATOM     15  O   UNL     1       4.410   6.496  17.013  0.00  0.00    +0.000 OA
ATOM     16  H   UNL     1       2.496   7.457  19.386  0.00  0.00    +0.000 HD
BRANCH  13  17
ATOM     17  C   UNL     1       2.537   8.496  17.542  0.00  0.00    +0.000 C 
BRANCH  17  18
ATOM     18  C   UNL     1       1.557   9.471  18.177  0.00  0.00    +0.000 C 
BRANCH  18  19
ATOM     19  C   UNL     1       1.106   8.955  19.537  0.00  0.00    +0.000 C 
BRANCH  19  20
ATOM     20  C   UNL     1       0.913  10.109  20.509  0.00  0.00    +0.000 C 
BRANCH  20  21
ATOM     21  C   UNL     1       0.305  11.303  19.789  0.00  0.00    +0.000 C 
BRANCH  21  22
ATOM     22  C   UNL     1      -1.211  11.186  19.774  0.00  0.00    +0.000 C 
BRANCH  22  23
ATOM     23  C   UNL     1      -1.791  12.060  18.675  0.00  0.00    +0.000 C 
BRANCH  23  25
ATOM     24  C   UNL     1      -2.509   9.863  17.745  0.00  0.00    +0.000 C 
ATOM     25  C   UNL     1      -1.994  11.247  17.404  0.00  0.00    +0.000 C 
ENDBRANCH  23  25
ENDBRANCH  22  23
ENDBRANCH  21  22
ENDBRANCH  20  21
ENDBRANCH  19  20
ENDBRANCH  18  19
ENDBRANCH  17  18
ENDBRANCH  13  17
ENDBRANCH   1  14
BRANCH   4  26
ATOM     26  O   UNL     1       5.433   3.546  16.523  0.00  0.00    +0.000 OA
ATOM     27  H   UNL     1       5.000   2.737  16.169  0.00  0.00    +0.000 HD
ENDBRANCH   4  26
TORSDOF 10
ENDMDL
MODEL 8
REMARK VINA RESULT:      -6.6      3.698      7.184
REMARK  Name = 
REMARK  11 active torsions:
REMARK  status: ('A' for Active; 'I' for Inactive)
REMARK    1  A    between atoms: C_1  and  C_2
REMARK    2  A    between atoms: C_2  and  C_3
REMARK    3  A    between atoms: C_3  and  C_4
REMARK    4  A    between atoms: C_4  and  C_5
REMARK    5  A    between atoms: C_5  and  C_6
REMARK    6  A    between atoms: C_6  and  C_7
REMARK    7  A    between atoms: C_7  and  C_8
REMARK    8  A    between atoms: C_8  and  C_9
REMARK    9  A    between atoms: C_9  and  N_10
REMARK   10  A    between atoms: C_11  and  C_13
REMARK   11  A    between atoms: N_16  and  O_17
REMARK                            x       y       z     vdW  Elec       q    Type
REMARK                         _______ _______ _______ _____ _____    ______ ____
ROOT
ATOM      1  C   UNL     1       3.178   5.848  17.621  0.00  0.00    +0.000 C 
ATOM      2  C   UNL     1       2.582   4.519  18.029  0.00  0.00    +0.000 C 
ATOM      3  O   UNL     1       1.677   3.940  17.398  0.00  0.00    +0.000 OA
ATOM      4  N   UNL     1       3.170   4.084  19.189  0.00  0.00    +0.000 N 
ATOM      5  C   UNL     1       4.524   3.802  19.264  0.00  0.00    +0.000 C 
ATOM      6  O   UNL     1       5.052   2.882  19.836  0.00  0.00    +0.000 OA
ATOM      7  C   UNL     1       5.333   4.826  18.531  0.00  0.00    +0.000 A 
ATOM      8  C   UNL     1       6.721   4.868  18.694  0.00  0.00    +0.000 A 
ATOM      9  C   UNL     1       7.465   5.886  18.091  0.00  0.00    +0.000 A 
ATOM     10  C   UNL     1       6.839   6.864  17.320  0.00  0.00    +0.000 A 
ATOM     11  C   UNL     1       5.455   6.838  17.155  0.00  0.00    +0.000 A 
ATOM     12  C   UNL     1       4.691   5.835  17.767  0.00  0.00    +0.000 A 
ENDROOT
BRANCH   1  14
ATOM     13  N   UNL     1       2.013   8.024  17.777  0.00  0.00    +0.000 N 
ATOM     14  C   UNL     1       2.524   6.941  18.460  0.00  0.00    +0.000 C 
ATOM     15  O   UNL     1       2.472   6.879  19.706  0.00  0.00    +0.000 OA
ATOM     16  H   UNL     1       1.998   8.034  16.763  0.00  0.00    +0.000 HD
BRANCH  13  17
ATOM     17  C   UNL     1       1.337   9.106  18.465  0.00  0.00    +0.000 C 
BRANCH  17  18
ATOM     18  C   UNL     1       1.970  10.454  18.148  0.00  0.00    +0.000 C 
BRANCH  18  19
ATOM     19  C   UNL     1       1.225  11.569  18.871  0.00  0.00    +0.000 C 
BRANCH  19  20
ATOM     20  C   UNL     1       0.015  11.013  19.606  0.00  0.00    +0.000 C 
BRANCH  20  21
ATOM     21  C   UNL     1      -1.149  11.987  19.509  0.00  0.00    +0.000 C 
BRANCH  21  22
ATOM     22  C   UNL     1      -1.564  12.161  18.057  0.00  0.00    +0.000 C 
BRANCH  22  23
ATOM     23  C   UNL     1      -2.060  10.840  17.494  0.00  0.00    +0.000 C 
BRANCH  23  25
ATOM     24  C   UNL     1      -2.998   9.701  15.487  0.00  0.00    +0.000 C 
ATOM     25  C   UNL     1      -2.616  11.037  16.091  0.00  0.00    +0.000 C 
ENDBRANCH  23  25
ENDBRANCH  22  23
ENDBRANCH  21  22
ENDBRANCH  20  21
ENDBRANCH  19  20
ENDBRANCH  18  19
ENDBRANCH  17  18
ENDBRANCH  13  17
ENDBRANCH   1  14
BRANCH   4  26
ATOM     26  O   UNL     1       2.365   3.714  20.279  0.00  0.00    +0.000 OA
ATOM     27  H   UNL     1       1.721   4.456  20.314  0.00  0.00    +0.000 HD
ENDBRANCH   4  26
TORSDOF 10
ENDMDL
MODEL 9
REMARK VINA RESULT:      -6.6      3.669      7.836
REMARK  Name = 
REMARK  11 active torsions:
REMARK  status: ('A' for Active; 'I' for Inactive)
REMARK    1  A    between atoms: C_1  and  C_2
REMARK    2  A    between atoms: C_2  and  C_3
REMARK    3  A    between atoms: C_3  and  C_4
REMARK    4  A    between atoms: C_4  and  C_5
REMARK    5  A    between atoms: C_5  and  C_6
REMARK    6  A    between atoms: C_6  and  C_7
REMARK    7  A    between atoms: C_7  and  C_8
REMARK    8  A    between atoms: C_8  and  C_9
REMARK    9  A    between atoms: C_9  and  N_10
REMARK   10  A    between atoms: C_11  and  C_13
REMARK   11  A    between atoms: N_16  and  O_17
REMARK                            x       y       z     vdW  Elec       q    Type
REMARK                         _______ _______ _______ _____ _____    ______ ____
ROOT
ATOM      1  C   UNL     1       3.010   6.016  17.829  0.00  0.00    +0.000 C 
ATOM      2  C   UNL     1       2.416   4.659  18.133  0.00  0.00    +0.000 C 
ATOM      3  O   UNL     1       1.443   4.174  17.526  0.00  0.00    +0.000 OA
ATOM      4  N   UNL     1       3.093   4.080  19.177  0.00  0.00    +0.000 N 
ATOM      5  C   UNL     1       4.440   3.769  19.094  0.00  0.00    +0.000 C 
ATOM      6  O   UNL     1       4.991   2.780  19.506  0.00  0.00    +0.000 OA
ATOM      7  C   UNL     1       5.209   4.858  18.413  0.00  0.00    +0.000 A 
ATOM      8  C   UNL     1       6.607   4.857  18.452  0.00  0.00    +0.000 A 
ATOM      9  C   UNL     1       7.322   5.926  17.905  0.00  0.00    +0.000 A 
ATOM     10  C   UNL     1       6.656   6.999  17.312  0.00  0.00    +0.000 A 
ATOM     11  C   UNL     1       5.263   7.015  17.274  0.00  0.00    +0.000 A 
ATOM     12  C   UNL     1       4.529   5.960  17.833  0.00  0.00    +0.000 A 
ENDROOT
BRANCH   1  14
ATOM     13  N   UNL     1       2.002   8.214  18.348  0.00  0.00    +0.000 N 
ATOM     14  C   UNL     1       2.464   7.014  18.845  0.00  0.00    +0.000 C 
ATOM     15  O   UNL     1       2.454   6.775  20.070  0.00  0.00    +0.000 OA
ATOM     16  H   UNL     1       1.950   8.372  17.348  0.00  0.00    +0.000 HD
BRANCH  13  17
ATOM     17  C   UNL     1       1.428   9.224  19.214  0.00  0.00    +0.000 C 
BRANCH  17  18
ATOM     18  C   UNL     1       0.764  10.337  18.416  0.00  0.00    +0.000 C 
BRANCH  18  19
ATOM     19  C   UNL     1      -0.674   9.959  18.081  0.00  0.00    +0.000 C 
BRANCH  19  20
ATOM     20  C   UNL     1      -1.642  10.973  18.669  0.00  0.00    +0.000 C 
BRANCH  20  21
ATOM     21  C   UNL     1      -0.891  11.975  19.533  0.00  0.00    +0.000 C 
BRANCH  21  22
ATOM     22  C   UNL     1      -1.479  11.998  20.934  0.00  0.00    +0.000 C 
BRANCH  22  23
ATOM     23  C   UNL     1      -0.408  11.651  21.955  0.00  0.00    +0.000 C 
BRANCH  23  25
ATOM     24  C   UNL     1      -0.384   9.243  22.590  0.00  0.00    +0.000 C 
ATOM     25  C   UNL     1      -0.930  10.613  22.938  0.00  0.00    +0.000 C 
ENDBRANCH  23  25
ENDBRANCH  22  23
ENDBRANCH  21  22
ENDBRANCH  20  21
ENDBRANCH  19  20
ENDBRANCH  18  19
ENDBRANCH  17  18
ENDBRANCH  13  17
ENDBRANCH   1  14
BRANCH   4  26
ATOM     26  O   UNL     1       2.379   3.599  20.286  0.00  0.00    +0.000 OA
ATOM     27  H   UNL     1       1.564   4.148  20.254  0.00  0.00    +0.000 HD
ENDBRANCH   4  26
TORSDOF 10
ENDMDL
