MODEL 1
REMARK VINA RESULT:      -9.6      0.000      0.000
REMARK  Name = 
REMARK  6 active torsions:
REMARK  status: ('A' for Active; 'I' for Inactive)
REMARK    1  A    between atoms: C_1  and  N_2
REMARK    2  A    between atoms: C_8  and  N_9
REMARK    3  A    between atoms: C_12  and  O_13
REMARK    4  A    between atoms: O_13  and  C_14
REMARK    5  A    between atoms: C_14  and  C_15
REMARK    6  A    between atoms: C_18  and  C_19
REMARK                            x       y       z     vdW  Elec       q    Type
REMARK                         _______ _______ _______ _____ _____    ______ ____
ROOT
ATOM      1  N   UNL     1       2.468   7.392  19.154  0.00  0.00    +0.000 N 
ATOM      2  C   UNL     1       3.449   7.478  18.182  0.00  0.00    +0.000 A 
ATOM      3  C   UNL     1       4.267   6.465  17.917  0.00  0.00    +0.000 A 
ATOM      4  C   UNL     1       4.141   5.221  18.647  0.00  0.00    +0.000 A 
ATOM      5  C   UNL     1       3.214   5.096  19.604  0.00  0.00    +0.000 A 
ATOM      6  C   UNL     1       2.301   6.234  19.931  0.00  0.00    +0.000 A 
ATOM      7  O   UNL     1       1.466   6.074  20.818  0.00  0.00    +0.000 OA
ENDROOT
BRANCH   1  15
ATOM      8  C   UNL     1      -0.217   9.862  23.229  0.00  0.00    +0.000 C 
ATOM      9  N   UNL     1      -0.352  10.438  21.908  0.00  0.00    +0.000 N 
ATOM     10  C   UNL     1      -1.071  11.558  21.560  0.00  0.00    +0.000 A 
ATOM     11  C   UNL     1      -0.919  11.758  20.196  0.00  0.00    +0.000 A 
ATOM     12  C   UNL     1      -0.062  10.732  19.707  0.00  0.00    +0.000 A 
ATOM     13  C   UNL     1       0.455  10.431  18.432  0.00  0.00    +0.000 A 
ATOM     14  C   UNL     1       1.297   9.330  18.271  0.00  0.00    +0.000 A 
ATOM     15  C   UNL     1       1.582   8.489  19.349  0.00  0.00    +0.000 A 
ATOM     16  C   UNL     1       1.048   8.749  20.620  0.00  0.00    +0.000 A 
ATOM     17  C   UNL     1       0.252   9.899  20.783  0.00  0.00    +0.000 A 
ATOM     18  C   UNL     1      -1.586  12.835  19.404  0.00  0.00    +0.000 C 
ATOM     19  N   UNL     1      -3.038  12.648  19.462  0.00  0.00    +0.000 NA
ATOM     20  C   UNL     1      -3.649  13.149  20.693  0.00  0.00    +0.000 C 
ATOM     21  C   UNL     1      -3.390  12.336  21.972  0.00  0.00    +0.000 C 
ATOM     22  C   UNL     1      -1.939  12.381  22.457  0.00  0.00    +0.000 C 
ATOM     23  H   UNL     1      -3.234  11.652  19.358  0.00  0.00    +0.000 HD
ENDBRANCH   1  15
BRANCH   4  24
ATOM     24  O   UNL     1       5.000   4.184  18.328  0.00  0.00    +0.000 OA
BRANCH  24  25
ATOM     25  C   UNL     1       6.259   4.588  17.771  0.00  0.00    +0.000 C 
BRANCH  25  26
ATOM     26  C   UNL     1       6.260   4.527  16.277  0.00  0.00    +0.000 A 
ATOM     27  C   UNL     1       5.351   3.738  15.578  0.00  0.00    +0.000 A 
ATOM     28  C   UNL     1       5.493   3.584  14.206  0.00  0.00    +0.000 A 
ATOM     29  C   UNL     1       6.555   4.206  13.556  0.00  0.00    +0.000 A 
ATOM     30  N   UNL     1       7.441   4.997  14.227  0.00  0.00    +0.000 NA
ATOM     31  C   UNL     1       7.279   5.141  15.558  0.00  0.00    +0.000 A 
BRANCH  29  32
ATOM     32  C   UNL     1       6.777   3.967  12.069  0.00  0.00    +0.000 C 
ATOM     33  F   UNL     1       7.463   2.814  11.806  0.00  0.00    +0.000 F 
ATOM     34  F   UNL     1       5.617   3.870  11.361  0.00  0.00    +0.000 F 
ATOM     35  F   UNL     1       7.503   4.958  11.477  0.00  0.00    +0.000 F 
ENDBRANCH  29  32
ENDBRANCH  25  26
ENDBRANCH  24  25
ENDBRANCH   4  24
TORSDOF 5
ENDMDL
MODEL 2
REMARK VINA RESULT:      -9.5      0.937      1.399
REMARK  Name = 
REMARK  6 active torsions:
REMARK  status: ('A' for Active; 'I' for Inactive)
REMARK    1  A    between atoms: C_1  and  N_2
REMARK    2  A    between atoms: C_8  and  N_9
REMARK    3  A    between atoms: C_12  and  O_13
REMARK    4  A    between atoms: O_13  and  C_14
REMARK    5  A    between atoms: C_14  and  C_15
REMARK    6  A    between atoms: C_18  and  C_19
REMARK                            x       y       z     vdW  Elec       q    Type
REMARK                         _______ _______ _______ _____ _____    ______ ____
ROOT
ATOM      1  N   UNL     1       2.184   7.742  19.101  0.00  0.00    +0.000 N 
ATOM      2  C   UNL     1       2.281   6.672  19.974  0.00  0.00    +0.000 A 
ATOM      3  C   UNL     1       3.104   5.653  19.749  0.00  0.00    +0.000 A 
ATOM      4  C   UNL     1       3.941   5.645  18.567  0.00  0.00    +0.000 A 
ATOM      5  C   UNL     1       3.873   6.652  17.690  0.00  0.00    +0.000 A 
ATOM      6  C   UNL     1       2.935   7.795  17.915  0.00  0.00    +0.000 A 
ATOM      7  O   UNL     1       2.905   8.697  17.081  0.00  0.00    +0.000 OA
ENDROOT
BRANCH   1  15
ATOM      8  C   UNL     1      -0.347   9.845  23.471  0.00  0.00    +0.000 C 
ATOM      9  N   UNL     1      -0.496  10.556  22.218  0.00  0.00    +0.000 N 
ATOM     10  C   UNL     1      -1.194  11.721  22.003  0.00  0.00    +0.000 A 
ATOM     11  C   UNL     1      -1.067  12.055  20.663  0.00  0.00    +0.000 A 
ATOM     12  C   UNL     1      -0.247  11.065  20.052  0.00  0.00    +0.000 A 
ATOM     13  C   UNL     1       0.234  10.884  18.741  0.00  0.00    +0.000 A 
ATOM     14  C   UNL     1       1.044   9.786  18.448  0.00  0.00    +0.000 A 
ATOM     15  C   UNL     1       1.330   8.833  19.428  0.00  0.00    +0.000 A 
ATOM     16  C   UNL     1       0.831   8.974  20.732  0.00  0.00    +0.000 A 
ATOM     17  C   UNL     1       0.069  10.120  21.030  0.00  0.00    +0.000 A 
ATOM     18  C   UNL     1      -1.723  13.223  20.001  0.00  0.00    +0.000 C 
ATOM     19  N   UNL     1      -3.177  13.065  20.076  0.00  0.00    +0.000 NA
ATOM     20  C   UNL     1      -3.749  13.451  21.366  0.00  0.00    +0.000 C 
ATOM     21  C   UNL     1      -3.483  12.507  22.549  0.00  0.00    +0.000 C 
ATOM     22  C   UNL     1      -2.020  12.469  23.000  0.00  0.00    +0.000 C 
ATOM     23  H   UNL     1      -3.401  12.090  19.876  0.00  0.00    +0.000 HD
ENDBRANCH   1  15
BRANCH   4  24
ATOM     24  O   UNL     1       4.798   4.574  18.380  0.00  0.00    +0.000 OA
BRANCH  24  25
ATOM     25  C   UNL     1       6.084   4.914  17.840  0.00  0.00    +0.000 C 
BRANCH  25  26
ATOM     26  C   UNL     1       6.130   4.763  16.354  0.00  0.00    +0.000 A 
ATOM     27  C   UNL     1       5.175   4.020  15.666  0.00  0.00    +0.000 A 
ATOM     28  C   UNL     1       5.348   3.771  14.311  0.00  0.00    +0.000 A 
ATOM     29  C   UNL     1       6.485   4.253  13.668  0.00  0.00    +0.000 A 
ATOM     30  N   UNL     1       7.418   5.000  14.327  0.00  0.00    +0.000 NA
ATOM     31  C   UNL     1       7.225   5.237  15.641  0.00  0.00    +0.000 A 
BRANCH  29  32
ATOM     32  C   UNL     1       6.734   3.907  12.208  0.00  0.00    +0.000 C 
ATOM     33  F   UNL     1       5.581   3.731  11.493  0.00  0.00    +0.000 F 
ATOM     34  F   UNL     1       7.433   4.866  11.539  0.00  0.00    +0.000 F 
ATOM     35  F   UNL     1       7.433   2.746  12.051  0.00  0.00    +0.000 F 
ENDBRANCH  29  32
ENDBRANCH  25  26
ENDBRANCH  24  25
ENDBRANCH   4  24
TORSDOF 5
ENDMDL
MODEL 3
REMARK VINA RESULT:      -9.4      1.345      2.283
REMARK  Name = 
REMARK  6 active torsions:
REMARK  status: ('A' for Active; 'I' for Inactive)
REMARK    1  A    between atoms: C_1  and  N_2
REMARK    2  A    between atoms: C_8  and  N_9
REMARK    3  A    between atoms: C_12  and  O_13
REMARK    4  A    between atoms: O_13  and  C_14
REMARK    5  A    between atoms: C_14  and  C_15
REMARK    6  A    between atoms: C_18  and  C_19
REMARK                            x       y       z     vdW  Elec       q    Type
REMARK                         _______ _______ _______ _____ _____    ______ ____
ROOT
ATOM      1  N   UNL     1       2.002   7.587  19.734  0.00  0.00    +0.000 N 
ATOM      2  C   UNL     1       2.167   6.392  20.410  0.00  0.00    +0.000 A 
ATOM      3  C   UNL     1       2.933   5.415  19.935  0.00  0.00    +0.000 A 
ATOM      4  C   UNL     1       3.634   5.588  18.679  0.00  0.00    +0.000 A 
ATOM      5  C   UNL     1       3.496   6.723  17.986  0.00  0.00    +0.000 A 
ATOM      6  C   UNL     1       2.619   7.823  18.493  0.00  0.00    +0.000 A 
ATOM      7  O   UNL     1       2.521   8.846  17.821  0.00  0.00    +0.000 OA
ENDROOT
BRANCH   1  15
ATOM      8  C   UNL     1      -1.432  11.557  18.198  0.00  0.00    +0.000 C 
ATOM      9  N   UNL     1      -1.205  11.397  19.619  0.00  0.00    +0.000 N 
ATOM     10  C   UNL     1      -1.773  12.125  20.638  0.00  0.00    +0.000 A 
ATOM     11  C   UNL     1      -1.285  11.633  21.839  0.00  0.00    +0.000 A 
ATOM     12  C   UNL     1      -0.405  10.557  21.534  0.00  0.00    +0.000 A 
ATOM     13  C   UNL     1       0.361   9.681  22.328  0.00  0.00    +0.000 A 
ATOM     14  C   UNL     1       1.142   8.700  21.716  0.00  0.00    +0.000 A 
ATOM     15  C   UNL     1       1.220   8.619  20.323  0.00  0.00    +0.000 A 
ATOM     16  C   UNL     1       0.494   9.505  19.513  0.00  0.00    +0.000 A 
ATOM     17  C   UNL     1      -0.340  10.449  20.144  0.00  0.00    +0.000 A 
ATOM     18  C   UNL     1      -1.607  12.185  23.190  0.00  0.00    +0.000 C 
ATOM     19  N   UNL     1      -1.120  13.565  23.275  0.00  0.00    +0.000 NA
ATOM     20  C   UNL     1      -2.005  14.544  22.644  0.00  0.00    +0.000 C 
ATOM     21  C   UNL     1      -2.047  14.545  21.107  0.00  0.00    +0.000 C 
ATOM     22  C   UNL     1      -2.691  13.296  20.499  0.00  0.00    +0.000 C 
ATOM     23  H   UNL     1      -0.197  13.603  22.843  0.00  0.00    +0.000 HD
ENDBRANCH   1  15
BRANCH   4  24
ATOM     24  O   UNL     1       4.436   4.554  18.229  0.00  0.00    +0.000 OA
BRANCH  24  25
ATOM     25  C   UNL     1       5.747   4.948  17.795  0.00  0.00    +0.000 C 
BRANCH  25  26
ATOM     26  C   UNL     1       5.912   4.822  16.315  0.00  0.00    +0.000 A 
ATOM     27  C   UNL     1       4.947   4.209  15.522  0.00  0.00    +0.000 A 
ATOM     28  C   UNL     1       5.214   3.968  14.181  0.00  0.00    +0.000 A 
ATOM     29  C   UNL     1       6.454   4.326  13.658  0.00  0.00    +0.000 A 
ATOM     30  N   UNL     1       7.401   4.945  14.421  0.00  0.00    +0.000 NA
ATOM     31  C   UNL     1       7.116   5.177  15.718  0.00  0.00    +0.000 A 
BRANCH  29  32
ATOM     32  C   UNL     1       6.795   3.981  12.216  0.00  0.00    +0.000 C 
ATOM     33  F   UNL     1       7.522   2.829  12.097  0.00  0.00    +0.000 F 
ATOM     34  F   UNL     1       5.695   3.800  11.432  0.00  0.00    +0.000 F 
ATOM     35  F   UNL     1       7.544   4.943  11.605  0.00  0.00    +0.000 F 
ENDBRANCH  29  32
ENDBRANCH  25  26
ENDBRANCH  24  25
ENDBRANCH   4  24
TORSDOF 5
ENDMDL
MODEL 4
REMARK VINA RESULT:      -9.4      1.079      1.506
REMARK  Name = 
REMARK  6 active torsions:
REMARK  status: ('A' for Active; 'I' for Inactive)
REMARK    1  A    between atoms: C_1  and  N_2
REMARK    2  A    between atoms: C_8  and  N_9
REMARK    3  A    between atoms: C_12  and  O_13
REMARK    4  A    between atoms: O_13  and  C_14
REMARK    5  A    between atoms: C_14  and  C_15
REMARK    6  A    between atoms: C_18  and  C_19
REMARK                            x       y       z     vdW  Elec       q    Type
REMARK                         _______ _______ _______ _____ _____    ______ ____
ROOT
ATOM      1  N   UNL     1       2.180   7.753  19.080  0.00  0.00    +0.000 N 
ATOM      2  C   UNL     1       2.284   6.678  19.944  0.00  0.00    +0.000 A 
ATOM      3  C   UNL     1       3.112   5.666  19.712  0.00  0.00    +0.000 A 
ATOM      4  C   UNL     1       3.949   5.670  18.530  0.00  0.00    +0.000 A 
ATOM      5  C   UNL     1       3.875   6.683  17.660  0.00  0.00    +0.000 A 
ATOM      6  C   UNL     1       2.930   7.818  17.894  0.00  0.00    +0.000 A 
ATOM      7  O   UNL     1       2.895   8.726  17.066  0.00  0.00    +0.000 OA
ENDROOT
BRANCH   1  15
ATOM      8  C   UNL     1      -0.334   9.830  23.471  0.00  0.00    +0.000 C 
ATOM      9  N   UNL     1      -0.498  10.541  22.221  0.00  0.00    +0.000 N 
ATOM     10  C   UNL     1      -1.207  11.702  22.013  0.00  0.00    +0.000 A 
ATOM     11  C   UNL     1      -1.092  12.039  20.673  0.00  0.00    +0.000 A 
ATOM     12  C   UNL     1      -0.269  11.056  20.054  0.00  0.00    +0.000 A 
ATOM     13  C   UNL     1       0.203  10.881  18.739  0.00  0.00    +0.000 A 
ATOM     14  C   UNL     1       1.019   9.789  18.438  0.00  0.00    +0.000 A 
ATOM     15  C   UNL     1       1.321   8.837  19.414  0.00  0.00    +0.000 A 
ATOM     16  C   UNL     1       0.830   8.972  20.722  0.00  0.00    +0.000 A 
ATOM     17  C   UNL     1       0.061  10.112  21.028  0.00  0.00    +0.000 A 
ATOM     18  C   UNL     1      -1.762  13.202  20.017  0.00  0.00    +0.000 C 
ATOM     19  N   UNL     1      -3.215  13.033  20.103  0.00  0.00    +0.000 NA
ATOM     20  C   UNL     1      -3.780  13.413  21.397  0.00  0.00    +0.000 C 
ATOM     21  C   UNL     1      -3.497  12.469  22.577  0.00  0.00    +0.000 C 
ATOM     22  C   UNL     1      -2.031  12.441  23.017  0.00  0.00    +0.000 C 
ATOM     23  H   UNL     1      -3.433  12.056  19.903  0.00  0.00    +0.000 HD
ENDBRANCH   1  15
BRANCH   4  24
ATOM     24  O   UNL     1       4.812   4.606  18.334  0.00  0.00    +0.000 OA
BRANCH  24  25
ATOM     25  C   UNL     1       6.121   4.964  17.866  0.00  0.00    +0.000 C 
BRANCH  25  26
ATOM     26  C   UNL     1       6.343   4.555  16.446  0.00  0.00    +0.000 A 
ATOM     27  C   UNL     1       7.255   5.216  15.629  0.00  0.00    +0.000 A 
ATOM     28  C   UNL     1       7.310   4.910  14.276  0.00  0.00    +0.000 A 
ATOM     29  C   UNL     1       6.436   3.960  13.756  0.00  0.00    +0.000 A 
ATOM     30  N   UNL     1       5.551   3.291  14.549  0.00  0.00    +0.000 NA
ATOM     31  C   UNL     1       5.521   3.597  15.862  0.00  0.00    +0.000 A 
BRANCH  29  32
ATOM     32  C   UNL     1       6.420   3.685  12.259  0.00  0.00    +0.000 C 
ATOM     33  F   UNL     1       6.995   2.490  11.926  0.00  0.00    +0.000 F 
ATOM     34  F   UNL     1       5.164   3.644  11.733  0.00  0.00    +0.000 F 
ATOM     35  F   UNL     1       7.102   4.624  11.542  0.00  0.00    +0.000 F 
ENDBRANCH  29  32
ENDBRANCH  25  26
ENDBRANCH  24  25
ENDBRANCH   4  24
TORSDOF 5
ENDMDL
MODEL 5
REMARK VINA RESULT:      -9.3      1.446      2.527
REMARK  Name = 
REMARK  6 active torsions:
REMARK  status: ('A' for Active; 'I' for Inactive)
REMARK    1  A    between atoms: C_1  and  N_2
REMARK    2  A    between atoms: C_8  and  N_9
REMARK    3  A    between atoms: C_12  and  O_13
REMARK    4  A    between atoms: O_13  and  C_14
REMARK    5  A    between atoms: C_14  and  C_15
REMARK    6  A    between atoms: C_18  and  C_19
REMARK                            x       y       z     vdW  Elec       q    Type
REMARK                         _______ _______ _______ _____ _____    ______ ____
ROOT
ATOM      1  N   UNL     1       1.975   7.722  19.634  0.00  0.00    +0.000 N 
ATOM      2  C   UNL     1       2.179   6.531  20.306  0.00  0.00    +0.000 A 
ATOM      3  C   UNL     1       2.945   5.565  19.810  0.00  0.00    +0.000 A 
ATOM      4  C   UNL     1       3.603   5.745  18.532  0.00  0.00    +0.000 A 
ATOM      5  C   UNL     1       3.426   6.877  17.841  0.00  0.00    +0.000 A 
ATOM      6  C   UNL     1       2.549   7.964  18.375  0.00  0.00    +0.000 A 
ATOM      7  O   UNL     1       2.414   8.985  17.704  0.00  0.00    +0.000 OA
ENDROOT
BRANCH   1  15
ATOM      8  C   UNL     1      -1.506  11.687  18.193  0.00  0.00    +0.000 C 
ATOM      9  N   UNL     1      -1.255  11.514  19.609  0.00  0.00    +0.000 N 
ATOM     10  C   UNL     1      -1.811  12.229  20.644  0.00  0.00    +0.000 A 
ATOM     11  C   UNL     1      -1.301  11.728  21.833  0.00  0.00    +0.000 A 
ATOM     12  C   UNL     1      -0.420  10.660  21.502  0.00  0.00    +0.000 A 
ATOM     13  C   UNL     1       0.364   9.781  22.275  0.00  0.00    +0.000 A 
ATOM     14  C   UNL     1       1.140   8.810  21.640  0.00  0.00    +0.000 A 
ATOM     15  C   UNL     1       1.196   8.744  20.246  0.00  0.00    +0.000 A 
ATOM     16  C   UNL     1       0.452   9.634  19.457  0.00  0.00    +0.000 A 
ATOM     17  C   UNL     1      -0.377  10.567  20.110  0.00  0.00    +0.000 A 
ATOM     18  C   UNL     1      -1.605  12.264  23.193  0.00  0.00    +0.000 C 
ATOM     19  N   UNL     1      -1.125  13.646  23.285  0.00  0.00    +0.000 NA
ATOM     20  C   UNL     1      -2.025  14.626  22.677  0.00  0.00    +0.000 C 
ATOM     21  C   UNL     1      -2.092  14.643  21.142  0.00  0.00    +0.000 C 
ATOM     22  C   UNL     1      -2.739  13.396  20.532  0.00  0.00    +0.000 C 
ATOM     23  H   UNL     1      -0.209  13.694  22.839  0.00  0.00    +0.000 HD
ENDBRANCH   1  15
BRANCH   4  24
ATOM     24  O   UNL     1       4.406   4.723  18.058  0.00  0.00    +0.000 OA
BRANCH  24  25
ATOM     25  C   UNL     1       5.728   5.122  17.667  0.00  0.00    +0.000 C 
BRANCH  25  26
ATOM     26  C   UNL     1       6.068   4.667  16.284  0.00  0.00    +0.000 A 
ATOM     27  C   UNL     1       7.133   5.216  15.576  0.00  0.00    +0.000 A 
ATOM     28  C   UNL     1       7.310   4.883  14.240  0.00  0.00    +0.000 A 
ATOM     29  C   UNL     1       6.406   4.020  13.626  0.00  0.00    +0.000 A 
ATOM     30  N   UNL     1       5.370   3.461  14.315  0.00  0.00    +0.000 NA
ATOM     31  C   UNL     1       5.222   3.791  15.614  0.00  0.00    +0.000 A 
BRANCH  29  32
ATOM     32  C   UNL     1       6.534   3.723  12.139  0.00  0.00    +0.000 C 
ATOM     33  F   UNL     1       7.273   4.656  11.466  0.00  0.00    +0.000 F 
ATOM     34  F   UNL     1       7.134   2.528  11.880  0.00  0.00    +0.000 F 
ATOM     35  F   UNL     1       5.329   3.691  11.501  0.00  0.00    +0.000 F 
ENDBRANCH  29  32
ENDBRANCH  25  26
ENDBRANCH  24  25
ENDBRANCH   4  24
TORSDOF 5
ENDMDL
MODEL 6
REMARK VINA RESULT:      -9.3      0.886      1.046
REMARK  Name = 
REMARK  6 active torsions:
REMARK  status: ('A' for Active; 'I' for Inactive)
REMARK    1  A    between atoms: C_1  and  N_2
REMARK    2  A    between atoms: C_8  and  N_9
REMARK    3  A    between atoms: C_12  and  O_13
REMARK    4  A    between atoms: O_13  and  C_14
REMARK    5  A    between atoms: C_14  and  C_15
REMARK    6  A    between atoms: C_18  and  C_19
REMARK                            x       y       z     vdW  Elec       q    Type
REMARK                         _______ _______ _______ _____ _____    ______ ____
ROOT
ATOM      1  N   UNL     1       2.253   7.470  19.117  0.00  0.00    +0.000 N 
ATOM      2  C   UNL     1       3.057   7.427  17.992  0.00  0.00    +0.000 A 
ATOM      3  C   UNL     1       3.686   6.318  17.618  0.00  0.00    +0.000 A 
ATOM      4  C   UNL     1       3.533   5.102  18.389  0.00  0.00    +0.000 A 
ATOM      5  C   UNL     1       2.774   5.098  19.491  0.00  0.00    +0.000 A 
ATOM      6  C   UNL     1       2.079   6.344  19.940  0.00  0.00    +0.000 A 
ATOM      7  O   UNL     1       1.394   6.294  20.959  0.00  0.00    +0.000 OA
ENDROOT
BRANCH   1  15
ATOM      8  C   UNL     1      -0.308   9.769  23.367  0.00  0.00    +0.000 C 
ATOM      9  N   UNL     1      -0.227  10.547  22.149  0.00  0.00    +0.000 N 
ATOM     10  C   UNL     1      -0.708  11.819  21.942  0.00  0.00    +0.000 A 
ATOM     11  C   UNL     1      -0.406  12.184  20.638  0.00  0.00    +0.000 A 
ATOM     12  C   UNL     1       0.301  11.101  20.044  0.00  0.00    +0.000 A 
ATOM     13  C   UNL     1       0.866  10.900  18.770  0.00  0.00    +0.000 A 
ATOM     14  C   UNL     1       1.516   9.698  18.486  0.00  0.00    +0.000 A 
ATOM     15  C   UNL     1       1.556   8.670  19.431  0.00  0.00    +0.000 A 
ATOM     16  C   UNL     1       0.967   8.835  20.693  0.00  0.00    +0.000 A 
ATOM     17  C   UNL     1       0.370  10.076  20.990  0.00  0.00    +0.000 A 
ATOM     18  C   UNL     1      -0.805  13.469  19.990  0.00  0.00    +0.000 C 
ATOM     19  N   UNL     1      -2.267  13.547  19.932  0.00  0.00    +0.000 NA
ATOM     20  C   UNL     1      -2.887  13.966  21.188  0.00  0.00    +0.000 C 
ATOM     21  C   UNL     1      -2.885  12.942  22.335  0.00  0.00    +0.000 C 
ATOM     22  C   UNL     1      -1.495  12.648  22.905  0.00  0.00    +0.000 C 
ATOM     23  H   UNL     1      -2.622  12.630  19.659  0.00  0.00    +0.000 HD
ENDBRANCH   1  15
BRANCH   4  24
ATOM     24  O   UNL     1       4.189   3.963  17.956  0.00  0.00    +0.000 OA
BRANCH  24  25
ATOM     25  C   UNL     1       5.617   4.082  17.870  0.00  0.00    +0.000 C 
BRANCH  25  26
ATOM     26  C   UNL     1       6.071   4.455  16.496  0.00  0.00    +0.000 A 
ATOM     27  C   UNL     1       5.630   3.767  15.370  0.00  0.00    +0.000 A 
ATOM     28  C   UNL     1       6.201   4.041  14.134  0.00  0.00    +0.000 A 
ATOM     29  C   UNL     1       7.220   4.986  14.047  0.00  0.00    +0.000 A 
ATOM     30  N   UNL     1       7.646   5.681  15.141  0.00  0.00    +0.000 NA
ATOM     31  C   UNL     1       7.071   5.405  16.330  0.00  0.00    +0.000 A 
BRANCH  29  32
ATOM     32  C   UNL     1       7.919   5.225  12.717  0.00  0.00    +0.000 C 
ATOM     33  F   UNL     1       9.262   5.447  12.848  0.00  0.00    +0.000 F 
ATOM     34  F   UNL     1       7.806   4.177  11.854  0.00  0.00    +0.000 F 
ATOM     35  F   UNL     1       7.438   6.317  12.056  0.00  0.00    +0.000 F 
ENDBRANCH  29  32
ENDBRANCH  25  26
ENDBRANCH  24  25
ENDBRANCH   4  24
TORSDOF 5
ENDMDL
MODEL 7
REMARK VINA RESULT:      -9.1      6.392     12.009
REMARK  Name = 
REMARK  6 active torsions:
REMARK  status: ('A' for Active; 'I' for Inactive)
REMARK    1  A    between atoms: C_1  and  N_2
REMARK    2  A    between atoms: C_8  and  N_9
REMARK    3  A    between atoms: C_12  and  O_13
REMARK    4  A    between atoms: O_13  and  C_14
REMARK    5  A    between atoms: C_14  and  C_15
REMARK    6  A    between atoms: C_18  and  C_19
REMARK                            x       y       z     vdW  Elec       q    Type
REMARK                         _______ _______ _______ _____ _____    ______ ____
ROOT
ATOM      1  N   UNL     1       1.062   8.990  20.515  0.00  0.00    +0.000 N 
ATOM      2  C   UNL     1       1.243   8.776  21.869  0.00  0.00    +0.000 A 
ATOM      3  C   UNL     1       0.441   9.317  22.781  0.00  0.00    +0.000 A 
ATOM      4  C   UNL     1      -0.667  10.153  22.367  0.00  0.00    +0.000 A 
ATOM      5  C   UNL     1      -0.874  10.397  21.068  0.00  0.00    +0.000 A 
ATOM      6  C   UNL     1       0.033   9.815  20.031  0.00  0.00    +0.000 A 
ATOM      7  O   UNL     1      -0.195  10.069  18.851  0.00  0.00    +0.000 OA
ENDROOT
BRANCH   1  15
ATOM      8  C   UNL     1       3.364   4.085  19.771  0.00  0.00    +0.000 C 
ATOM      9  N   UNL     1       3.604   5.085  18.752  0.00  0.00    +0.000 N 
ATOM     10  C   UNL     1       4.336   4.936  17.598  0.00  0.00    +0.000 A 
ATOM     11  C   UNL     1       4.296   6.138  16.907  0.00  0.00    +0.000 A 
ATOM     12  C   UNL     1       3.495   7.039  17.664  0.00  0.00    +0.000 A 
ATOM     13  C   UNL     1       3.092   8.374  17.464  0.00  0.00    +0.000 A 
ATOM     14  C   UNL     1       2.280   8.998  18.412  0.00  0.00    +0.000 A 
ATOM     15  C   UNL     1       1.916   8.333  19.585  0.00  0.00    +0.000 A 
ATOM     16  C   UNL     1       2.337   7.016  19.821  0.00  0.00    +0.000 A 
ATOM     17  C   UNL     1       3.103   6.376  18.828  0.00  0.00    +0.000 A 
ATOM     18  C   UNL     1       5.014   6.419  15.628  0.00  0.00    +0.000 C 
ATOM     19  N   UNL     1       6.458   6.314  15.851  0.00  0.00    +0.000 NA
ATOM     20  C   UNL     1       6.958   4.940  15.851  0.00  0.00    +0.000 C 
ATOM     21  C   UNL     1       6.602   4.076  17.072  0.00  0.00    +0.000 C 
ATOM     22  C   UNL     1       5.114   3.730  17.179  0.00  0.00    +0.000 C 
ATOM     23  H   UNL     1       6.674   6.761  16.743  0.00  0.00    +0.000 HD
ENDBRANCH   1  15
BRANCH   4  24
ATOM     24  O   UNL     1      -1.490  10.682  23.346  0.00  0.00    +0.000 OA
BRANCH  24  25
ATOM     25  C   UNL     1      -1.645  12.108  23.302  0.00  0.00    +0.000 C 
BRANCH  25  26
ATOM     26  C   UNL     1      -3.082  12.520  23.305  0.00  0.00    +0.000 A 
ATOM     27  C   UNL     1      -3.828  12.558  24.479  0.00  0.00    +0.000 A 
ATOM     28  C   UNL     1      -5.196  12.786  24.413  0.00  0.00    +0.000 A 
ATOM     29  C   UNL     1      -5.801  12.952  23.170  0.00  0.00    +0.000 A 
ATOM     30  N   UNL     1      -5.077  12.936  22.014  0.00  0.00    +0.000 NA
ATOM     31  C   UNL     1      -3.748  12.722  22.102  0.00  0.00    +0.000 A 
BRANCH  29  32
ATOM     32  C   UNL     1      -7.312  13.106  23.078  0.00  0.00    +0.000 C 
ATOM     33  F   UNL     1      -7.697  14.266  22.465  0.00  0.00    +0.000 F 
ATOM     34  F   UNL     1      -7.913  12.106  22.375  0.00  0.00    +0.000 F 
ATOM     35  F   UNL     1      -7.916  13.130  24.300  0.00  0.00    +0.000 F 
ENDBRANCH  29  32
ENDBRANCH  25  26
ENDBRANCH  24  25
ENDBRANCH   4  24
TORSDOF 5
ENDMDL
MODEL 8
REMARK VINA RESULT:      -8.9      3.421      4.826
REMARK  Name = 
REMARK  6 active torsions:
REMARK  status: ('A' for Active; 'I' for Inactive)
REMARK    1  A    between atoms: C_1  and  N_2
REMARK    2  A    between atoms: C_8  and  N_9
REMARK    3  A    between atoms: C_12  and  O_13
REMARK    4  A    between atoms: O_13  and  C_14
REMARK    5  A    between atoms: C_14  and  C_15
REMARK    6  A    between atoms: C_18  and  C_19
REMARK                            x       y       z     vdW  Elec       q    Type
REMARK                         _______ _______ _______ _____ _____    ______ ____
ROOT
ATOM      1  N   UNL     1       1.091  10.026  19.744  0.00  0.00    +0.000 N 
ATOM      2  C   UNL     1       0.857   9.418  20.964  0.00  0.00    +0.000 A 
ATOM      3  C   UNL     1       1.162   8.144  21.185  0.00  0.00    +0.000 A 
ATOM      4  C   UNL     1       1.768   7.350  20.136  0.00  0.00    +0.000 A 
ATOM      5  C   UNL     1       2.002   7.893  18.936  0.00  0.00    +0.000 A 
ATOM      6  C   UNL     1       1.643   9.319  18.663  0.00  0.00    +0.000 A 
ATOM      7  O   UNL     1       1.875   9.774  17.545  0.00  0.00    +0.000 OA
ENDROOT
BRANCH   1  15
ATOM      8  C   UNL     1       3.699  14.691  18.581  0.00  0.00    +0.000 C 
ATOM      9  N   UNL     1       2.266  14.769  18.774  0.00  0.00    +0.000 N 
ATOM     10  C   UNL     1       1.475  15.890  18.680  0.00  0.00    +0.000 A 
ATOM     11  C   UNL     1       0.165  15.512  18.929  0.00  0.00    +0.000 A 
ATOM     12  C   UNL     1       0.163  14.108  19.164  0.00  0.00    +0.000 A 
ATOM     13  C   UNL     1      -0.856  13.178  19.450  0.00  0.00    +0.000 A 
ATOM     14  C   UNL     1      -0.531  11.832  19.628  0.00  0.00    +0.000 A 
ATOM     15  C   UNL     1       0.800  11.410  19.587  0.00  0.00    +0.000 A 
ATOM     16  C   UNL     1       1.834  12.326  19.340  0.00  0.00    +0.000 A 
ATOM     17  C   UNL     1       1.487  13.670  19.099  0.00  0.00    +0.000 A 
ATOM     18  C   UNL     1      -1.004  16.441  18.982  0.00  0.00    +0.000 C 
ATOM     19  N   UNL     1      -0.813  17.394  20.078  0.00  0.00    +0.000 NA
ATOM     20  C   UNL     1       0.079  18.505  19.746  0.00  0.00    +0.000 C 
ATOM     21  C   UNL     1       1.577  18.178  19.633  0.00  0.00    +0.000 C 
ATOM     22  C   UNL     1       1.933  17.292  18.436  0.00  0.00    +0.000 C 
ATOM     23  H   UNL     1      -0.446  16.885  20.882  0.00  0.00    +0.000 HD
ENDBRANCH   1  15
BRANCH   4  24
ATOM     24  O   UNL     1       2.088   6.033  20.412  0.00  0.00    +0.000 OA
BRANCH  24  25
ATOM     25  C   UNL     1       2.027   5.144  19.286  0.00  0.00    +0.000 C 
BRANCH  25  26
ATOM     26  C   UNL     1       3.377   4.878  18.705  0.00  0.00    +0.000 A 
ATOM     27  C   UNL     1       4.536   4.989  19.468  0.00  0.00    +0.000 A 
ATOM     28  C   UNL     1       5.775   4.893  18.849  0.00  0.00    +0.000 A 
ATOM     29  C   UNL     1       5.837   4.708  17.471  0.00  0.00    +0.000 A 
ATOM     30  N   UNL     1       4.708   4.578  16.715  0.00  0.00    +0.000 NA
ATOM     31  C   UNL     1       3.516   4.665  17.338  0.00  0.00    +0.000 A 
BRANCH  29  32
ATOM     32  C   UNL     1       7.186   4.698  16.768  0.00  0.00    +0.000 C 
ATOM     33  F   UNL     1       7.596   5.941  16.373  0.00  0.00    +0.000 F 
ATOM     34  F   UNL     1       8.194   4.213  17.546  0.00  0.00    +0.000 F 
ATOM     35  F   UNL     1       7.185   3.943  15.632  0.00  0.00    +0.000 F 
ENDBRANCH  29  32
ENDBRANCH  25  26
ENDBRANCH  24  25
ENDBRANCH   4  24
TORSDOF 5
ENDMDL
MODEL 9
REMARK VINA RESULT:      -8.9      5.638     11.163
REMARK  Name = 
REMARK  6 active torsions:
REMARK  status: ('A' for Active; 'I' for Inactive)
REMARK    1  A    between atoms: C_1  and  N_2
REMARK    2  A    between atoms: C_8  and  N_9
REMARK    3  A    between atoms: C_12  and  O_13
REMARK    4  A    between atoms: O_13  and  C_14
REMARK    5  A    between atoms: C_14  and  C_15
REMARK    6  A    between atoms: C_18  and  C_19
REMARK                            x       y       z     vdW  Elec       q    Type
REMARK                         _______ _______ _______ _____ _____    ______ ____
ROOT
ATOM      1  N   UNL     1       0.464  10.007  20.981  0.00  0.00    +0.000 N 
ATOM      2  C   UNL     1       0.624  11.370  20.805  0.00  0.00    +0.000 A 
ATOM      3  C   UNL     1      -0.036  12.257  21.542  0.00  0.00    +0.000 A 
ATOM      4  C   UNL     1      -0.948  11.809  22.574  0.00  0.00    +0.000 A 
ATOM      5  C   UNL     1      -1.143  10.500  22.773  0.00  0.00    +0.000 A 
ATOM      6  C   UNL     1      -0.427   9.489  21.936  0.00  0.00    +0.000 A 
ATOM      7  O   UNL     1      -0.640   8.298  22.154  0.00  0.00    +0.000 OA
ENDROOT
BRANCH   1  15
ATOM      8  C   UNL     1       2.188   4.820  21.158  0.00  0.00    +0.000 C 
ATOM      9  N   UNL     1       2.553   5.595  19.991  0.00  0.00    +0.000 N 
ATOM     10  C   UNL     1       3.275   5.166  18.902  0.00  0.00    +0.000 A 
ATOM     11  C   UNL     1       3.383   6.227  18.015  0.00  0.00    +0.000 A 
ATOM     12  C   UNL     1       2.684   7.330  18.581  0.00  0.00    +0.000 A 
ATOM     13  C   UNL     1       2.440   8.646  18.144  0.00  0.00    +0.000 A 
ATOM     14  C   UNL     1       1.696   9.513  18.946  0.00  0.00    +0.000 A 
ATOM     15  C   UNL     1       1.245   9.107  20.204  0.00  0.00    +0.000 A 
ATOM     16  C   UNL     1       1.508   7.812  20.675  0.00  0.00    +0.000 A 
ATOM     17  C   UNL     1       2.205   6.927  19.829  0.00  0.00    +0.000 A 
ATOM     18  C   UNL     1       4.141   6.200  16.728  0.00  0.00    +0.000 C 
ATOM     19  N   UNL     1       5.561   5.973  17.011  0.00  0.00    +0.000 NA
ATOM     20  C   UNL     1       5.898   4.572  17.261  0.00  0.00    +0.000 C 
ATOM     21  C   UNL     1       5.431   3.978  18.600  0.00  0.00    +0.000 C 
ATOM     22  C   UNL     1       3.912   3.827  18.719  0.00  0.00    +0.000 C 
ATOM     23  H   UNL     1       5.818   6.540  17.818  0.00  0.00    +0.000 HD
ENDBRANCH   1  15
BRANCH   4  24
ATOM     24  O   UNL     1      -1.601  12.764  23.332  0.00  0.00    +0.000 OA
BRANCH  24  25
ATOM     25  C   UNL     1      -2.358  13.724  22.578  0.00  0.00    +0.000 C 
BRANCH  25  26
ATOM     26  C   UNL     1      -3.500  13.094  21.849  0.00  0.00    +0.000 A 
ATOM     27  C   UNL     1      -3.505  12.973  20.463  0.00  0.00    +0.000 A 
ATOM     28  C   UNL     1      -4.653  12.533  19.818  0.00  0.00    +0.000 A 
ATOM     29  C   UNL     1      -5.787  12.239  20.569  0.00  0.00    +0.000 A 
ATOM     30  N   UNL     1      -5.789  12.334  21.930  0.00  0.00    +0.000 NA
ATOM     31  C   UNL     1      -4.660  12.755  22.536  0.00  0.00    +0.000 A 
BRANCH  29  32
ATOM     32  C   UNL     1      -7.079  11.848  19.867  0.00  0.00    +0.000 C 
ATOM     33  F   UNL     1      -6.876  11.316  18.624  0.00  0.00    +0.000 F 
ATOM     34  F   UNL     1      -7.800  10.914  20.549  0.00  0.00    +0.000 F 
ATOM     35  F   UNL     1      -7.916  12.907  19.671  0.00  0.00    +0.000 F 
ENDBRANCH  29  32
ENDBRANCH  25  26
ENDBRANCH  24  25
ENDBRANCH   4  24
TORSDOF 5
ENDMDL
