MODEL 1
REMARK VINA RESULT:      -7.6      0.000      0.000
REMARK  Name = 
REMARK  5 active torsions:
REMARK  status: ('A' for Active; 'I' for Inactive)
REMARK    1  A    between atoms: C_1  and  C_2
REMARK    2  A    between atoms: C_5  and  C_6
REMARK    3  A    between atoms: N_8  and  C_9
REMARK    4  A    between atoms: C_9  and  C_10
REMARK    5  A    between atoms: C_10  and  C_11
REMARK                            x       y       z     vdW  Elec       q    Type
REMARK                         _______ _______ _______ _____ _____    ______ ____
ROOT
ATOM      1  C   UNL     1       5.729   5.880  17.484  0.00  0.00    +0.000 A 
ATOM      2  C   UNL     1       6.352   6.652  18.437  0.00  0.00    +0.000 A 
ATOM      3  N   UNL     1       7.431   7.176  17.792  0.00  0.00    +0.000 N 
ATOM      4  N   UNL     1       7.445   6.808  16.498  0.00  0.00    +0.000 NA
ATOM      5  N   UNL     1       6.399   6.012  16.297  0.00  0.00    +0.000 NA
ENDROOT
BRANCH   1  10
ATOM      6  C   UNL     1       1.018   2.661  18.342  0.00  0.00    +0.000 C 
ATOM      7  C   UNL     1       2.252   3.482  18.116  0.00  0.00    +0.000 A 
ATOM      8  C   UNL     1       3.506   2.883  17.943  0.00  0.00    +0.000 A 
ATOM      9  C   UNL     1       4.649   3.668  17.743  0.00  0.00    +0.000 A 
ATOM     10  C   UNL     1       4.553   5.063  17.703  0.00  0.00    +0.000 A 
ATOM     11  C   UNL     1       3.294   5.657  17.881  0.00  0.00    +0.000 A 
ATOM     12  C   UNL     1       2.155   4.876  18.085  0.00  0.00    +0.000 A 
ENDBRANCH   1  10
BRANCH   3  13
ATOM     13  C   UNL     1       8.468   8.039  18.329  0.00  0.00    +0.000 C 
BRANCH  13  14
ATOM     14  C   UNL     1       8.268   9.511  17.959  0.00  0.00    +0.000 C 
BRANCH  14  15
ATOM     15  C   UNL     1       9.273  10.434  18.598  0.00  0.00    +0.000 A 
ATOM     16  C   UNL     1       9.286  10.612  19.989  0.00  0.00    +0.000 A 
ATOM     17  C   UNL     1      10.242  11.435  20.587  0.00  0.00    +0.000 A 
ATOM     18  C   UNL     1      11.187  12.091  19.800  0.00  0.00    +0.000 A 
ATOM     19  C   UNL     1      11.175  11.928  18.417  0.00  0.00    +0.000 A 
ATOM     20  C   UNL     1      10.221  11.106  17.816  0.00  0.00    +0.000 A 
ENDBRANCH  14  15
ENDBRANCH  13  14
ENDBRANCH   3  13
TORSDOF 4
ENDMDL
MODEL 2
REMARK VINA RESULT:      -7.5      0.625      1.641
REMARK  Name = 
REMARK  5 active torsions:
REMARK  status: ('A' for Active; 'I' for Inactive)
REMARK    1  A    between atoms: C_1  and  C_2
REMARK    2  A    between atoms: C_5  and  C_6
REMARK    3  A    between atoms: N_8  and  C_9
REMARK    4  A    between atoms: C_9  and  C_10
REMARK    5  A    between atoms: C_10  and  C_11
REMARK                            x       y       z     vdW  Elec       q    Type
REMARK                         _______ _______ _______ _____ _____    ______ ____
ROOT
ATOM      1  C   UNL     1       5.679   5.985  17.309  0.00  0.00    +0.000 A 
ATOM      2  C   UNL     1       5.857   7.290  17.707  0.00  0.00    +0.000 A 
ATOM      3  N   UNL     1       7.109   7.605  17.277  0.00  0.00    +0.000 N 
ATOM      4  N   UNL     1       7.656   6.584  16.592  0.00  0.00    +0.000 NA
ATOM      5  N   UNL     1       6.782   5.581  16.604  0.00  0.00    +0.000 NA
ENDROOT
BRANCH   1  10
ATOM      6  C   UNL     1       1.063   2.711  18.432  0.00  0.00    +0.000 C 
ATOM      7  C   UNL     1       2.253   3.577  18.146  0.00  0.00    +0.000 A 
ATOM      8  C   UNL     1       2.182   4.972  18.245  0.00  0.00    +0.000 A 
ATOM      9  C   UNL     1       3.302   5.764  17.965  0.00  0.00    +0.000 A 
ATOM     10  C   UNL     1       4.512   5.172  17.590  0.00  0.00    +0.000 A 
ATOM     11  C   UNL     1       4.576   3.775  17.488  0.00  0.00    +0.000 A 
ATOM     12  C   UNL     1       3.459   2.984  17.763  0.00  0.00    +0.000 A 
ENDBRANCH   1  10
BRANCH   3  13
ATOM     13  C   UNL     1       7.836   8.848  17.458  0.00  0.00    +0.000 C 
BRANCH  13  14
ATOM     14  C   UNL     1       8.649   8.881  18.754  0.00  0.00    +0.000 C 
BRANCH  14  15
ATOM     15  C   UNL     1       9.277  10.221  19.039  0.00  0.00    +0.000 A 
ATOM     16  C   UNL     1       9.610  11.084  17.986  0.00  0.00    +0.000 A 
ATOM     17  C   UNL     1      10.153  12.343  18.249  0.00  0.00    +0.000 A 
ATOM     18  C   UNL     1      10.374  12.745  19.564  0.00  0.00    +0.000 A 
ATOM     19  C   UNL     1      10.055  11.890  20.617  0.00  0.00    +0.000 A 
ATOM     20  C   UNL     1       9.512  10.631  20.357  0.00  0.00    +0.000 A 
ENDBRANCH  14  15
ENDBRANCH  13  14
ENDBRANCH   3  13
TORSDOF 4
ENDMDL
MODEL 3
REMARK VINA RESULT:      -7.4      5.604      8.776
REMARK  Name = 
REMARK  5 active torsions:
REMARK  status: ('A' for Active; 'I' for Inactive)
REMARK    1  A    between atoms: C_1  and  C_2
REMARK    2  A    between atoms: C_5  and  C_6
REMARK    3  A    between atoms: N_8  and  C_9
REMARK    4  A    between atoms: C_9  and  C_10
REMARK    5  A    between atoms: C_10  and  C_11
REMARK                            x       y       z     vdW  Elec       q    Type
REMARK                         _______ _______ _______ _____ _____    ______ ____
ROOT
ATOM      1  C   UNL     1       2.322   7.890  18.568  0.00  0.00    +0.000 A 
ATOM      2  C   UNL     1       1.796   9.001  17.949  0.00  0.00    +0.000 A 
ATOM      3  N   UNL     1       1.060   9.609  18.920  0.00  0.00    +0.000 N 
ATOM      4  N   UNL     1       1.172   8.956  20.091  0.00  0.00    +0.000 NA
ATOM      5  N   UNL     1       1.951   7.897  19.886  0.00  0.00    +0.000 NA
ENDROOT
BRANCH   1  10
ATOM      6  C   UNL     1       5.539   3.833  16.020  0.00  0.00    +0.000 C 
ATOM      7  C   UNL     1       4.713   4.901  16.673  0.00  0.00    +0.000 A 
ATOM      8  C   UNL     1       5.041   6.257  16.549  0.00  0.00    +0.000 A 
ATOM      9  C   UNL     1       4.262   7.238  17.175  0.00  0.00    +0.000 A 
ATOM     10  C   UNL     1       3.139   6.879  17.927  0.00  0.00    +0.000 A 
ATOM     11  C   UNL     1       2.818   5.519  18.051  0.00  0.00    +0.000 A 
ATOM     12  C   UNL     1       3.596   4.539  17.431  0.00  0.00    +0.000 A 
ENDBRANCH   1  10
BRANCH   3  13
ATOM     13  C   UNL     1       0.250  10.808  18.815  0.00  0.00    +0.000 C 
BRANCH  13  14
ATOM     14  C   UNL     1      -1.214  10.576  19.200  0.00  0.00    +0.000 C 
BRANCH  14  15
ATOM     15  C   UNL     1      -2.159  10.613  18.028  0.00  0.00    +0.000 A 
ATOM     16  C   UNL     1      -3.285  11.450  18.054  0.00  0.00    +0.000 A 
ATOM     17  C   UNL     1      -4.140  11.517  16.953  0.00  0.00    +0.000 A 
ATOM     18  C   UNL     1      -3.883  10.745  15.822  0.00  0.00    +0.000 A 
ATOM     19  C   UNL     1      -2.772   9.904  15.791  0.00  0.00    +0.000 A 
ATOM     20  C   UNL     1      -1.915   9.835  16.890  0.00  0.00    +0.000 A 
ENDBRANCH  14  15
ENDBRANCH  13  14
ENDBRANCH   3  13
TORSDOF 4
ENDMDL
MODEL 4
REMARK VINA RESULT:      -7.4      1.169      1.831
REMARK  Name = 
REMARK  5 active torsions:
REMARK  status: ('A' for Active; 'I' for Inactive)
REMARK    1  A    between atoms: C_1  and  C_2
REMARK    2  A    between atoms: C_5  and  C_6
REMARK    3  A    between atoms: N_8  and  C_9
REMARK    4  A    between atoms: C_9  and  C_10
REMARK    5  A    between atoms: C_10  and  C_11
REMARK                            x       y       z     vdW  Elec       q    Type
REMARK                         _______ _______ _______ _____ _____    ______ ____
ROOT
ATOM      1  C   UNL     1       5.639   5.175  18.026  0.00  0.00    +0.000 A 
ATOM      2  C   UNL     1       5.736   6.524  17.775  0.00  0.00    +0.000 A 
ATOM      3  N   UNL     1       7.075   6.764  17.736  0.00  0.00    +0.000 N 
ATOM      4  N   UNL     1       7.774   5.624  17.885  0.00  0.00    +0.000 NA
ATOM      5  N   UNL     1       6.899   4.638  18.062  0.00  0.00    +0.000 NA
ENDROOT
BRANCH   1  10
ATOM      6  C   UNL     1       0.738   2.239  18.834  0.00  0.00    +0.000 C 
ATOM      7  C   UNL     1       2.002   3.015  18.614  0.00  0.00    +0.000 A 
ATOM      8  C   UNL     1       2.047   4.106  17.736  0.00  0.00    +0.000 A 
ATOM      9  C   UNL     1       3.240   4.811  17.537  0.00  0.00    +0.000 A 
ATOM     10  C   UNL     1       4.404   4.442  18.219  0.00  0.00    +0.000 A 
ATOM     11  C   UNL     1       4.354   3.346  19.093  0.00  0.00    +0.000 A 
ATOM     12  C   UNL     1       3.166   2.639  19.290  0.00  0.00    +0.000 A 
ENDBRANCH   1  10
BRANCH   3  13
ATOM     13  C   UNL     1       7.757   8.030  17.542  0.00  0.00    +0.000 C 
BRANCH  13  14
ATOM     14  C   UNL     1       8.618   8.435  18.741  0.00  0.00    +0.000 C 
BRANCH  14  15
ATOM     15  C   UNL     1       8.945   9.905  18.781  0.00  0.00    +0.000 A 
ATOM     16  C   UNL     1       8.529  10.750  17.742  0.00  0.00    +0.000 A 
ATOM     17  C   UNL     1       8.795  12.119  17.796  0.00  0.00    +0.000 A 
ATOM     18  C   UNL     1       9.484  12.653  18.883  0.00  0.00    +0.000 A 
ATOM     19  C   UNL     1       9.910  11.819  19.915  0.00  0.00    +0.000 A 
ATOM     20  C   UNL     1       9.646  10.450  19.864  0.00  0.00    +0.000 A 
ENDBRANCH  14  15
ENDBRANCH  13  14
ENDBRANCH   3  13
TORSDOF 4
ENDMDL
MODEL 5
REMARK VINA RESULT:      -7.4      0.637      1.257
REMARK  Name = 
REMARK  5 active torsions:
REMARK  status: ('A' for Active; 'I' for Inactive)
REMARK    1  A    between atoms: C_1  and  C_2
REMARK    2  A    between atoms: C_5  and  C_6
REMARK    3  A    between atoms: N_8  and  C_9
REMARK    4  A    between atoms: C_9  and  C_10
REMARK    5  A    between atoms: C_10  and  C_11
REMARK                            x       y       z     vdW  Elec       q    Type
REMARK                         _______ _______ _______ _____ _____    ______ ____
ROOT
ATOM      1  C   UNL     1       5.815   5.806  17.556  0.00  0.00    +0.000 A 
ATOM      2  C   UNL     1       6.468   6.553  18.508  0.00  0.00    +0.000 A 
ATOM      3  N   UNL     1       7.493   7.140  17.831  0.00  0.00    +0.000 N 
ATOM      4  N   UNL     1       7.445   6.832  16.522  0.00  0.00    +0.000 NA
ATOM      5  N   UNL     1       6.413   6.013  16.341  0.00  0.00    +0.000 NA
ENDROOT
BRANCH   1  10
ATOM      6  C   UNL     1       1.274   2.392  18.567  0.00  0.00    +0.000 C 
ATOM      7  C   UNL     1       2.454   3.275  18.286  0.00  0.00    +0.000 A 
ATOM      8  C   UNL     1       3.067   3.296  17.027  0.00  0.00    +0.000 A 
ATOM      9  C   UNL     1       4.174   4.120  16.787  0.00  0.00    +0.000 A 
ATOM     10  C   UNL     1       4.678   4.942  17.800  0.00  0.00    +0.000 A 
ATOM     11  C   UNL     1       4.062   4.913  19.060  0.00  0.00    +0.000 A 
ATOM     12  C   UNL     1       2.961   4.089  19.302  0.00  0.00    +0.000 A 
ENDBRANCH   1  10
BRANCH   3  13
ATOM     13  C   UNL     1       8.533   8.010  18.349  0.00  0.00    +0.000 C 
BRANCH  13  14
ATOM     14  C   UNL     1       8.266   9.491  18.068  0.00  0.00    +0.000 C 
BRANCH  14  15
ATOM     15  C   UNL     1       9.297  10.414  18.665  0.00  0.00    +0.000 A 
ATOM     16  C   UNL     1      10.218  11.074  17.839  0.00  0.00    +0.000 A 
ATOM     17  C   UNL     1      11.147  11.960  18.385  0.00  0.00    +0.000 A 
ATOM     18  C   UNL     1      11.168  12.190  19.759  0.00  0.00    +0.000 A 
ATOM     19  C   UNL     1      10.263  11.531  20.589  0.00  0.00    +0.000 A 
ATOM     20  C   UNL     1       9.333  10.644  20.046  0.00  0.00    +0.000 A 
ENDBRANCH  14  15
ENDBRANCH  13  14
ENDBRANCH   3  13
TORSDOF 4
ENDMDL
MODEL 6
REMARK VINA RESULT:      -7.3      5.148      7.307
REMARK  Name = 
REMARK  5 active torsions:
REMARK  status: ('A' for Active; 'I' for Inactive)
REMARK    1  A    between atoms: C_1  and  C_2
REMARK    2  A    between atoms: C_5  and  C_6
REMARK    3  A    between atoms: N_8  and  C_9
REMARK    4  A    between atoms: C_9  and  C_10
REMARK    5  A    between atoms: C_10  and  C_11
REMARK                            x       y       z     vdW  Elec       q    Type
REMARK                         _______ _______ _______ _____ _____    ______ ____
ROOT
ATOM      1  C   UNL     1       4.734   5.038  16.771  0.00  0.00    +0.000 A 
ATOM      2  C   UNL     1       5.728   4.262  16.221  0.00  0.00    +0.000 A 
ATOM      3  N   UNL     1       6.327   5.079  15.311  0.00  0.00    +0.000 N 
ATOM      4  N   UNL     1       5.785   6.310  15.337  0.00  0.00    +0.000 NA
ATOM      5  N   UNL     1       4.804   6.297  16.235  0.00  0.00    +0.000 NA
ENDROOT
BRANCH   1  10
ATOM      6  C   UNL     1       0.887   3.234  20.675  0.00  0.00    +0.000 C 
ATOM      7  C   UNL     1       1.897   3.711  19.674  0.00  0.00    +0.000 A 
ATOM      8  C   UNL     1       2.916   4.602  20.033  0.00  0.00    +0.000 A 
ATOM      9  C   UNL     1       3.844   5.044  19.081  0.00  0.00    +0.000 A 
ATOM     10  C   UNL     1       3.771   4.594  17.758  0.00  0.00    +0.000 A 
ATOM     11  C   UNL     1       2.745   3.706  17.404  0.00  0.00    +0.000 A 
ATOM     12  C   UNL     1       1.817   3.268  18.351  0.00  0.00    +0.000 A 
ENDBRANCH   1  10
BRANCH   3  13
ATOM     13  C   UNL     1       7.419   4.769  14.407  0.00  0.00    +0.000 C 
BRANCH  13  14
ATOM     14  C   UNL     1       7.047   4.957  12.934  0.00  0.00    +0.000 C 
BRANCH  14  15
ATOM     15  C   UNL     1       6.636   3.681  12.247  0.00  0.00    +0.000 A 
ATOM     16  C   UNL     1       5.278   3.362  12.099  0.00  0.00    +0.000 A 
ATOM     17  C   UNL     1       4.894   2.201  11.428  0.00  0.00    +0.000 A 
ATOM     18  C   UNL     1       5.862   1.346  10.905  0.00  0.00    +0.000 A 
ATOM     19  C   UNL     1       7.214   1.649  11.055  0.00  0.00    +0.000 A 
ATOM     20  C   UNL     1       7.601   2.809  11.726  0.00  0.00    +0.000 A 
ENDBRANCH  14  15
ENDBRANCH  13  14
ENDBRANCH   3  13
TORSDOF 4
ENDMDL
MODEL 7
REMARK VINA RESULT:      -7.3      4.831      6.793
REMARK  Name = 
REMARK  5 active torsions:
REMARK  status: ('A' for Active; 'I' for Inactive)
REMARK    1  A    between atoms: C_1  and  C_2
REMARK    2  A    between atoms: C_5  and  C_6
REMARK    3  A    between atoms: N_8  and  C_9
REMARK    4  A    between atoms: C_9  and  C_10
REMARK    5  A    between atoms: C_10  and  C_11
REMARK                            x       y       z     vdW  Elec       q    Type
REMARK                         _______ _______ _______ _____ _____    ______ ____
ROOT
ATOM      1  C   UNL     1       3.250   6.190  18.167  0.00  0.00    +0.000 A 
ATOM      2  C   UNL     1       4.535   6.238  17.678  0.00  0.00    +0.000 A 
ATOM      3  N   UNL     1       4.850   4.937  17.433  0.00  0.00    +0.000 N 
ATOM      4  N   UNL     1       3.804   4.130  17.689  0.00  0.00    +0.000 NA
ATOM      5  N   UNL     1       2.812   4.893  18.139  0.00  0.00    +0.000 NA
ENDROOT
BRANCH   1  10
ATOM      6  C   UNL     1       0.215  10.715  20.067  0.00  0.00    +0.000 C 
ATOM      7  C   UNL     1       1.006   9.548  19.557  0.00  0.00    +0.000 A 
ATOM      8  C   UNL     1       1.429   9.478  18.223  0.00  0.00    +0.000 A 
ATOM      9  C   UNL     1       2.158   8.375  17.764  0.00  0.00    +0.000 A 
ATOM     10  C   UNL     1       2.485   7.329  18.633  0.00  0.00    +0.000 A 
ATOM     11  C   UNL     1       2.055   7.402  19.966  0.00  0.00    +0.000 A 
ATOM     12  C   UNL     1       1.324   8.499  20.425  0.00  0.00    +0.000 A 
ENDBRANCH   1  10
BRANCH   3  13
ATOM     13  C   UNL     1       6.103   4.392  16.942  0.00  0.00    +0.000 C 
BRANCH  13  14
ATOM     14  C   UNL     1       6.820   5.329  15.967  0.00  0.00    +0.000 C 
BRANCH  14  15
ATOM     15  C   UNL     1       6.825   4.831  14.545  0.00  0.00    +0.000 A 
ATOM     16  C   UNL     1       5.898   3.864  14.131  0.00  0.00    +0.000 A 
ATOM     17  C   UNL     1       5.873   3.430  12.805  0.00  0.00    +0.000 A 
ATOM     18  C   UNL     1       6.778   3.955  11.884  0.00  0.00    +0.000 A 
ATOM     19  C   UNL     1       7.708   4.910  12.288  0.00  0.00    +0.000 A 
ATOM     20  C   UNL     1       7.736   5.345  13.613  0.00  0.00    +0.000 A 
ENDBRANCH  14  15
ENDBRANCH  13  14
ENDBRANCH   3  13
TORSDOF 4
ENDMDL
MODEL 8
REMARK VINA RESULT:      -7.3      5.235      8.298
REMARK  Name = 
REMARK  5 active torsions:
REMARK  status: ('A' for Active; 'I' for Inactive)
REMARK    1  A    between atoms: C_1  and  C_2
REMARK    2  A    between atoms: C_5  and  C_6
REMARK    3  A    between atoms: N_8  and  C_9
REMARK    4  A    between atoms: C_9  and  C_10
REMARK    5  A    between atoms: C_10  and  C_11
REMARK                            x       y       z     vdW  Elec       q    Type
REMARK                         _______ _______ _______ _____ _____    ______ ____
ROOT
ATOM      1  C   UNL     1       2.739   7.045  18.710  0.00  0.00    +0.000 A 
ATOM      2  C   UNL     1       2.218   8.291  18.450  0.00  0.00    +0.000 A 
ATOM      3  N   UNL     1       1.482   8.586  19.557  0.00  0.00    +0.000 N 
ATOM      4  N   UNL     1       1.591   7.614  20.482  0.00  0.00    +0.000 NA
ATOM      5  N   UNL     1       2.365   6.661  19.971  0.00  0.00    +0.000 NA
ENDROOT
BRANCH   1  10
ATOM      6  C   UNL     1       6.011   3.985  15.074  0.00  0.00    +0.000 C 
ATOM      7  C   UNL     1       5.155   4.764  16.027  0.00  0.00    +0.000 A 
ATOM      8  C   UNL     1       4.219   4.130  16.854  0.00  0.00    +0.000 A 
ATOM      9  C   UNL     1       3.421   4.877  17.730  0.00  0.00    +0.000 A 
ATOM     10  C   UNL     1       3.553   6.267  17.798  0.00  0.00    +0.000 A 
ATOM     11  C   UNL     1       4.488   6.897  16.963  0.00  0.00    +0.000 A 
ATOM     12  C   UNL     1       5.282   6.155  16.087  0.00  0.00    +0.000 A 
ENDBRANCH   1  10
BRANCH   3  13
ATOM     13  C   UNL     1       0.677   9.766  19.814  0.00  0.00    +0.000 C 
BRANCH  13  14
ATOM     14  C   UNL     1       0.386  10.577  18.549  0.00  0.00    +0.000 C 
BRANCH  14  15
ATOM     15  C   UNL     1      -1.079  10.666  18.213  0.00  0.00    +0.000 A 
ATOM     16  C   UNL     1      -1.637   9.814  17.249  0.00  0.00    +0.000 A 
ATOM     17  C   UNL     1      -3.002   9.866  16.965  0.00  0.00    +0.000 A 
ATOM     18  C   UNL     1      -3.820  10.774  17.635  0.00  0.00    +0.000 A 
ATOM     19  C   UNL     1      -3.273  11.632  18.587  0.00  0.00    +0.000 A 
ATOM     20  C   UNL     1      -1.908  11.582  18.873  0.00  0.00    +0.000 A 
ENDBRANCH  14  15
ENDBRANCH  13  14
ENDBRANCH   3  13
TORSDOF 4
ENDMDL
MODEL 9
REMARK VINA RESULT:      -7.3      1.223      1.408
REMARK  Name = 
REMARK  5 active torsions:
REMARK  status: ('A' for Active; 'I' for Inactive)
REMARK    1  A    between atoms: C_1  and  C_2
REMARK    2  A    between atoms: C_5  and  C_6
REMARK    3  A    between atoms: N_8  and  C_9
REMARK    4  A    between atoms: C_9  and  C_10
REMARK    5  A    between atoms: C_10  and  C_11
REMARK                            x       y       z     vdW  Elec       q    Type
REMARK                         _______ _______ _______ _____ _____    ______ ____
ROOT
ATOM      1  C   UNL     1       5.602   5.396  18.359  0.00  0.00    +0.000 A 
ATOM      2  C   UNL     1       5.727   6.623  17.749  0.00  0.00    +0.000 A 
ATOM      3  N   UNL     1       7.021   6.982  17.976  0.00  0.00    +0.000 N 
ATOM      4  N   UNL     1       7.683   6.010  18.629  0.00  0.00    +0.000 NA
ATOM      5  N   UNL     1       6.820   5.027  18.868  0.00  0.00    +0.000 NA
ENDROOT
BRANCH   1  10
ATOM      6  C   UNL     1       0.724   2.331  18.666  0.00  0.00    +0.000 C 
ATOM      7  C   UNL     1       2.001   3.113  18.595  0.00  0.00    +0.000 A 
ATOM      8  C   UNL     1       3.155   2.691  19.267  0.00  0.00    +0.000 A 
ATOM      9  C   UNL     1       4.335   3.442  19.196  0.00  0.00    +0.000 A 
ATOM     10  C   UNL     1       4.381   4.621  18.446  0.00  0.00    +0.000 A 
ATOM     11  C   UNL     1       3.221   5.042  17.779  0.00  0.00    +0.000 A 
ATOM     12  C   UNL     1       2.042   4.297  17.852  0.00  0.00    +0.000 A 
ENDBRANCH   1  10
BRANCH   3  13
ATOM     13  C   UNL     1       7.695   8.208  17.590  0.00  0.00    +0.000 C 
BRANCH  13  14
ATOM     14  C   UNL     1       8.794   8.620  18.573  0.00  0.00    +0.000 C 
BRANCH  14  15
ATOM     15  C   UNL     1       8.930  10.111  18.736  0.00  0.00    +0.000 A 
ATOM     16  C   UNL     1       9.439  10.649  19.927  0.00  0.00    +0.000 A 
ATOM     17  C   UNL     1       9.604  12.027  20.066  0.00  0.00    +0.000 A 
ATOM     18  C   UNL     1       9.257  12.880  19.020  0.00  0.00    +0.000 A 
ATOM     19  C   UNL     1       8.741  12.355  17.836  0.00  0.00    +0.000 A 
ATOM     20  C   UNL     1       8.575  10.977  17.694  0.00  0.00    +0.000 A 
ENDBRANCH  14  15
ENDBRANCH  13  14
ENDBRANCH   3  13
TORSDOF 4
ENDMDL
