MODEL 1
REMARK VINA RESULT:      -8.1      0.000      0.000
REMARK  Name = 
REMARK  11 active torsions:
REMARK  status: ('A' for Active; 'I' for Inactive)
REMARK    1  A    between atoms: C_1  and  O_2
REMARK    2  A    between atoms: O_2  and  C_3
REMARK    3  A    between atoms: C_7  and  C_8
REMARK    4  A    between atoms: C_8  and  C_9
REMARK    5  A    between atoms: C_9  and  C_10
REMARK    6  A    between atoms: C_10  and  N_11
REMARK    7  A    between atoms: N_11  and  C_12
REMARK    8  A    between atoms: C_12  and  C_13
REMARK    9  A    between atoms: C_13  and  O_14
REMARK   10  A    between atoms: C_13  and  C_15
REMARK   11  A    between atoms: C_17  and  O_18
REMARK                            x       y       z     vdW  Elec       q    Type
REMARK                         _______ _______ _______ _____ _____    ______ ____
ROOT
ATOM      1  C   UNL     1       3.772   3.126  17.630  0.00  0.00    +0.000 C 
ENDROOT
BRANCH   1   2
ATOM      2  C   UNL     1       5.057   3.937  17.662  0.00  0.00    +0.000 A 
ATOM      3  C   UNL     1       5.585   4.353  18.901  0.00  0.00    +0.000 A 
ATOM      4  C   UNL     1       6.768   5.097  18.967  0.00  0.00    +0.000 A 
ATOM      5  C   UNL     1       7.433   5.444  17.791  0.00  0.00    +0.000 A 
ATOM      6  C   UNL     1       6.923   5.045  16.548  0.00  0.00    +0.000 A 
ATOM      7  C   UNL     1       5.741   4.290  16.477  0.00  0.00    +0.000 A 
ATOM      8  O   UNL     1       5.264   3.909  15.267  0.00  0.00    +0.000 OA
ATOM      9  C   UNL     1       5.839   4.202  14.037  0.00  0.00    +0.000 C 
ATOM     10  C   UNL     1       7.104   5.023  14.144  0.00  0.00    +0.000 C 
ATOM     11  O   UNL     1       7.693   5.345  13.123  0.00  0.00    +0.000 OA
ATOM     12  N   UNL     1       7.591   5.404  15.351  0.00  0.00    +0.000 N 
ATOM     13  H   UNL     1       8.456   5.965  15.396  0.00  0.00    +0.000 HD
BRANCH   4  14
ATOM     14  O   UNL     1       7.273   5.482  20.156  0.00  0.00    +0.000 OA
ATOM     15  H   UNL     1       7.188   4.936  20.951  0.00  0.00    +0.000 HD
ENDBRANCH   4  14
ENDBRANCH   1   2
BRANCH   1  16
ATOM     16  O   UNL     1       2.694   3.948  17.248  0.00  0.00    +0.000 OA
ATOM     17  H   UNL     1       3.012   4.570  16.543  0.00  0.00    +0.000 HD
ENDBRANCH   1  16
BRANCH   1  18
ATOM     18  C   UNL     1       3.511   2.444  18.990  0.00  0.00    +0.000 C 
BRANCH  18  19
ATOM     19  N   UNL     1       2.165   2.756  19.485  0.00  0.00    +0.000 NA
ATOM     20  H   UNL     1       1.660   3.313  18.756  0.00  0.00    +0.000 HD
BRANCH  19  21
ATOM     21  C   UNL     1       2.256   3.578  20.697  0.00  0.00    +0.000 C 
BRANCH  21  22
ATOM     22  C   UNL     1       1.657   4.963  20.446  0.00  0.00    +0.000 C 
BRANCH  22  23
ATOM     23  C   UNL     1       2.761   5.975  20.113  0.00  0.00    +0.000 C 
BRANCH  23  28
ATOM     24  C   UNL     1       0.960   9.354  20.061  0.00  0.00    +0.000 A 
ATOM     25  C   UNL     1       1.132   9.718  18.710  0.00  0.00    +0.000 A 
ATOM     26  C   UNL     1       1.828   8.880  17.838  0.00  0.00    +0.000 A 
ATOM     27  C   UNL     1       2.358   7.674  18.296  0.00  0.00    +0.000 A 
ATOM     28  C   UNL     1       2.192   7.288  19.635  0.00  0.00    +0.000 A 
ATOM     29  C   UNL     1       1.487   8.136  20.511  0.00  0.00    +0.000 A 
BRANCH  24  31
ATOM     30  C   UNL     1       0.037   9.824  22.266  0.00  0.00    +0.000 C 
ATOM     31  O   UNL     1       0.308  10.147  20.951  0.00  0.00    +0.000 OA
ENDBRANCH  24  31
ENDBRANCH  23  28
ENDBRANCH  22  23
ENDBRANCH  21  22
ENDBRANCH  19  21
ENDBRANCH  18  19
ENDBRANCH   1  18
TORSDOF 10
ENDMDL
MODEL 2
REMARK VINA RESULT:      -7.5      1.158      1.773
REMARK  Name = 
REMARK  11 active torsions:
REMARK  status: ('A' for Active; 'I' for Inactive)
REMARK    1  A    between atoms: C_1  and  O_2
REMARK    2  A    between atoms: O_2  and  C_3
REMARK    3  A    between atoms: C_7  and  C_8
REMARK    4  A    between atoms: C_8  and  C_9
REMARK    5  A    between atoms: C_9  and  C_10
REMARK    6  A    between atoms: C_10  and  N_11
REMARK    7  A    between atoms: N_11  and  C_12
REMARK    8  A    between atoms: C_12  and  C_13
REMARK    9  A    between atoms: C_13  and  O_14
REMARK   10  A    between atoms: C_13  and  C_15
REMARK   11  A    between atoms: C_17  and  O_18
REMARK                            x       y       z     vdW  Elec       q    Type
REMARK                         _______ _______ _______ _____ _____    ______ ____
ROOT
ATOM      1  C   UNL     1       3.934   3.372  18.177  0.00  0.00    +0.000 C 
ENDROOT
BRANCH   1   2
ATOM      2  C   UNL     1       5.212   4.187  18.060  0.00  0.00    +0.000 A 
ATOM      3  C   UNL     1       5.818   4.700  19.225  0.00  0.00    +0.000 A 
ATOM      4  C   UNL     1       6.996   5.450  19.154  0.00  0.00    +0.000 A 
ATOM      5  C   UNL     1       7.578   5.707  17.913  0.00  0.00    +0.000 A 
ATOM      6  C   UNL     1       6.990   5.213  16.741  0.00  0.00    +0.000 A 
ATOM      7  C   UNL     1       5.812   4.450  16.808  0.00  0.00    +0.000 A 
ATOM      8  O   UNL     1       5.258   3.975  15.666  0.00  0.00    +0.000 OA
ATOM      9  C   UNL     1       5.748   4.174  14.381  0.00  0.00    +0.000 C 
ATOM     10  C   UNL     1       7.010   5.006  14.339  0.00  0.00    +0.000 C 
ATOM     11  O   UNL     1       7.527   5.250  13.260  0.00  0.00    +0.000 OA
ATOM     12  N   UNL     1       7.573   5.480  15.478  0.00  0.00    +0.000 N 
ATOM     13  H   UNL     1       8.435   6.046  15.422  0.00  0.00    +0.000 HD
BRANCH   4  14
ATOM     14  O   UNL     1       7.576   5.928  20.274  0.00  0.00    +0.000 OA
ATOM     15  H   UNL     1       7.261   6.731  20.712  0.00  0.00    +0.000 HD
ENDBRANCH   4  14
ENDBRANCH   1   2
BRANCH   1  16
ATOM     16  O   UNL     1       4.118   2.105  17.592  0.00  0.00    +0.000 OA
ATOM     17  H   UNL     1       3.232   1.662  17.522  0.00  0.00    +0.000 HD
ENDBRANCH   1  16
BRANCH   1  18
ATOM     18  C   UNL     1       2.738   4.119  17.550  0.00  0.00    +0.000 C 
BRANCH  18  19
ATOM     19  N   UNL     1       1.634   4.242  18.509  0.00  0.00    +0.000 NA
ATOM     20  H   UNL     1       1.146   5.154  18.344  0.00  0.00    +0.000 HD
BRANCH  19  21
ATOM     21  C   UNL     1       2.159   4.252  19.878  0.00  0.00    +0.000 C 
BRANCH  21  22
ATOM     22  C   UNL     1       1.815   5.574  20.568  0.00  0.00    +0.000 C 
BRANCH  22  23
ATOM     23  C   UNL     1       2.337   6.761  19.748  0.00  0.00    +0.000 C 
BRANCH  23  28
ATOM     24  C   UNL     1       0.846  10.284  19.564  0.00  0.00    +0.000 A 
ATOM     25  C   UNL     1       0.405  10.448  20.893  0.00  0.00    +0.000 A 
ATOM     26  C   UNL     1       0.585   9.426  21.826  0.00  0.00    +0.000 A 
ATOM     27  C   UNL     1       1.204   8.234  21.451  0.00  0.00    +0.000 A 
ATOM     28  C   UNL     1       1.658   8.051  20.135  0.00  0.00    +0.000 A 
ATOM     29  C   UNL     1       1.475   9.086  19.197  0.00  0.00    +0.000 A 
BRANCH  24  31
ATOM     30  C   UNL     1      -0.172  12.329  18.717  0.00  0.00    +0.000 C 
ATOM     31  O   UNL     1       0.674  11.242  18.616  0.00  0.00    +0.000 OA
ENDBRANCH  24  31
ENDBRANCH  23  28
ENDBRANCH  22  23
ENDBRANCH  21  22
ENDBRANCH  19  21
ENDBRANCH  18  19
ENDBRANCH   1  18
TORSDOF 10
ENDMDL
MODEL 3
REMARK VINA RESULT:      -7.3      2.098      2.913
REMARK  Name = 
REMARK  11 active torsions:
REMARK  status: ('A' for Active; 'I' for Inactive)
REMARK    1  A    between atoms: C_1  and  O_2
REMARK    2  A    between atoms: O_2  and  C_3
REMARK    3  A    between atoms: C_7  and  C_8
REMARK    4  A    between atoms: C_8  and  C_9
REMARK    5  A    between atoms: C_9  and  C_10
REMARK    6  A    between atoms: C_10  and  N_11
REMARK    7  A    between atoms: N_11  and  C_12
REMARK    8  A    between atoms: C_12  and  C_13
REMARK    9  A    between atoms: C_13  and  O_14
REMARK   10  A    between atoms: C_13  and  C_15
REMARK   11  A    between atoms: C_17  and  O_18
REMARK                            x       y       z     vdW  Elec       q    Type
REMARK                         _______ _______ _______ _____ _____    ______ ____
ROOT
ATOM      1  C   UNL     1       3.700   3.738  18.284  0.00  0.00    +0.000 C 
ENDROOT
BRANCH   1   2
ATOM      2  C   UNL     1       5.082   4.362  18.166  0.00  0.00    +0.000 A 
ATOM      3  C   UNL     1       5.770   4.749  19.334  0.00  0.00    +0.000 A 
ATOM      4  C   UNL     1       7.044   5.322  19.263  0.00  0.00    +0.000 A 
ATOM      5  C   UNL     1       7.642   5.525  18.019  0.00  0.00    +0.000 A 
ATOM      6  C   UNL     1       6.973   5.153  16.845  0.00  0.00    +0.000 A 
ATOM      7  C   UNL     1       5.698   4.569  16.912  0.00  0.00    +0.000 A 
ATOM      8  O   UNL     1       5.067   4.210  15.767  0.00  0.00    +0.000 OA
ATOM      9  C   UNL     1       5.564   4.371  14.480  0.00  0.00    +0.000 C 
ATOM     10  C   UNL     1       6.933   5.011  14.438  0.00  0.00    +0.000 C 
ATOM     11  O   UNL     1       7.467   5.206  13.357  0.00  0.00    +0.000 OA
ATOM     12  N   UNL     1       7.574   5.367  15.579  0.00  0.00    +0.000 N 
ATOM     13  H   UNL     1       8.508   5.803  15.523  0.00  0.00    +0.000 HD
BRANCH   4  14
ATOM     14  O   UNL     1       7.702   5.680  20.384  0.00  0.00    +0.000 OA
ATOM     15  H   UNL     1       7.235   5.915  21.199  0.00  0.00    +0.000 HD
ENDBRANCH   4  14
ENDBRANCH   1   2
BRANCH   1  16
ATOM     16  O   UNL     1       3.651   2.538  17.550  0.00  0.00    +0.000 OA
ATOM     17  H   UNL     1       4.279   2.615  16.785  0.00  0.00    +0.000 HD
ENDBRANCH   1  16
BRANCH   1  18
ATOM     18  C   UNL     1       2.603   4.726  17.832  0.00  0.00    +0.000 C 
BRANCH  18  19
ATOM     19  N   UNL     1       2.480   5.842  18.777  0.00  0.00    +0.000 NA
ATOM     20  H   UNL     1       1.517   5.828  19.189  0.00  0.00    +0.000 HD
BRANCH  19  21
ATOM     21  C   UNL     1       2.649   7.117  18.071  0.00  0.00    +0.000 C 
BRANCH  21  22
ATOM     22  C   UNL     1       1.992   8.252  18.860  0.00  0.00    +0.000 C 
BRANCH  22  23
ATOM     23  C   UNL     1       1.613   9.407  17.925  0.00  0.00    +0.000 C 
BRANCH  23  28
ATOM     24  C   UNL     1      -1.988  10.682  18.196  0.00  0.00    +0.000 A 
ATOM     25  C   UNL     1      -1.881  11.524  19.321  0.00  0.00    +0.000 A 
ATOM     26  C   UNL     1      -0.659  11.665  19.981  0.00  0.00    +0.000 A 
ATOM     27  C   UNL     1       0.465  10.976  19.531  0.00  0.00    +0.000 A 
ATOM     28  C   UNL     1       0.384  10.137  18.408  0.00  0.00    +0.000 A 
ATOM     29  C   UNL     1      -0.851   9.999  17.744  0.00  0.00    +0.000 A 
BRANCH  24  31
ATOM     30  C   UNL     1      -4.395  10.963  17.941  0.00  0.00    +0.000 C 
ATOM     31  O   UNL     1      -3.161  10.497  17.534  0.00  0.00    +0.000 OA
ENDBRANCH  24  31
ENDBRANCH  23  28
ENDBRANCH  22  23
ENDBRANCH  21  22
ENDBRANCH  19  21
ENDBRANCH  18  19
ENDBRANCH   1  18
TORSDOF 10
ENDMDL
MODEL 4
REMARK VINA RESULT:      -7.1      4.700      7.344
REMARK  Name = 
REMARK  11 active torsions:
REMARK  status: ('A' for Active; 'I' for Inactive)
REMARK    1  A    between atoms: C_1  and  O_2
REMARK    2  A    between atoms: O_2  and  C_3
REMARK    3  A    between atoms: C_7  and  C_8
REMARK    4  A    between atoms: C_8  and  C_9
REMARK    5  A    between atoms: C_9  and  C_10
REMARK    6  A    between atoms: C_10  and  N_11
REMARK    7  A    between atoms: N_11  and  C_12
REMARK    8  A    between atoms: C_12  and  C_13
REMARK    9  A    between atoms: C_13  and  O_14
REMARK   10  A    between atoms: C_13  and  C_15
REMARK   11  A    between atoms: C_17  and  O_18
REMARK                            x       y       z     vdW  Elec       q    Type
REMARK                         _______ _______ _______ _____ _____    ______ ____
ROOT
ATOM      1  C   UNL     1       4.680   5.734  16.832  0.00  0.00    +0.000 C 
ENDROOT
BRANCH   1   2
ATOM      2  C   UNL     1       3.715   6.171  17.922  0.00  0.00    +0.000 A 
ATOM      3  C   UNL     1       3.133   7.454  17.860  0.00  0.00    +0.000 A 
ATOM      4  C   UNL     1       2.238   7.886  18.844  0.00  0.00    +0.000 A 
ATOM      5  C   UNL     1       1.922   7.044  19.910  0.00  0.00    +0.000 A 
ATOM      6  C   UNL     1       2.493   5.767  19.994  0.00  0.00    +0.000 A 
ATOM      7  C   UNL     1       3.385   5.324  19.003  0.00  0.00    +0.000 A 
ATOM      8  O   UNL     1       3.925   4.085  19.097  0.00  0.00    +0.000 OA
ATOM      9  C   UNL     1       3.686   3.168  20.113  0.00  0.00    +0.000 C 
ATOM     10  C   UNL     1       2.731   3.676  21.170  0.00  0.00    +0.000 C 
ATOM     11  O   UNL     1       2.451   2.955  22.116  0.00  0.00    +0.000 OA
ATOM     12  N   UNL     1       2.181   4.912  21.080  0.00  0.00    +0.000 N 
ATOM     13  H   UNL     1       1.532   5.235  21.815  0.00  0.00    +0.000 HD
BRANCH   4  14
ATOM     14  O   UNL     1       1.677   9.110  18.773  0.00  0.00    +0.000 OA
ATOM     15  H   UNL     1       0.968   9.385  19.373  0.00  0.00    +0.000 HD
ENDBRANCH   4  14
ENDBRANCH   1   2
BRANCH   1  16
ATOM     16  O   UNL     1       4.435   4.392  16.483  0.00  0.00    +0.000 OA
ATOM     17  H   UNL     1       5.184   3.839  16.827  0.00  0.00    +0.000 HD
ENDBRANCH   1  16
BRANCH   1  18
ATOM     18  C   UNL     1       6.146   5.949  17.267  0.00  0.00    +0.000 C 
BRANCH  18  19
ATOM     19  N   UNL     1       6.598   7.305  16.935  0.00  0.00    +0.000 NA
ATOM     20  H   UNL     1       6.970   7.305  15.956  0.00  0.00    +0.000 HD
BRANCH  19  21
ATOM     21  C   UNL     1       7.689   7.702  17.832  0.00  0.00    +0.000 C 
BRANCH  21  22
ATOM     22  C   UNL     1       8.105   9.148  17.555  0.00  0.00    +0.000 C 
BRANCH  22  23
ATOM     23  C   UNL     1       9.002   9.675  18.682  0.00  0.00    +0.000 C 
BRANCH  23  28
ATOM     24  C   UNL     1       9.226  13.426  17.943  0.00  0.00    +0.000 A 
ATOM     25  C   UNL     1      10.616  13.571  17.756  0.00  0.00    +0.000 A 
ATOM     26  C   UNL     1      11.461  12.467  17.877  0.00  0.00    +0.000 A 
ATOM     27  C   UNL     1      10.937  11.211  18.181  0.00  0.00    +0.000 A 
ATOM     28  C   UNL     1       9.556  11.043  18.364  0.00  0.00    +0.000 A 
ATOM     29  C   UNL     1       8.706  12.159  18.240  0.00  0.00    +0.000 A 
BRANCH  24  31
ATOM     30  C   UNL     1       7.231  14.649  18.621  0.00  0.00    +0.000 C 
ATOM     31  O   UNL     1       8.367  14.475  17.856  0.00  0.00    +0.000 OA
ENDBRANCH  24  31
ENDBRANCH  23  28
ENDBRANCH  22  23
ENDBRANCH  21  22
ENDBRANCH  19  21
ENDBRANCH  18  19
ENDBRANCH   1  18
TORSDOF 10
ENDMDL
MODEL 5
REMARK VINA RESULT:      -7.1      4.506      6.867
REMARK  Name = 
REMARK  11 active torsions:
REMARK  status: ('A' for Active; 'I' for Inactive)
REMARK    1  A    between atoms: C_1  and  O_2
REMARK    2  A    between atoms: O_2  and  C_3
REMARK    3  A    between atoms: C_7  and  C_8
REMARK    4  A    between atoms: C_8  and  C_9
REMARK    5  A    between atoms: C_9  and  C_10
REMARK    6  A    between atoms: C_10  and  N_11
REMARK    7  A    between atoms: N_11  and  C_12
REMARK    8  A    between atoms: C_12  and  C_13
REMARK    9  A    between atoms: C_13  and  O_14
REMARK   10  A    between atoms: C_13  and  C_15
REMARK   11  A    between atoms: C_17  and  O_18
REMARK                            x       y       z     vdW  Elec       q    Type
REMARK                         _______ _______ _______ _____ _____    ______ ____
ROOT
ATOM      1  C   UNL     1       5.405   5.580  15.936  0.00  0.00    +0.000 C 
ENDROOT
BRANCH   1   2
ATOM      2  C   UNL     1       4.833   5.221  17.297  0.00  0.00    +0.000 A 
ATOM      3  C   UNL     1       5.185   3.994  17.897  0.00  0.00    +0.000 A 
ATOM      4  C   UNL     1       4.681   3.634  19.151  0.00  0.00    +0.000 A 
ATOM      5  C   UNL     1       3.806   4.493  19.817  0.00  0.00    +0.000 A 
ATOM      6  C   UNL     1       3.439   5.715  19.237  0.00  0.00    +0.000 A 
ATOM      7  C   UNL     1       3.951   6.085  17.983  0.00  0.00    +0.000 A 
ATOM      8  O   UNL     1       3.588   7.272  17.438  0.00  0.00    +0.000 OA
ATOM      9  C   UNL     1       2.725   8.199  18.008  0.00  0.00    +0.000 C 
ATOM     10  C   UNL     1       2.182   7.769  19.352  0.00  0.00    +0.000 C 
ATOM     11  O   UNL     1       1.407   8.505  19.945  0.00  0.00    +0.000 OA
ATOM     12  N   UNL     1       2.544   6.586  19.907  0.00  0.00    +0.000 N 
ATOM     13  H   UNL     1       2.159   6.316  20.826  0.00  0.00    +0.000 HD
BRANCH   4  14
ATOM     14  O   UNL     1       5.030   2.464  19.723  0.00  0.00    +0.000 OA
ATOM     15  H   UNL     1       5.125   1.650  19.208  0.00  0.00    +0.000 HD
ENDBRANCH   4  14
ENDBRANCH   1   2
BRANCH   1  16
ATOM     16  O   UNL     1       5.193   4.522  15.031  0.00  0.00    +0.000 OA
ATOM     17  H   UNL     1       4.264   4.194  15.148  0.00  0.00    +0.000 HD
ENDBRANCH   1  16
BRANCH   1  18
ATOM     18  C   UNL     1       6.901   5.946  16.040  0.00  0.00    +0.000 C 
BRANCH  18  19
ATOM     19  N   UNL     1       7.091   7.154  16.851  0.00  0.00    +0.000 NA
ATOM     20  H   UNL     1       7.765   7.787  16.358  0.00  0.00    +0.000 HD
BRANCH  19  21
ATOM     21  C   UNL     1       7.674   6.800  18.149  0.00  0.00    +0.000 C 
BRANCH  21  22
ATOM     22  C   UNL     1       8.449   7.986  18.726  0.00  0.00    +0.000 C 
BRANCH  22  23
ATOM     23  C   UNL     1       8.311   9.213  17.814  0.00  0.00    +0.000 C 
BRANCH  23  28
ATOM     24  C   UNL     1       9.339  12.853  18.413  0.00  0.00    +0.000 A 
ATOM     25  C   UNL     1      10.000  12.735  19.652  0.00  0.00    +0.000 A 
ATOM     26  C   UNL     1      10.100  11.493  20.281  0.00  0.00    +0.000 A 
ATOM     27  C   UNL     1       9.549  10.359  19.687  0.00  0.00    +0.000 A 
ATOM     28  C   UNL     1       8.892  10.451  18.450  0.00  0.00    +0.000 A 
ATOM     29  C   UNL     1       8.795  11.706  17.818  0.00  0.00    +0.000 A 
BRANCH  24  31
ATOM     30  C   UNL     1       9.396  15.287  18.338  0.00  0.00    +0.000 C 
ATOM     31  O   UNL     1       9.198  14.044  17.773  0.00  0.00    +0.000 OA
ENDBRANCH  24  31
ENDBRANCH  23  28
ENDBRANCH  22  23
ENDBRANCH  21  22
ENDBRANCH  19  21
ENDBRANCH  18  19
ENDBRANCH   1  18
TORSDOF 10
ENDMDL
MODEL 6
REMARK VINA RESULT:      -7.1      1.508      2.946
REMARK  Name = 
REMARK  11 active torsions:
REMARK  status: ('A' for Active; 'I' for Inactive)
REMARK    1  A    between atoms: C_1  and  O_2
REMARK    2  A    between atoms: O_2  and  C_3
REMARK    3  A    between atoms: C_7  and  C_8
REMARK    4  A    between atoms: C_8  and  C_9
REMARK    5  A    between atoms: C_9  and  C_10
REMARK    6  A    between atoms: C_10  and  N_11
REMARK    7  A    between atoms: N_11  and  C_12
REMARK    8  A    between atoms: C_12  and  C_13
REMARK    9  A    between atoms: C_13  and  O_14
REMARK   10  A    between atoms: C_13  and  C_15
REMARK   11  A    between atoms: C_17  and  O_18
REMARK                            x       y       z     vdW  Elec       q    Type
REMARK                         _______ _______ _______ _____ _____    ______ ____
ROOT
ATOM      1  C   UNL     1       4.266   2.999  18.946  0.00  0.00    +0.000 C 
ENDROOT
BRANCH   1   2
ATOM      2  C   UNL     1       4.951   3.782  17.838  0.00  0.00    +0.000 A 
ATOM      3  C   UNL     1       4.594   3.542  16.495  0.00  0.00    +0.000 A 
ATOM      4  C   UNL     1       5.200   4.247  15.451  0.00  0.00    +0.000 A 
ATOM      5  C   UNL     1       6.182   5.196  15.736  0.00  0.00    +0.000 A 
ATOM      6  C   UNL     1       6.557   5.447  17.063  0.00  0.00    +0.000 A 
ATOM      7  C   UNL     1       5.943   4.749  18.115  0.00  0.00    +0.000 A 
ATOM      8  O   UNL     1       6.314   5.006  19.394  0.00  0.00    +0.000 OA
ATOM      9  C   UNL     1       7.280   5.922  19.791  0.00  0.00    +0.000 C 
ATOM     10  C   UNL     1       7.930   6.652  18.637  0.00  0.00    +0.000 C 
ATOM     11  O   UNL     1       8.799   7.478  18.868  0.00  0.00    +0.000 OA
ATOM     12  N   UNL     1       7.560   6.404  17.356  0.00  0.00    +0.000 N 
ATOM     13  H   UNL     1       8.020   6.916  16.586  0.00  0.00    +0.000 HD
BRANCH   4  14
ATOM     14  O   UNL     1       4.846   4.020  14.170  0.00  0.00    +0.000 OA
ATOM     15  H   UNL     1       5.499   3.983  13.456  0.00  0.00    +0.000 HD
ENDBRANCH   4  14
ENDBRANCH   1   2
BRANCH   1  16
ATOM     16  O   UNL     1       5.189   2.134  19.563  0.00  0.00    +0.000 OA
ATOM     17  H   UNL     1       6.096   2.351  19.224  0.00  0.00    +0.000 HD
ENDBRANCH   1  16
BRANCH   1  18
ATOM     18  C   UNL     1       3.039   2.232  18.409  0.00  0.00    +0.000 C 
BRANCH  18  19
ATOM     19  N   UNL     1       1.807   3.002  18.615  0.00  0.00    +0.000 NA
ATOM     20  H   UNL     1       1.990   4.003  18.365  0.00  0.00    +0.000 HD
BRANCH  19  21
ATOM     21  C   UNL     1       1.418   2.955  20.029  0.00  0.00    +0.000 C 
BRANCH  21  22
ATOM     22  C   UNL     1       1.171   4.369  20.558  0.00  0.00    +0.000 C 
BRANCH  22  23
ATOM     23  C   UNL     1       2.452   5.208  20.471  0.00  0.00    +0.000 C 
BRANCH  23  28
ATOM     24  C   UNL     1       1.395   8.835  19.839  0.00  0.00    +0.000 A 
ATOM     25  C   UNL     1       1.758   8.977  18.484  0.00  0.00    +0.000 A 
ATOM     26  C   UNL     1       2.342   7.913  17.796  0.00  0.00    +0.000 A 
ATOM     27  C   UNL     1       2.569   6.699  18.442  0.00  0.00    +0.000 A 
ATOM     28  C   UNL     1       2.210   6.532  19.789  0.00  0.00    +0.000 A 
ATOM     29  C   UNL     1       1.619   7.608  20.479  0.00  0.00    +0.000 A 
BRANCH  24  31
ATOM     30  C   UNL     1       0.901  11.188  20.228  0.00  0.00    +0.000 C 
ATOM     31  O   UNL     1       0.843   9.849  20.555  0.00  0.00    +0.000 OA
ENDBRANCH  24  31
ENDBRANCH  23  28
ENDBRANCH  22  23
ENDBRANCH  21  22
ENDBRANCH  19  21
ENDBRANCH  18  19
ENDBRANCH   1  18
TORSDOF 10
ENDMDL
MODEL 7
REMARK VINA RESULT:      -7.1      1.245      1.999
REMARK  Name = 
REMARK  11 active torsions:
REMARK  status: ('A' for Active; 'I' for Inactive)
REMARK    1  A    between atoms: C_1  and  O_2
REMARK    2  A    between atoms: O_2  and  C_3
REMARK    3  A    between atoms: C_7  and  C_8
REMARK    4  A    between atoms: C_8  and  C_9
REMARK    5  A    between atoms: C_9  and  C_10
REMARK    6  A    between atoms: C_10  and  N_11
REMARK    7  A    between atoms: N_11  and  C_12
REMARK    8  A    between atoms: C_12  and  C_13
REMARK    9  A    between atoms: C_13  and  O_14
REMARK   10  A    between atoms: C_13  and  C_15
REMARK   11  A    between atoms: C_17  and  O_18
REMARK                            x       y       z     vdW  Elec       q    Type
REMARK                         _______ _______ _______ _____ _____    ______ ____
ROOT
ATOM      1  C   UNL     1       3.682   3.887  18.380  0.00  0.00    +0.000 C 
ENDROOT
BRANCH   1   2
ATOM      2  C   UNL     1       5.084   4.456  18.237  0.00  0.00    +0.000 A 
ATOM      3  C   UNL     1       5.806   4.823  19.391  0.00  0.00    +0.000 A 
ATOM      4  C   UNL     1       7.100   5.346  19.296  0.00  0.00    +0.000 A 
ATOM      5  C   UNL     1       7.684   5.519  18.041  0.00  0.00    +0.000 A 
ATOM      6  C   UNL     1       6.983   5.166  16.880  0.00  0.00    +0.000 A 
ATOM      7  C   UNL     1       5.688   4.632  16.972  0.00  0.00    +0.000 A 
ATOM      8  O   UNL     1       5.024   4.292  15.839  0.00  0.00    +0.000 OA
ATOM      9  C   UNL     1       5.506   4.425  14.544  0.00  0.00    +0.000 C 
ATOM     10  C   UNL     1       6.898   5.012  14.476  0.00  0.00    +0.000 C 
ATOM     11  O   UNL     1       7.422   5.180  13.385  0.00  0.00    +0.000 OA
ATOM     12  N   UNL     1       7.571   5.349  15.604  0.00  0.00    +0.000 N 
ATOM     13  H   UNL     1       8.520   5.748  15.530  0.00  0.00    +0.000 HD
BRANCH   4  14
ATOM     14  O   UNL     1       7.789   5.684  20.404  0.00  0.00    +0.000 OA
ATOM     15  H   UNL     1       7.398   6.226  21.105  0.00  0.00    +0.000 HD
ENDBRANCH   4  14
ENDBRANCH   1   2
BRANCH   1  16
ATOM     16  O   UNL     1       2.944   4.126  17.205  0.00  0.00    +0.000 OA
ATOM     17  H   UNL     1       3.583   4.298  16.466  0.00  0.00    +0.000 HD
ENDBRANCH   1  16
BRANCH   1  18
ATOM     18  C   UNL     1       2.972   4.464  19.624  0.00  0.00    +0.000 C 
BRANCH  18  19
ATOM     19  N   UNL     1       1.974   5.470  19.239  0.00  0.00    +0.000 NA
ATOM     20  H   UNL     1       1.658   5.272  18.261  0.00  0.00    +0.000 HD
BRANCH  19  21
ATOM     21  C   UNL     1       2.579   6.806  19.256  0.00  0.00    +0.000 C 
BRANCH  21  22
ATOM     22  C   UNL     1       2.294   7.533  17.940  0.00  0.00    +0.000 C 
BRANCH  22  23
ATOM     23  C   UNL     1       2.395   9.052  18.131  0.00  0.00    +0.000 C 
BRANCH  23  28
ATOM     24  C   UNL     1      -0.186  10.603  20.498  0.00  0.00    +0.000 A 
ATOM     25  C   UNL     1      -1.299  10.701  19.638  0.00  0.00    +0.000 A 
ATOM     26  C   UNL     1      -1.204  10.277  18.312  0.00  0.00    +0.000 A 
ATOM     27  C   UNL     1      -0.008   9.750  17.828  0.00  0.00    +0.000 A 
ATOM     28  C   UNL     1       1.111   9.635  18.667  0.00  0.00    +0.000 A 
ATOM     29  C   UNL     1       1.010  10.063  20.005  0.00  0.00    +0.000 A 
BRANCH  24  31
ATOM     30  C   UNL     1      -1.230  11.777  22.360  0.00  0.00    +0.000 C 
ATOM     31  O   UNL     1      -0.225  11.022  21.790  0.00  0.00    +0.000 OA
ENDBRANCH  24  31
ENDBRANCH  23  28
ENDBRANCH  22  23
ENDBRANCH  21  22
ENDBRANCH  19  21
ENDBRANCH  18  19
ENDBRANCH   1  18
TORSDOF 10
ENDMDL
MODEL 8
REMARK VINA RESULT:      -7.0      3.762      5.316
REMARK  Name = 
REMARK  11 active torsions:
REMARK  status: ('A' for Active; 'I' for Inactive)
REMARK    1  A    between atoms: C_1  and  O_2
REMARK    2  A    between atoms: O_2  and  C_3
REMARK    3  A    between atoms: C_7  and  C_8
REMARK    4  A    between atoms: C_8  and  C_9
REMARK    5  A    between atoms: C_9  and  C_10
REMARK    6  A    between atoms: C_10  and  N_11
REMARK    7  A    between atoms: N_11  and  C_12
REMARK    8  A    between atoms: C_12  and  C_13
REMARK    9  A    between atoms: C_13  and  O_14
REMARK   10  A    between atoms: C_13  and  C_15
REMARK   11  A    between atoms: C_17  and  O_18
REMARK                            x       y       z     vdW  Elec       q    Type
REMARK                         _______ _______ _______ _____ _____    ______ ____
ROOT
ATOM      1  C   UNL     1       2.792   7.295  18.802  0.00  0.00    +0.000 C 
ENDROOT
BRANCH   1   2
ATOM      2  C   UNL     1       3.061   5.881  18.313  0.00  0.00    +0.000 A 
ATOM      3  C   UNL     1       2.029   4.922  18.359  0.00  0.00    +0.000 A 
ATOM      4  C   UNL     1       2.241   3.613  17.913  0.00  0.00    +0.000 A 
ATOM      5  C   UNL     1       3.494   3.244  17.426  0.00  0.00    +0.000 A 
ATOM      6  C   UNL     1       4.536   4.179  17.376  0.00  0.00    +0.000 A 
ATOM      7  C   UNL     1       4.326   5.497  17.813  0.00  0.00    +0.000 A 
ATOM      8  O   UNL     1       5.343   6.390  17.755  0.00  0.00    +0.000 OA
ATOM      9  C   UNL     1       6.627   6.131  17.294  0.00  0.00    +0.000 C 
ATOM     10  C   UNL     1       6.828   4.703  16.840  0.00  0.00    +0.000 C 
ATOM     11  O   UNL     1       7.922   4.359  16.420  0.00  0.00    +0.000 OA
ATOM     12  N   UNL     1       5.814   3.804  16.890  0.00  0.00    +0.000 N 
ATOM     13  H   UNL     1       5.977   2.835  16.574  0.00  0.00    +0.000 HD
BRANCH   4  14
ATOM     14  O   UNL     1       1.246   2.704  17.950  0.00  0.00    +0.000 OA
ATOM     15  H   UNL     1       1.398   1.788  18.223  0.00  0.00    +0.000 HD
ENDBRANCH   4  14
ENDBRANCH   1   2
BRANCH   1  16
ATOM     16  O   UNL     1       2.298   7.262  20.120  0.00  0.00    +0.000 OA
ATOM     17  H   UNL     1       2.938   6.751  20.680  0.00  0.00    +0.000 HD
ENDBRANCH   1  16
BRANCH   1  18
ATOM     18  C   UNL     1       1.828   8.038  17.852  0.00  0.00    +0.000 C 
BRANCH  18  19
ATOM     19  N   UNL     1       2.229   9.440  17.687  0.00  0.00    +0.000 NA
ATOM     20  H   UNL     1       3.212   9.550  18.032  0.00  0.00    +0.000 HD
BRANCH  19  21
ATOM     21  C   UNL     1       1.367  10.306  18.499  0.00  0.00    +0.000 C 
BRANCH  21  22
ATOM     22  C   UNL     1      -0.102  10.090  18.128  0.00  0.00    +0.000 C 
BRANCH  22  23
ATOM     23  C   UNL     1      -0.985  11.158  18.785  0.00  0.00    +0.000 C 
BRANCH  23  28
ATOM     24  C   UNL     1      -4.704  11.833  18.165  0.00  0.00    +0.000 A 
ATOM     25  C   UNL     1      -4.811  11.461  16.809  0.00  0.00    +0.000 A 
ATOM     26  C   UNL     1      -3.691  11.007  16.113  0.00  0.00    +0.000 A 
ATOM     27  C   UNL     1      -2.456  10.916  16.753  0.00  0.00    +0.000 A 
ATOM     28  C   UNL     1      -2.326  11.274  18.104  0.00  0.00    +0.000 A 
ATOM     29  C   UNL     1      -3.460  11.730  18.804  0.00  0.00    +0.000 A 
BRANCH  24  31
ATOM     30  C   UNL     1      -6.241  11.757  20.053  0.00  0.00    +0.000 C 
ATOM     31  O   UNL     1      -5.762  12.300  18.878  0.00  0.00    +0.000 OA
ENDBRANCH  24  31
ENDBRANCH  23  28
ENDBRANCH  22  23
ENDBRANCH  21  22
ENDBRANCH  19  21
ENDBRANCH  18  19
ENDBRANCH   1  18
TORSDOF 10
ENDMDL
MODEL 9
REMARK VINA RESULT:      -7.0      3.685      5.105
REMARK  Name = 
REMARK  11 active torsions:
REMARK  status: ('A' for Active; 'I' for Inactive)
REMARK    1  A    between atoms: C_1  and  O_2
REMARK    2  A    between atoms: O_2  and  C_3
REMARK    3  A    between atoms: C_7  and  C_8
REMARK    4  A    between atoms: C_8  and  C_9
REMARK    5  A    between atoms: C_9  and  C_10
REMARK    6  A    between atoms: C_10  and  N_11
REMARK    7  A    between atoms: N_11  and  C_12
REMARK    8  A    between atoms: C_12  and  C_13
REMARK    9  A    between atoms: C_13  and  O_14
REMARK   10  A    between atoms: C_13  and  C_15
REMARK   11  A    between atoms: C_17  and  O_18
REMARK                            x       y       z     vdW  Elec       q    Type
REMARK                         _______ _______ _______ _____ _____    ______ ____
ROOT
ATOM      1  C   UNL     1       2.263   6.982  18.251  0.00  0.00    +0.000 C 
ENDROOT
BRANCH   1   2
ATOM      2  C   UNL     1       2.763   5.565  18.019  0.00  0.00    +0.000 A 
ATOM      3  C   UNL     1       1.859   4.487  18.113  0.00  0.00    +0.000 A 
ATOM      4  C   UNL     1       2.284   3.171  17.901  0.00  0.00    +0.000 A 
ATOM      5  C   UNL     1       3.623   2.916  17.604  0.00  0.00    +0.000 A 
ATOM      6  C   UNL     1       4.539   3.972  17.512  0.00  0.00    +0.000 A 
ATOM      7  C   UNL     1       4.115   5.296  17.713  0.00  0.00    +0.000 A 
ATOM      8  O   UNL     1       5.013   6.307  17.616  0.00  0.00    +0.000 OA
ATOM      9  C   UNL     1       6.366   6.168  17.331  0.00  0.00    +0.000 C 
ATOM     10  C   UNL     1       6.795   4.733  17.129  0.00  0.00    +0.000 C 
ATOM     11  O   UNL     1       7.966   4.490  16.878  0.00  0.00    +0.000 OA
ATOM     12  N   UNL     1       5.902   3.716  17.219  0.00  0.00    +0.000 N 
ATOM     13  H   UNL     1       6.221   2.745  17.076  0.00  0.00    +0.000 HD
BRANCH   4  14
ATOM     14  O   UNL     1       1.413   2.145  17.982  0.00  0.00    +0.000 OA
ATOM     15  H   UNL     1       1.127   1.653  17.199  0.00  0.00    +0.000 HD
ENDBRANCH   4  14
ENDBRANCH   1   2
BRANCH   1  16
ATOM     16  O   UNL     1       3.120   7.903  17.619  0.00  0.00    +0.000 OA
ATOM     17  H   UNL     1       3.237   7.623  16.674  0.00  0.00    +0.000 HD
ENDBRANCH   1  16
BRANCH   1  18
ATOM     18  C   UNL     1       2.119   7.282  19.758  0.00  0.00    +0.000 C 
BRANCH  18  19
ATOM     19  N   UNL     1       1.925   8.718  19.992  0.00  0.00    +0.000 NA
ATOM     20  H   UNL     1       2.338   8.966  20.922  0.00  0.00    +0.000 HD
BRANCH  19  21
ATOM     21  C   UNL     1       0.492   9.027  20.039  0.00  0.00    +0.000 C 
BRANCH  21  22
ATOM     22  C   UNL     1       0.143  10.088  18.992  0.00  0.00    +0.000 C 
BRANCH  22  23
ATOM     23  C   UNL     1      -1.202  10.747  19.321  0.00  0.00    +0.000 C 
BRANCH  23  28
ATOM     24  C   UNL     1      -4.189  11.473  17.037  0.00  0.00    +0.000 A 
ATOM     25  C   UNL     1      -3.869  10.664  15.928  0.00  0.00    +0.000 A 
ATOM     26  C   UNL     1      -2.699   9.904  15.925  0.00  0.00    +0.000 A 
ATOM     27  C   UNL     1      -1.837   9.937  17.020  0.00  0.00    +0.000 A 
ATOM     28  C   UNL     1      -2.139  10.730  18.139  0.00  0.00    +0.000 A 
ATOM     29  C   UNL     1      -3.322  11.495  18.138  0.00  0.00    +0.000 A 
BRANCH  24  31
ATOM     30  C   UNL     1      -6.470  11.941  17.752  0.00  0.00    +0.000 C 
ATOM     31  O   UNL     1      -5.306  12.246  17.076  0.00  0.00    +0.000 OA
ENDBRANCH  24  31
ENDBRANCH  23  28
ENDBRANCH  22  23
ENDBRANCH  21  22
ENDBRANCH  19  21
ENDBRANCH  18  19
ENDBRANCH   1  18
TORSDOF 10
ENDMDL
