MODEL 1
REMARK VINA RESULT:      -8.7      0.000      0.000
REMARK  Name = 
REMARK  8 active torsions:
REMARK  status: ('A' for Active; 'I' for Inactive)
REMARK    1  A    between atoms: C_1  and  O_2
REMARK    2  A    between atoms: O_2  and  C_3
REMARK    3  A    between atoms: C_6  and  C_7
REMARK    4  A    between atoms: C_8  and  C_9
REMARK    5  A    between atoms: N_11  and  C_12
REMARK    6  A    between atoms: C_12  and  C_13
REMARK    7  A    between atoms: C_24  and  O_25
REMARK    8  A    between atoms: O_25  and  C_26
REMARK                            x       y       z     vdW  Elec       q    Type
REMARK                         _______ _______ _______ _____ _____    ______ ____
ROOT
ATOM      1  C   UNL     1       7.409   6.908  17.453  0.00  0.00    +0.000 C 
ATOM      2  O   UNL     1       7.899   5.814  17.202  0.00  0.00    +0.000 OA
ATOM      3  N   UNL     1       6.144   7.278  17.075  0.00  0.00    +0.000 N 
ATOM      4  H   UNL     1       5.798   8.194  17.296  0.00  0.00    +0.000 HD
ENDROOT
BRANCH   1   6
ATOM      5  C   UNL     1       8.172   9.217  17.766  0.00  0.00    +0.000 C 
ATOM      6  C   UNL     1       8.133   7.953  18.228  0.00  0.00    +0.000 C 
BRANCH   5  10
ATOM      7  C   UNL     1      10.191  12.525  19.672  0.00  0.00    +0.000 A 
ATOM      8  C   UNL     1      10.112  11.261  20.273  0.00  0.00    +0.000 A 
ATOM      9  C   UNL     1       9.429  10.206  19.650  0.00  0.00    +0.000 A 
ATOM     10  C   UNL     1       8.789  10.383  18.419  0.00  0.00    +0.000 A 
ATOM     11  C   UNL     1       8.799  11.676  17.873  0.00  0.00    +0.000 A 
ATOM     12  C   UNL     1       9.487  12.745  18.478  0.00  0.00    +0.000 A 
BRANCH   7  14
ATOM     13  C   UNL     1      10.249  14.238  21.305  0.00  0.00    +0.000 C 
ATOM     14  O   UNL     1      10.898  13.541  20.246  0.00  0.00    +0.000 OA
ENDBRANCH   7  14
BRANCH  12  15
ATOM     15  O   UNL     1       9.373  13.900  17.750  0.00  0.00    +0.000 OA
ATOM     16  C   UNL     1       8.324  14.807  18.047  0.00  0.00    +0.000 C 
ENDBRANCH  12  15
ENDBRANCH   5  10
ENDBRANCH   1   6
BRANCH   3  17
ATOM     17  C   UNL     1       5.193   6.311  16.564  0.00  0.00    +0.000 C 
BRANCH  17  18
ATOM     18  C   UNL     1       4.159   5.753  17.550  0.00  0.00    +0.000 C 
ATOM     19  C   UNL     1       4.627   5.652  18.992  0.00  0.00    +0.000 C 
ATOM     20  O   UNL     1       3.428   5.621  19.802  0.00  0.00    +0.000 OA
ATOM     21  C   UNL     1       2.586   4.630  19.348  0.00  0.00    +0.000 A 
ATOM     22  C   UNL     1       1.545   4.251  20.189  0.00  0.00    +0.000 A 
ATOM     23  C   UNL     1       0.804   3.110  19.888  0.00  0.00    +0.000 A 
ATOM     24  C   UNL     1       1.114   2.358  18.751  0.00  0.00    +0.000 A 
ATOM     25  C   UNL     1       2.081   2.809  17.847  0.00  0.00    +0.000 A 
ATOM     26  C   UNL     1       2.781   3.980  18.116  0.00  0.00    +0.000 A 
ATOM     27  O   UNL     1       3.656   4.456  17.156  0.00  0.00    +0.000 OA
ENDBRANCH  17  18
ENDBRANCH   3  17
TORSDOF 6
ENDMDL
MODEL 2
REMARK VINA RESULT:      -8.7      1.032      1.656
REMARK  Name = 
REMARK  8 active torsions:
REMARK  status: ('A' for Active; 'I' for Inactive)
REMARK    1  A    between atoms: C_1  and  O_2
REMARK    2  A    between atoms: O_2  and  C_3
REMARK    3  A    between atoms: C_6  and  C_7
REMARK    4  A    between atoms: C_8  and  C_9
REMARK    5  A    between atoms: N_11  and  C_12
REMARK    6  A    between atoms: C_12  and  C_13
REMARK    7  A    between atoms: C_24  and  O_25
REMARK    8  A    between atoms: O_25  and  C_26
REMARK                            x       y       z     vdW  Elec       q    Type
REMARK                         _______ _______ _______ _____ _____    ______ ____
ROOT
ATOM      1  C   UNL     1       7.378   7.121  17.344  0.00  0.00    +0.000 C 
ATOM      2  O   UNL     1       7.716   6.643  16.267  0.00  0.00    +0.000 OA
ATOM      3  N   UNL     1       6.789   6.392  18.344  0.00  0.00    +0.000 N 
ATOM      4  H   UNL     1       6.520   6.838  19.202  0.00  0.00    +0.000 HD
ENDROOT
BRANCH   1   6
ATOM      5  C   UNL     1       8.653   8.893  18.459  0.00  0.00    +0.000 C 
ATOM      6  C   UNL     1       7.600   8.551  17.693  0.00  0.00    +0.000 C 
BRANCH   5  10
ATOM      7  C   UNL     1      10.065  12.807  19.615  0.00  0.00    +0.000 A 
ATOM      8  C   UNL     1      10.274  11.677  20.419  0.00  0.00    +0.000 A 
ATOM      9  C   UNL     1       9.785  10.420  20.040  0.00  0.00    +0.000 A 
ATOM     10  C   UNL     1       9.057  10.251  18.857  0.00  0.00    +0.000 A 
ATOM     11  C   UNL     1       8.778  11.406  18.108  0.00  0.00    +0.000 A 
ATOM     12  C   UNL     1       9.270  12.675  18.467  0.00  0.00    +0.000 A 
BRANCH   7  14
ATOM     13  C   UNL     1      10.098  14.601  21.159  0.00  0.00    +0.000 C 
ATOM     14  O   UNL     1      10.584  14.024  19.951  0.00  0.00    +0.000 OA
ENDBRANCH   7  14
BRANCH  12  15
ATOM     15  O   UNL     1       8.887  13.639  17.573  0.00  0.00    +0.000 OA
ATOM     16  C   UNL     1       7.693  14.368  17.806  0.00  0.00    +0.000 C 
ENDBRANCH  12  15
ENDBRANCH   5  10
ENDBRANCH   1   6
BRANCH   3  17
ATOM     17  C   UNL     1       6.747   4.944  18.303  0.00  0.00    +0.000 C 
BRANCH  17  18
ATOM     18  C   UNL     1       5.378   4.275  18.472  0.00  0.00    +0.000 C 
ATOM     19  C   UNL     1       4.600   4.057  17.184  0.00  0.00    +0.000 C 
ATOM     20  O   UNL     1       3.649   3.002  17.465  0.00  0.00    +0.000 OA
ATOM     21  C   UNL     1       2.919   3.321  18.588  0.00  0.00    +0.000 A 
ATOM     22  C   UNL     1       1.761   2.585  18.818  0.00  0.00    +0.000 A 
ATOM     23  C   UNL     1       0.869   3.006  19.803  0.00  0.00    +0.000 A 
ATOM     24  C   UNL     1       1.143   4.160  20.544  0.00  0.00    +0.000 A 
ATOM     25  C   UNL     1       2.363   4.826  20.390  0.00  0.00    +0.000 A 
ATOM     26  C   UNL     1       3.280   4.372  19.449  0.00  0.00    +0.000 A 
ATOM     27  O   UNL     1       4.518   4.986  19.392  0.00  0.00    +0.000 OA
ENDBRANCH  17  18
ENDBRANCH   3  17
TORSDOF 6
ENDMDL
MODEL 3
REMARK VINA RESULT:      -8.6      1.114      1.160
REMARK  Name = 
REMARK  8 active torsions:
REMARK  status: ('A' for Active; 'I' for Inactive)
REMARK    1  A    between atoms: C_1  and  O_2
REMARK    2  A    between atoms: O_2  and  C_3
REMARK    3  A    between atoms: C_6  and  C_7
REMARK    4  A    between atoms: C_8  and  C_9
REMARK    5  A    between atoms: N_11  and  C_12
REMARK    6  A    between atoms: C_12  and  C_13
REMARK    7  A    between atoms: C_24  and  O_25
REMARK    8  A    between atoms: O_25  and  C_26
REMARK                            x       y       z     vdW  Elec       q    Type
REMARK                         _______ _______ _______ _____ _____    ______ ____
ROOT
ATOM      1  C   UNL     1       7.305   7.366  17.319  0.00  0.00    +0.000 C 
ATOM      2  O   UNL     1       7.854   6.558  16.580  0.00  0.00    +0.000 OA
ATOM      3  N   UNL     1       5.946   7.447  17.477  0.00  0.00    +0.000 N 
ATOM      4  H   UNL     1       5.548   8.139  18.086  0.00  0.00    +0.000 HD
ENDROOT
BRANCH   1   6
ATOM      5  C   UNL     1       8.306   9.575  17.682  0.00  0.00    +0.000 C 
ATOM      6  C   UNL     1       8.065   8.337  18.153  0.00  0.00    +0.000 C 
BRANCH   5  10
ATOM      7  C   UNL     1      10.500  12.667  19.748  0.00  0.00    +0.000 A 
ATOM      8  C   UNL     1      10.214  11.434  20.351  0.00  0.00    +0.000 A 
ATOM      9  C   UNL     1       9.478  10.452  19.673  0.00  0.00    +0.000 A 
ATOM     10  C   UNL     1       8.988  10.675  18.382  0.00  0.00    +0.000 A 
ATOM     11  C   UNL     1       9.204  11.946  17.827  0.00  0.00    +0.000 A 
ATOM     12  C   UNL     1       9.950  12.941  18.487  0.00  0.00    +0.000 A 
BRANCH   7  14
ATOM     13  C   UNL     1      10.551  14.641  21.053  0.00  0.00    +0.000 C 
ATOM     14  O   UNL     1      11.262  13.607  20.380  0.00  0.00    +0.000 OA
ENDBRANCH   7  14
BRANCH  12  15
ATOM     15  O   UNL     1      10.044  14.085  17.740  0.00  0.00    +0.000 OA
ATOM     16  C   UNL     1      11.228  14.335  17.000  0.00  0.00    +0.000 C 
ENDBRANCH  12  15
ENDBRANCH   5  10
ENDBRANCH   1   6
BRANCH   3  17
ATOM     17  C   UNL     1       5.062   6.416  16.971  0.00  0.00    +0.000 C 
BRANCH  17  18
ATOM     18  C   UNL     1       4.469   5.435  17.989  0.00  0.00    +0.000 C 
ATOM     19  C   UNL     1       5.281   4.170  18.218  0.00  0.00    +0.000 C 
ATOM     20  O   UNL     1       4.877   3.663  19.512  0.00  0.00    +0.000 OA
ATOM     21  C   UNL     1       3.505   3.541  19.557  0.00  0.00    +0.000 A 
ATOM     22  C   UNL     1       2.972   2.782  20.593  0.00  0.00    +0.000 A 
ATOM     23  C   UNL     1       1.621   2.438  20.562  0.00  0.00    +0.000 A 
ATOM     24  C   UNL     1       0.821   2.853  19.494  0.00  0.00    +0.000 A 
ATOM     25  C   UNL     1       1.334   3.715  18.519  0.00  0.00    +0.000 A 
ATOM     26  C   UNL     1       2.666   4.108  18.581  0.00  0.00    +0.000 A 
ATOM     27  O   UNL     1       3.117   5.041  17.665  0.00  0.00    +0.000 OA
ENDBRANCH  17  18
ENDBRANCH   3  17
TORSDOF 6
ENDMDL
MODEL 4
REMARK VINA RESULT:      -8.6      1.287      1.421
REMARK  Name = 
REMARK  8 active torsions:
REMARK  status: ('A' for Active; 'I' for Inactive)
REMARK    1  A    between atoms: C_1  and  O_2
REMARK    2  A    between atoms: O_2  and  C_3
REMARK    3  A    between atoms: C_6  and  C_7
REMARK    4  A    between atoms: C_8  and  C_9
REMARK    5  A    between atoms: N_11  and  C_12
REMARK    6  A    between atoms: C_12  and  C_13
REMARK    7  A    between atoms: C_24  and  O_25
REMARK    8  A    between atoms: O_25  and  C_26
REMARK                            x       y       z     vdW  Elec       q    Type
REMARK                         _______ _______ _______ _____ _____    ______ ____
ROOT
ATOM      1  C   UNL     1       7.513   7.177  17.758  0.00  0.00    +0.000 C 
ATOM      2  O   UNL     1       6.934   7.360  16.694  0.00  0.00    +0.000 OA
ATOM      3  N   UNL     1       7.401   6.026  18.493  0.00  0.00    +0.000 N 
ATOM      4  H   UNL     1       7.888   5.935  19.367  0.00  0.00    +0.000 HD
ENDROOT
BRANCH   1   6
ATOM      5  C   UNL     1       8.271   9.489  18.060  0.00  0.00    +0.000 C 
ATOM      6  C   UNL     1       8.432   8.185  18.355  0.00  0.00    +0.000 C 
BRANCH   5  10
ATOM      7  C   UNL     1      10.709  12.661  19.687  0.00  0.00    +0.000 A 
ATOM      8  C   UNL     1      10.206  11.627  20.491  0.00  0.00    +0.000 A 
ATOM      9  C   UNL     1       9.394  10.620  19.949  0.00  0.00    +0.000 A 
ATOM     10  C   UNL     1       9.043  10.622  18.595  0.00  0.00    +0.000 A 
ATOM     11  C   UNL     1       9.478  11.711  17.823  0.00  0.00    +0.000 A 
ATOM     12  C   UNL     1      10.302  12.726  18.346  0.00  0.00    +0.000 A 
BRANCH   7  14
ATOM     13  C   UNL     1      10.921  14.808  20.659  0.00  0.00    +0.000 C 
ATOM     14  O   UNL     1      11.542  13.614  20.196  0.00  0.00    +0.000 OA
ENDBRANCH   7  14
BRANCH  12  15
ATOM     15  O   UNL     1      10.615  13.665  17.400  0.00  0.00    +0.000 OA
ATOM     16  C   UNL     1      11.676  13.412  16.494  0.00  0.00    +0.000 C 
ENDBRANCH  12  15
ENDBRANCH   5  10
ENDBRANCH   1   6
BRANCH   3  17
ATOM     17  C   UNL     1       6.784   4.834  17.947  0.00  0.00    +0.000 C 
BRANCH  17  18
ATOM     18  C   UNL     1       5.287   4.634  18.209  0.00  0.00    +0.000 C 
ATOM     19  C   UNL     1       4.730   5.397  19.400  0.00  0.00    +0.000 C 
ATOM     20  O   UNL     1       3.304   5.505  19.176  0.00  0.00    +0.000 OA
ATOM     21  C   UNL     1       2.776   4.256  18.932  0.00  0.00    +0.000 A 
ATOM     22  C   UNL     1       1.393   4.130  19.008  0.00  0.00    +0.000 A 
ATOM     23  C   UNL     1       0.821   2.859  18.995  0.00  0.00    +0.000 A 
ATOM     24  C   UNL     1       1.639   1.728  18.910  0.00  0.00    +0.000 A 
ATOM     25  C   UNL     1       3.017   1.866  18.713  0.00  0.00    +0.000 A 
ATOM     26  C   UNL     1       3.582   3.136  18.666  0.00  0.00    +0.000 A 
ATOM     27  O   UNL     1       4.928   3.243  18.367  0.00  0.00    +0.000 OA
ENDBRANCH  17  18
ENDBRANCH   3  17
TORSDOF 6
ENDMDL
MODEL 5
REMARK VINA RESULT:      -8.6      1.442      2.352
REMARK  Name = 
REMARK  8 active torsions:
REMARK  status: ('A' for Active; 'I' for Inactive)
REMARK    1  A    between atoms: C_1  and  O_2
REMARK    2  A    between atoms: O_2  and  C_3
REMARK    3  A    between atoms: C_6  and  C_7
REMARK    4  A    between atoms: C_8  and  C_9
REMARK    5  A    between atoms: N_11  and  C_12
REMARK    6  A    between atoms: C_12  and  C_13
REMARK    7  A    between atoms: C_24  and  O_25
REMARK    8  A    between atoms: O_25  and  C_26
REMARK                            x       y       z     vdW  Elec       q    Type
REMARK                         _______ _______ _______ _____ _____    ______ ____
ROOT
ATOM      1  C   UNL     1       7.479   7.126  17.798  0.00  0.00    +0.000 C 
ATOM      2  O   UNL     1       6.893   7.424  16.764  0.00  0.00    +0.000 OA
ATOM      3  N   UNL     1       7.452   5.872  18.350  0.00  0.00    +0.000 N 
ATOM      4  H   UNL     1       7.940   5.687  19.208  0.00  0.00    +0.000 HD
ENDROOT
BRANCH   1   6
ATOM      5  C   UNL     1       8.544   9.322  18.041  0.00  0.00    +0.000 C 
ATOM      6  C   UNL     1       8.316   8.098  18.555  0.00  0.00    +0.000 C 
BRANCH   5  10
ATOM      7  C   UNL     1      10.633  12.700  19.735  0.00  0.00    +0.000 A 
ATOM      8  C   UNL     1      10.788  12.332  18.391  0.00  0.00    +0.000 A 
ATOM      9  C   UNL     1      10.121  11.216  17.865  0.00  0.00    +0.000 A 
ATOM     10  C   UNL     1       9.295  10.421  18.667  0.00  0.00    +0.000 A 
ATOM     11  C   UNL     1       9.221  10.748  20.030  0.00  0.00    +0.000 A 
ATOM     12  C   UNL     1       9.874  11.870  20.574  0.00  0.00    +0.000 A 
BRANCH   7  14
ATOM     13  C   UNL     1      10.689  15.064  19.828  0.00  0.00    +0.000 C 
ATOM     14  O   UNL     1      11.236  13.815  20.240  0.00  0.00    +0.000 OA
ENDBRANCH   7  14
BRANCH  12  15
ATOM     15  O   UNL     1       9.634  11.997  21.916  0.00  0.00    +0.000 OA
ATOM     16  C   UNL     1       8.349  12.401  22.358  0.00  0.00    +0.000 C 
ENDBRANCH  12  15
ENDBRANCH   5  10
ENDBRANCH   1   6
BRANCH   3  17
ATOM     17  C   UNL     1       6.929   4.734  17.621  0.00  0.00    +0.000 C 
BRANCH  17  18
ATOM     18  C   UNL     1       5.488   4.306  17.924  0.00  0.00    +0.000 C 
ATOM     19  C   UNL     1       4.534   4.361  16.742  0.00  0.00    +0.000 C 
ATOM     20  O   UNL     1       3.441   3.470  17.068  0.00  0.00    +0.000 OA
ATOM     21  C   UNL     1       2.925   3.797  18.302  0.00  0.00    +0.000 A 
ATOM     22  C   UNL     1       1.685   3.260  18.631  0.00  0.00    +0.000 A 
ATOM     23  C   UNL     1       1.014   3.730  19.759  0.00  0.00    +0.000 A 
ATOM     24  C   UNL     1       1.589   4.735  20.542  0.00  0.00    +0.000 A 
ATOM     25  C   UNL     1       2.886   5.186  20.275  0.00  0.00    +0.000 A 
ATOM     26  C   UNL     1       3.580   4.674  19.185  0.00  0.00    +0.000 A 
ATOM     27  O   UNL     1       4.897   5.061  19.006  0.00  0.00    +0.000 OA
ENDBRANCH  17  18
ENDBRANCH   3  17
TORSDOF 6
ENDMDL
MODEL 6
REMARK VINA RESULT:      -8.5      1.154      1.259
REMARK  Name = 
REMARK  8 active torsions:
REMARK  status: ('A' for Active; 'I' for Inactive)
REMARK    1  A    between atoms: C_1  and  O_2
REMARK    2  A    between atoms: O_2  and  C_3
REMARK    3  A    between atoms: C_6  and  C_7
REMARK    4  A    between atoms: C_8  and  C_9
REMARK    5  A    between atoms: N_11  and  C_12
REMARK    6  A    between atoms: C_12  and  C_13
REMARK    7  A    between atoms: C_24  and  O_25
REMARK    8  A    between atoms: O_25  and  C_26
REMARK                            x       y       z     vdW  Elec       q    Type
REMARK                         _______ _______ _______ _____ _____    ______ ____
ROOT
ATOM      1  C   UNL     1       7.345   6.608  17.495  0.00  0.00    +0.000 C 
ATOM      2  O   UNL     1       7.685   5.432  17.441  0.00  0.00    +0.000 OA
ATOM      3  N   UNL     1       6.193   7.090  16.929  0.00  0.00    +0.000 N 
ATOM      4  H   UNL     1       5.970   8.067  16.992  0.00  0.00    +0.000 HD
ENDROOT
BRANCH   1   6
ATOM      5  C   UNL     1       8.090   8.923  17.804  0.00  0.00    +0.000 C 
ATOM      6  C   UNL     1       8.140   7.641  18.214  0.00  0.00    +0.000 C 
BRANCH   5  10
ATOM      7  C   UNL     1      10.241  12.174  19.661  0.00  0.00    +0.000 A 
ATOM      8  C   UNL     1       9.841  11.043  20.385  0.00  0.00    +0.000 A 
ATOM      9  C   UNL     1       9.120  10.009  19.771  0.00  0.00    +0.000 A 
ATOM     10  C   UNL     1       8.760  10.079  18.421  0.00  0.00    +0.000 A 
ATOM     11  C   UNL     1       9.089  11.257  17.731  0.00  0.00    +0.000 A 
ATOM     12  C   UNL     1       9.821  12.301  18.328  0.00  0.00    +0.000 A 
BRANCH   7  14
ATOM     13  C   UNL     1      10.294  14.044  21.111  0.00  0.00    +0.000 C 
ATOM     14  O   UNL     1      10.989  13.159  20.238  0.00  0.00    +0.000 OA
ENDBRANCH   7  14
BRANCH  12  15
ATOM     15  O   UNL     1      10.040  13.332  17.454  0.00  0.00    +0.000 OA
ATOM     16  C   UNL     1      11.260  13.384  16.733  0.00  0.00    +0.000 C 
ENDBRANCH  12  15
ENDBRANCH   5  10
ENDBRANCH   1   6
BRANCH   3  17
ATOM     17  C   UNL     1       5.162   6.201  16.434  0.00  0.00    +0.000 C 
BRANCH  17  18
ATOM     18  C   UNL     1       4.104   5.724  17.437  0.00  0.00    +0.000 C 
ATOM     19  C   UNL     1       3.568   6.796  18.372  0.00  0.00    +0.000 C 
ATOM     20  O   UNL     1       2.286   6.314  18.840  0.00  0.00    +0.000 OA
ATOM     21  C   UNL     1       2.426   5.046  19.360  0.00  0.00    +0.000 A 
ATOM     22  C   UNL     1       1.377   4.561  20.132  0.00  0.00    +0.000 A 
ATOM     23  C   UNL     1       1.554   3.388  20.865  0.00  0.00    +0.000 A 
ATOM     24  C   UNL     1       2.780   2.717  20.819  0.00  0.00    +0.000 A 
ATOM     25  C   UNL     1       3.788   3.144  19.949  0.00  0.00    +0.000 A 
ATOM     26  C   UNL     1       3.590   4.280  19.173  0.00  0.00    +0.000 A 
ATOM     27  O   UNL     1       4.562   4.618  18.248  0.00  0.00    +0.000 OA
ENDBRANCH  17  18
ENDBRANCH   3  17
TORSDOF 6
ENDMDL
MODEL 7
REMARK VINA RESULT:      -8.4      1.067      1.673
REMARK  Name = 
REMARK  8 active torsions:
REMARK  status: ('A' for Active; 'I' for Inactive)
REMARK    1  A    between atoms: C_1  and  O_2
REMARK    2  A    between atoms: O_2  and  C_3
REMARK    3  A    between atoms: C_6  and  C_7
REMARK    4  A    between atoms: C_8  and  C_9
REMARK    5  A    between atoms: N_11  and  C_12
REMARK    6  A    between atoms: C_12  and  C_13
REMARK    7  A    between atoms: C_24  and  O_25
REMARK    8  A    between atoms: O_25  and  C_26
REMARK                            x       y       z     vdW  Elec       q    Type
REMARK                         _______ _______ _______ _____ _____    ______ ____
ROOT
ATOM      1  C   UNL     1       7.270   7.032  17.189  0.00  0.00    +0.000 C 
ATOM      2  O   UNL     1       7.692   6.119  16.489  0.00  0.00    +0.000 OA
ATOM      3  N   UNL     1       5.942   7.353  17.295  0.00  0.00    +0.000 N 
ATOM      4  H   UNL     1       5.652   8.122  17.873  0.00  0.00    +0.000 HD
ENDROOT
BRANCH   1   6
ATOM      5  C   UNL     1       8.275   9.193  17.763  0.00  0.00    +0.000 C 
ATOM      6  C   UNL     1       8.162   7.878  18.029  0.00  0.00    +0.000 C 
BRANCH   5  10
ATOM      7  C   UNL     1      10.479  12.276  19.833  0.00  0.00    +0.000 A 
ATOM      8  C   UNL     1      10.675  12.014  18.469  0.00  0.00    +0.000 A 
ATOM      9  C   UNL     1       9.969  10.992  17.821  0.00  0.00    +0.000 A 
ATOM     10  C   UNL     1       9.060  10.186  18.514  0.00  0.00    +0.000 A 
ATOM     11  C   UNL     1       8.941  10.399  19.897  0.00  0.00    +0.000 A 
ATOM     12  C   UNL     1       9.634  11.427  20.563  0.00  0.00    +0.000 A 
BRANCH   7  14
ATOM     13  C   UNL     1      10.732  14.617  20.071  0.00  0.00    +0.000 C 
ATOM     14  O   UNL     1      11.123  13.304  20.459  0.00  0.00    +0.000 OA
ENDBRANCH   7  14
BRANCH  12  15
ATOM     15  O   UNL     1       9.340  11.454  21.901  0.00  0.00    +0.000 OA
ATOM     16  C   UNL     1       8.316  12.316  22.370  0.00  0.00    +0.000 C 
ENDBRANCH  12  15
ENDBRANCH   5  10
ENDBRANCH   1   6
BRANCH   3  17
ATOM     17  C   UNL     1       4.907   6.479  16.780  0.00  0.00    +0.000 C 
BRANCH  17  18
ATOM     18  C   UNL     1       3.956   5.838  17.799  0.00  0.00    +0.000 C 
ATOM     19  C   UNL     1       4.574   5.523  19.152  0.00  0.00    +0.000 C 
ATOM     20  O   UNL     1       3.471   5.435  20.085  0.00  0.00    +0.000 OA
ATOM     21  C   UNL     1       2.527   4.552  19.608  0.00  0.00    +0.000 A 
ATOM     22  C   UNL     1       1.565   4.109  20.509  0.00  0.00    +0.000 A 
ATOM     23  C   UNL     1       0.729   3.052  20.151  0.00  0.00    +0.000 A 
ATOM     24  C   UNL     1       0.869   2.448  18.898  0.00  0.00    +0.000 A 
ATOM     25  C   UNL     1       1.755   2.975  17.953  0.00  0.00    +0.000 A 
ATOM     26  C   UNL     1       2.547   4.067  18.288  0.00  0.00    +0.000 A 
ATOM     27  O   UNL     1       3.338   4.630  17.302  0.00  0.00    +0.000 OA
ENDBRANCH  17  18
ENDBRANCH   3  17
TORSDOF 6
ENDMDL
MODEL 8
REMARK VINA RESULT:      -8.3      1.549      2.201
REMARK  Name = 
REMARK  8 active torsions:
REMARK  status: ('A' for Active; 'I' for Inactive)
REMARK    1  A    between atoms: C_1  and  O_2
REMARK    2  A    between atoms: O_2  and  C_3
REMARK    3  A    between atoms: C_6  and  C_7
REMARK    4  A    between atoms: C_8  and  C_9
REMARK    5  A    between atoms: N_11  and  C_12
REMARK    6  A    between atoms: C_12  and  C_13
REMARK    7  A    between atoms: C_24  and  O_25
REMARK    8  A    between atoms: O_25  and  C_26
REMARK                            x       y       z     vdW  Elec       q    Type
REMARK                         _______ _______ _______ _____ _____    ______ ____
ROOT
ATOM      1  C   UNL     1       7.557   6.965  17.729  0.00  0.00    +0.000 C 
ATOM      2  O   UNL     1       7.119   7.103  16.593  0.00  0.00    +0.000 OA
ATOM      3  N   UNL     1       7.246   5.903  18.538  0.00  0.00    +0.000 N 
ATOM      4  H   UNL     1       7.624   5.847  19.466  0.00  0.00    +0.000 HD
ENDROOT
BRANCH   1   6
ATOM      5  C   UNL     1       8.336   9.252  18.145  0.00  0.00    +0.000 C 
ATOM      6  C   UNL     1       8.507   7.932  18.346  0.00  0.00    +0.000 C 
BRANCH   5  10
ATOM      7  C   UNL     1      10.561  12.618  19.684  0.00  0.00    +0.000 A 
ATOM      8  C   UNL     1      10.613  12.253  18.331  0.00  0.00    +0.000 A 
ATOM      9  C   UNL     1       9.904  11.140  17.855  0.00  0.00    +0.000 A 
ATOM     10  C   UNL     1       9.136  10.348  18.715  0.00  0.00    +0.000 A 
ATOM     11  C   UNL     1       9.166  10.672  20.081  0.00  0.00    +0.000 A 
ATOM     12  C   UNL     1       9.863  11.790  20.575  0.00  0.00    +0.000 A 
BRANCH   7  14
ATOM     13  C   UNL     1      12.331  14.161  19.387  0.00  0.00    +0.000 C 
ATOM     14  O   UNL     1      11.204  13.730  20.144  0.00  0.00    +0.000 OA
ENDBRANCH   7  14
BRANCH  12  15
ATOM     15  O   UNL     1       9.725  11.915  21.933  0.00  0.00    +0.000 OA
ATOM     16  C   UNL     1       8.712  12.759  22.453  0.00  0.00    +0.000 C 
ENDBRANCH  12  15
ENDBRANCH   5  10
ENDBRANCH   1   6
BRANCH   3  17
ATOM     17  C   UNL     1       6.570   4.730  18.021  0.00  0.00    +0.000 C 
BRANCH  17  18
ATOM     18  C   UNL     1       5.102   4.533  18.417  0.00  0.00    +0.000 C 
ATOM     19  C   UNL     1       4.316   5.814  18.647  0.00  0.00    +0.000 C 
ATOM     20  O   UNL     1       2.921   5.463  18.488  0.00  0.00    +0.000 OA
ATOM     21  C   UNL     1       2.617   4.390  19.297  0.00  0.00    +0.000 A 
ATOM     22  C   UNL     1       1.269   4.122  19.509  0.00  0.00    +0.000 A 
ATOM     23  C   UNL     1       0.902   3.200  20.489  0.00  0.00    +0.000 A 
ATOM     24  C   UNL     1       1.887   2.560  21.247  0.00  0.00    +0.000 A 
ATOM     25  C   UNL     1       3.241   2.744  20.947  0.00  0.00    +0.000 A 
ATOM     26  C   UNL     1       3.607   3.618  19.930  0.00  0.00    +0.000 A 
ATOM     27  O   UNL     1       4.945   3.701  19.588  0.00  0.00    +0.000 OA
ENDBRANCH  17  18
ENDBRANCH   3  17
TORSDOF 6
ENDMDL
MODEL 9
REMARK VINA RESULT:      -8.3      1.279      2.047
REMARK  Name = 
REMARK  8 active torsions:
REMARK  status: ('A' for Active; 'I' for Inactive)
REMARK    1  A    between atoms: C_1  and  O_2
REMARK    2  A    between atoms: O_2  and  C_3
REMARK    3  A    between atoms: C_6  and  C_7
REMARK    4  A    between atoms: C_8  and  C_9
REMARK    5  A    between atoms: N_11  and  C_12
REMARK    6  A    between atoms: C_12  and  C_13
REMARK    7  A    between atoms: C_24  and  O_25
REMARK    8  A    between atoms: O_25  and  C_26
REMARK                            x       y       z     vdW  Elec       q    Type
REMARK                         _______ _______ _______ _____ _____    ______ ____
ROOT
ATOM      1  C   UNL     1       7.278   6.820  17.349  0.00  0.00    +0.000 C 
ATOM      2  O   UNL     1       7.919   5.944  17.918  0.00  0.00    +0.000 OA
ATOM      3  N   UNL     1       6.202   6.568  16.539  0.00  0.00    +0.000 N 
ATOM      4  H   UNL     1       5.722   7.325  16.087  0.00  0.00    +0.000 HD
ENDROOT
BRANCH   1   6
ATOM      5  C   UNL     1       8.441   8.667  18.467  0.00  0.00    +0.000 C 
ATOM      6  C   UNL     1       7.587   8.269  17.505  0.00  0.00    +0.000 C 
BRANCH   5  10
ATOM      7  C   UNL     1       9.581  12.771  19.180  0.00  0.00    +0.000 A 
ATOM      8  C   UNL     1       9.242  12.308  17.900  0.00  0.00    +0.000 A 
ATOM      9  C   UNL     1       8.900  10.966  17.684  0.00  0.00    +0.000 A 
ATOM     10  C   UNL     1       8.903  10.039  18.732  0.00  0.00    +0.000 A 
ATOM     11  C   UNL     1       9.331  10.496  19.988  0.00  0.00    +0.000 A 
ATOM     12  C   UNL     1       9.668  11.842  20.227  0.00  0.00    +0.000 A 
BRANCH   7  14
ATOM     13  C   UNL     1       8.810  15.009  19.141  0.00  0.00    +0.000 C 
ATOM     14  O   UNL     1       9.862  14.087  19.408  0.00  0.00    +0.000 OA
ENDBRANCH   7  14
BRANCH  12  15
ATOM     15  O   UNL     1      10.031  12.051  21.531  0.00  0.00    +0.000 OA
ATOM     16  C   UNL     1       9.057  12.494  22.461  0.00  0.00    +0.000 C 
ENDBRANCH  12  15
ENDBRANCH   5  10
ENDBRANCH   1   6
BRANCH   3  17
ATOM     17  C   UNL     1       5.583   5.260  16.487  0.00  0.00    +0.000 C 
BRANCH  17  18
ATOM     18  C   UNL     1       4.395   5.006  17.423  0.00  0.00    +0.000 C 
ATOM     19  C   UNL     1       3.806   6.248  18.073  0.00  0.00    +0.000 C 
ATOM     20  O   UNL     1       2.457   5.895  18.461  0.00  0.00    +0.000 OA
ATOM     21  C   UNL     1       2.476   4.744  19.218  0.00  0.00    +0.000 A 
ATOM     22  C   UNL     1       1.322   4.439  19.932  0.00  0.00    +0.000 A 
ATOM     23  C   UNL     1       1.358   3.420  20.884  0.00  0.00    +0.000 A 
ATOM     24  C   UNL     1       2.547   2.723  21.113  0.00  0.00    +0.000 A 
ATOM     25  C   UNL     1       3.669   2.953  20.309  0.00  0.00    +0.000 A 
ATOM     26  C   UNL     1       3.616   3.928  19.319  0.00  0.00    +0.000 A 
ATOM     27  O   UNL     1       4.703   4.061  18.473  0.00  0.00    +0.000 OA
ENDBRANCH  17  18
ENDBRANCH   3  17
TORSDOF 6
ENDMDL
