MODEL 1
REMARK VINA RESULT:      -5.9      0.000      0.000
REMARK  Name = 
REMARK  7 active torsions:
REMARK  status: ('A' for Active; 'I' for Inactive)
REMARK    1  A    between atoms: N_5  and  C_6
REMARK    2  A    between atoms: C_6  and  C_7
REMARK    3  A    between atoms: C_6  and  C_11
REMARK    4  A    between atoms: C_7  and  C_8
REMARK    5  A    between atoms: C_8  and  C_9
REMARK    6  A    between atoms: C_8  and  C_10
REMARK    7  A    between atoms: N_13  and  N_14
REMARK                            x       y       z     vdW  Elec       q    Type
REMARK                         _______ _______ _______ _____ _____    ______ ____
ROOT
ATOM      1  C   UNL     1      -3.169  13.150  21.669  0.00  0.00    +0.000 C 
ENDROOT
BRANCH   1   6
ATOM      2  C   UNL     1      -7.538  13.452  24.293  0.00  0.00    +0.000 C 
ATOM      3  C   UNL     1      -6.502  13.024  23.555  0.00  0.00    +0.000 C 
ATOM      4  C   UNL     1      -5.139  12.728  24.119  0.00  0.00    +0.000 C 
ATOM      5  C   UNL     1      -4.090  13.835  23.923  0.00  0.00    +0.000 C 
ATOM      6  N   UNL     1      -3.828  14.265  22.486  0.00  0.00    +0.000 NA
ATOM      7  S   UNL     1      -5.147  15.175  21.827  0.00  0.00    +0.000 S 
ATOM      8  O   UNL     1      -4.662  15.888  20.669  0.00  0.00    +0.000 OA
ATOM      9  O   UNL     1      -5.792  15.906  22.890  0.00  0.00    +0.000 OA
ATOM     10  C   UNL     1      -6.237  13.910  21.235  0.00  0.00    +0.000 A 
ATOM     11  C   UNL     1      -6.472  13.835  19.853  0.00  0.00    +0.000 A 
ATOM     12  C   UNL     1      -7.042  12.687  19.314  0.00  0.00    +0.000 A 
ATOM     13  C   UNL     1      -7.420  11.647  20.158  0.00  0.00    +0.000 A 
ATOM     14  C   UNL     1      -7.268  11.768  21.545  0.00  0.00    +0.000 A 
ATOM     15  C   UNL     1      -6.672  12.907  22.101  0.00  0.00    +0.000 A 
ENDBRANCH   1   6
BRANCH   1  16
ATOM     16  C   UNL     1      -1.762  12.830  22.196  0.00  0.00    +0.000 C 
ATOM     17  O   UNL     1      -0.975  13.719  22.510  0.00  0.00    +0.000 OA
ATOM     18  N   UNL     1      -1.527  11.461  22.345  0.00  0.00    +0.000 N 
ATOM     19  H   UNL     1      -2.192  10.844  21.877  0.00  0.00    +0.000 HD
BRANCH  18  20
ATOM     20  N   UNL     1      -0.219  11.022  22.635  0.00  0.00    +0.000 NA
ATOM     21  C   UNL     1       0.676  11.045  21.466  0.00  0.00    +0.000 C 
ATOM     22  C   UNL     1       0.441   9.879  20.498  0.00  0.00    +0.000 C 
ATOM     23  O   UNL     1       0.549   8.619  21.168  0.00  0.00    +0.000 OA
ATOM     24  C   UNL     1      -0.391   8.536  22.247  0.00  0.00    +0.000 C 
ATOM     25  C   UNL     1      -0.204   9.680  23.253  0.00  0.00    +0.000 C 
ENDBRANCH  18  20
ENDBRANCH   1  16
BRANCH   1  26
ATOM     26  C   UNL     1      -3.108  13.249  20.131  0.00  0.00    +0.000 C 
BRANCH  26  27
ATOM     27  C   UNL     1      -2.599  12.053  19.299  0.00  0.00    +0.000 C 
ATOM     28  C   UNL     1      -3.713  11.565  18.360  0.00  0.00    +0.000 C 
ATOM     29  C   UNL     1      -1.362  12.365  18.470  0.00  0.00    +0.000 C 
ENDBRANCH  26  27
ENDBRANCH   1  26
TORSDOF 5
ENDMDL
MODEL 2
REMARK VINA RESULT:      -5.8      6.947     11.999
REMARK  Name = 
REMARK  7 active torsions:
REMARK  status: ('A' for Active; 'I' for Inactive)
REMARK    1  A    between atoms: N_5  and  C_6
REMARK    2  A    between atoms: C_6  and  C_7
REMARK    3  A    between atoms: C_6  and  C_11
REMARK    4  A    between atoms: C_7  and  C_8
REMARK    5  A    between atoms: C_8  and  C_9
REMARK    6  A    between atoms: C_8  and  C_10
REMARK    7  A    between atoms: N_13  and  N_14
REMARK                            x       y       z     vdW  Elec       q    Type
REMARK                         _______ _______ _______ _____ _____    ______ ____
ROOT
ATOM      1  C   UNL     1       3.487   6.589  18.227  0.00  0.00    +0.000 C 
ENDROOT
BRANCH   1   6
ATOM      2  C   UNL     1       6.330   3.697  15.126  0.00  0.00    +0.000 C 
ATOM      3  C   UNL     1       5.309   4.251  15.800  0.00  0.00    +0.000 C 
ATOM      4  C   UNL     1       4.734   5.604  15.482  0.00  0.00    +0.000 C 
ATOM      5  C   UNL     1       5.213   6.753  16.385  0.00  0.00    +0.000 C 
ATOM      6  N   UNL     1       4.978   6.575  17.879  0.00  0.00    +0.000 NA
ATOM      7  S   UNL     1       6.029   5.381  18.567  0.00  0.00    +0.000 S 
ATOM      8  O   UNL     1       6.048   5.576  19.997  0.00  0.00    +0.000 OA
ATOM      9  O   UNL     1       7.272   5.372  17.837  0.00  0.00    +0.000 OA
ATOM     10  C   UNL     1       5.155   3.871  18.264  0.00  0.00    +0.000 A 
ATOM     11  C   UNL     1       4.697   3.139  19.371  0.00  0.00    +0.000 A 
ATOM     12  C   UNL     1       3.743   2.144  19.190  0.00  0.00    +0.000 A 
ATOM     13  C   UNL     1       3.293   1.848  17.907  0.00  0.00    +0.000 A 
ATOM     14  C   UNL     1       3.824   2.519  16.798  0.00  0.00    +0.000 A 
ATOM     15  C   UNL     1       4.765   3.542  16.965  0.00  0.00    +0.000 A 
ENDBRANCH   1   6
BRANCH   1  16
ATOM     16  C   UNL     1       2.870   7.975  17.980  0.00  0.00    +0.000 C 
ATOM     17  O   UNL     1       2.981   8.544  16.898  0.00  0.00    +0.000 OA
ATOM     18  N   UNL     1       2.131   8.451  19.066  0.00  0.00    +0.000 N 
ATOM     19  H   UNL     1       2.279   7.964  19.951  0.00  0.00    +0.000 HD
BRANCH  18  20
ATOM     20  N   UNL     1       1.675   9.785  19.046  0.00  0.00    +0.000 NA
ATOM     21  C   UNL     1       1.066  10.211  20.317  0.00  0.00    +0.000 C 
ATOM     22  C   UNL     1      -0.355   9.671  20.520  0.00  0.00    +0.000 C 
ATOM     23  O   UNL     1      -1.208  10.029  19.428  0.00  0.00    +0.000 OA
ATOM     24  C   UNL     1      -0.684   9.530  18.191  0.00  0.00    +0.000 C 
ATOM     25  C   UNL     1       0.741  10.039  17.930  0.00  0.00    +0.000 C 
ENDBRANCH  18  20
ENDBRANCH   1  16
BRANCH   1  26
ATOM     26  C   UNL     1       3.006   6.074  19.599  0.00  0.00    +0.000 C 
BRANCH  26  27
ATOM     27  C   UNL     1       1.659   5.331  19.718  0.00  0.00    +0.000 C 
ATOM     28  C   UNL     1       1.353   4.602  18.400  0.00  0.00    +0.000 C 
ATOM     29  C   UNL     1       1.612   4.322  20.856  0.00  0.00    +0.000 C 
ENDBRANCH  26  27
ENDBRANCH   1  26
TORSDOF 5
ENDMDL
MODEL 3
REMARK VINA RESULT:      -5.7      3.832      6.295
REMARK  Name = 
REMARK  7 active torsions:
REMARK  status: ('A' for Active; 'I' for Inactive)
REMARK    1  A    between atoms: N_5  and  C_6
REMARK    2  A    between atoms: C_6  and  C_7
REMARK    3  A    between atoms: C_6  and  C_11
REMARK    4  A    between atoms: C_7  and  C_8
REMARK    5  A    between atoms: C_8  and  C_9
REMARK    6  A    between atoms: C_8  and  C_10
REMARK    7  A    between atoms: N_13  and  N_14
REMARK                            x       y       z     vdW  Elec       q    Type
REMARK                         _______ _______ _______ _____ _____    ______ ____
ROOT
ATOM      1  C   UNL     1       0.126  14.030  21.756  0.00  0.00    +0.000 C 
ENDROOT
BRANCH   1   6
ATOM      2  C   UNL     1      -2.113  10.854  18.445  0.00  0.00    +0.000 C 
ATOM      3  C   UNL     1      -1.766  11.929  19.171  0.00  0.00    +0.000 C 
ATOM      4  C   UNL     1      -0.515  12.729  18.935  0.00  0.00    +0.000 C 
ATOM      5  C   UNL     1       0.656  12.417  19.881  0.00  0.00    +0.000 C 
ATOM      6  N   UNL     1       0.375  12.569  21.369  0.00  0.00    +0.000 NA
ATOM      7  S   UNL     1      -0.656  11.314  21.971  0.00  0.00    +0.000 S 
ATOM      8  O   UNL     1      -0.525  11.279  23.408  0.00  0.00    +0.000 OA
ATOM      9  O   UNL     1      -0.427  10.111  21.210  0.00  0.00    +0.000 OA
ATOM     10  C   UNL     1      -2.276  11.937  21.616  0.00  0.00    +0.000 A 
ATOM     11  C   UNL     1      -3.122  12.231  22.697  0.00  0.00    +0.000 A 
ATOM     12  C   UNL     1      -4.253  13.013  22.492  0.00  0.00    +0.000 A 
ATOM     13  C   UNL     1      -4.561  13.451  21.207  0.00  0.00    +0.000 A 
ATOM     14  C   UNL     1      -3.764  13.075  20.119  0.00  0.00    +0.000 A 
ATOM     15  C   UNL     1      -2.607  12.310  20.313  0.00  0.00    +0.000 A 
ENDBRANCH   1   6
BRANCH   1  16
ATOM     16  C   UNL     1       1.389  14.883  21.553  0.00  0.00    +0.000 C 
ATOM     17  O   UNL     1       2.364  14.774  22.291  0.00  0.00    +0.000 OA
ATOM     18  N   UNL     1       1.323  15.705  20.425  0.00  0.00    +0.000 N 
ATOM     19  H   UNL     1       0.395  15.828  20.020  0.00  0.00    +0.000 HD
BRANCH  18  20
ATOM     20  N   UNL     1       2.328  16.675  20.231  0.00  0.00    +0.000 NA
ATOM     21  C   UNL     1       1.797  18.000  19.872  0.00  0.00    +0.000 C 
ATOM     22  C   UNL     1       1.345  18.097  18.410  0.00  0.00    +0.000 C 
ATOM     23  O   UNL     1       2.402  17.738  17.514  0.00  0.00    +0.000 OA
ATOM     24  C   UNL     1       2.862  16.406  17.781  0.00  0.00    +0.000 C 
ATOM     25  C   UNL     1       3.331  16.248  19.234  0.00  0.00    +0.000 C 
ENDBRANCH  18  20
ENDBRANCH   1  16
BRANCH   1  26
ATOM     26  C   UNL     1      -0.486  14.376  23.128  0.00  0.00    +0.000 C 
BRANCH  26  27
ATOM     27  C   UNL     1      -1.331  15.655  23.298  0.00  0.00    +0.000 C 
ATOM     28  C   UNL     1      -2.047  15.981  21.978  0.00  0.00    +0.000 C 
ATOM     29  C   UNL     1      -2.369  15.562  24.407  0.00  0.00    +0.000 C 
ENDBRANCH  26  27
ENDBRANCH   1  26
TORSDOF 5
ENDMDL
MODEL 4
REMARK VINA RESULT:      -5.5      9.307     13.446
REMARK  Name = 
REMARK  7 active torsions:
REMARK  status: ('A' for Active; 'I' for Inactive)
REMARK    1  A    between atoms: N_5  and  C_6
REMARK    2  A    between atoms: C_6  and  C_7
REMARK    3  A    between atoms: C_6  and  C_11
REMARK    4  A    between atoms: C_7  and  C_8
REMARK    5  A    between atoms: C_8  and  C_9
REMARK    6  A    between atoms: C_8  and  C_10
REMARK    7  A    between atoms: N_13  and  N_14
REMARK                            x       y       z     vdW  Elec       q    Type
REMARK                         _______ _______ _______ _____ _____    ______ ____
ROOT
ATOM      1  C   UNL     1       7.839  15.133  20.902  0.00  0.00    +0.000 C 
ENDROOT
BRANCH   1   6
ATOM      2  C   UNL     1      10.913  15.483  16.841  0.00  0.00    +0.000 C 
ATOM      3  C   UNL     1       9.958  15.116  17.710  0.00  0.00    +0.000 C 
ATOM      4  C   UNL     1       8.696  15.900  17.946  0.00  0.00    +0.000 C 
ATOM      5  C   UNL     1       8.698  16.793  19.197  0.00  0.00    +0.000 C 
ATOM      6  N   UNL     1       8.970  16.093  20.521  0.00  0.00    +0.000 NA
ATOM      7  S   UNL     1      10.625  15.602  20.671  0.00  0.00    +0.000 S 
ATOM      8  O   UNL     1      10.891  15.351  22.068  0.00  0.00    +0.000 OA
ATOM      9  O   UNL     1      11.459  16.530  19.947  0.00  0.00    +0.000 OA
ATOM     10  C   UNL     1      10.642  14.031  19.853  0.00  0.00    +0.000 A 
ATOM     11  C   UNL     1      10.932  12.891  20.619  0.00  0.00    +0.000 A 
ATOM     12  C   UNL     1      10.641  11.629  20.111  0.00  0.00    +0.000 A 
ATOM     13  C   UNL     1      10.115  11.510  18.828  0.00  0.00    +0.000 A 
ATOM     14  C   UNL     1       9.917  12.647  18.034  0.00  0.00    +0.000 A 
ATOM     15  C   UNL     1      10.180  13.926  18.541  0.00  0.00    +0.000 A 
ENDBRANCH   1   6
BRANCH   1  16
ATOM     16  C   UNL     1       6.473  15.837  20.857  0.00  0.00    +0.000 C 
ATOM     17  O   UNL     1       6.248  16.847  21.517  0.00  0.00    +0.000 OA
ATOM     18  N   UNL     1       5.584  15.256  19.949  0.00  0.00    +0.000 N 
ATOM     19  H   UNL     1       5.837  14.326  19.613  0.00  0.00    +0.000 HD
BRANCH  18  20
ATOM     20  N   UNL     1       4.239  15.680  19.947  0.00  0.00    +0.000 NA
ATOM     21  C   UNL     1       3.281  14.580  20.143  0.00  0.00    +0.000 C 
ATOM     22  C   UNL     1       3.070  13.727  18.886  0.00  0.00    +0.000 C 
ATOM     23  O   UNL     1       2.665  14.531  17.774  0.00  0.00    +0.000 OA
ATOM     24  C   UNL     1       3.641  15.546  17.501  0.00  0.00    +0.000 C 
ATOM     25  C   UNL     1       3.894  16.436  18.725  0.00  0.00    +0.000 C 
ENDBRANCH  18  20
ENDBRANCH   1  16
BRANCH   1  26
ATOM     26  C   UNL     1       7.925  14.310  22.203  0.00  0.00    +0.000 C 
BRANCH  26  27
ATOM     27  C   UNL     1       7.235  12.933  22.295  0.00  0.00    +0.000 C 
ATOM     28  C   UNL     1       8.200  11.912  22.917  0.00  0.00    +0.000 C 
ATOM     29  C   UNL     1       5.947  12.945  23.104  0.00  0.00    +0.000 C 
ENDBRANCH  26  27
ENDBRANCH   1  26
TORSDOF 5
ENDMDL
MODEL 5
REMARK VINA RESULT:      -5.5      2.772      5.970
REMARK  Name = 
REMARK  7 active torsions:
REMARK  status: ('A' for Active; 'I' for Inactive)
REMARK    1  A    between atoms: N_5  and  C_6
REMARK    2  A    between atoms: C_6  and  C_7
REMARK    3  A    between atoms: C_6  and  C_11
REMARK    4  A    between atoms: C_7  and  C_8
REMARK    5  A    between atoms: C_8  and  C_9
REMARK    6  A    between atoms: C_8  and  C_10
REMARK    7  A    between atoms: N_13  and  N_14
REMARK                            x       y       z     vdW  Elec       q    Type
REMARK                         _______ _______ _______ _____ _____    ______ ____
ROOT
ATOM      1  C   UNL     1      -2.989  13.175  22.241  0.00  0.00    +0.000 C 
ENDROOT
BRANCH   1   6
ATOM      2  C   UNL     1      -2.141  17.892  20.480  0.00  0.00    +0.000 C 
ATOM      3  C   UNL     1      -2.297  16.563  20.590  0.00  0.00    +0.000 C 
ATOM      4  C   UNL     1      -3.634  15.886  20.724  0.00  0.00    +0.000 C 
ATOM      5  C   UNL     1      -4.027  15.481  22.154  0.00  0.00    +0.000 C 
ATOM      6  N   UNL     1      -3.055  14.564  22.884  0.00  0.00    +0.000 NA
ATOM      7  S   UNL     1      -1.602  15.387  23.344  0.00  0.00    +0.000 S 
ATOM      8  O   UNL     1      -0.950  14.605  24.367  0.00  0.00    +0.000 OA
ATOM      9  O   UNL     1      -1.907  16.774  23.600  0.00  0.00    +0.000 OA
ATOM     10  C   UNL     1      -0.603  15.263  21.886  0.00  0.00    +0.000 A 
ATOM     11  C   UNL     1       0.586  14.521  21.962  0.00  0.00    +0.000 A 
ATOM     12  C   UNL     1       1.224  14.124  20.792  0.00  0.00    +0.000 A 
ATOM     13  C   UNL     1       0.704  14.512  19.560  0.00  0.00    +0.000 A 
ATOM     14  C   UNL     1      -0.430  15.329  19.495  0.00  0.00    +0.000 A 
ATOM     15  C   UNL     1      -1.100  15.716  20.664  0.00  0.00    +0.000 A 
ENDBRANCH   1   6
BRANCH   1  16
ATOM     16  C   UNL     1      -4.386  12.689  21.824  0.00  0.00    +0.000 C 
ATOM     17  O   UNL     1      -5.263  12.463  22.653  0.00  0.00    +0.000 OA
ATOM     18  N   UNL     1      -4.553  12.614  20.439  0.00  0.00    +0.000 N 
ATOM     19  H   UNL     1      -3.695  12.651  19.886  0.00  0.00    +0.000 HD
BRANCH  18  20
ATOM     20  N   UNL     1      -5.715  12.002  19.925  0.00  0.00    +0.000 NA
ATOM     21  C   UNL     1      -5.459  11.174  18.734  0.00  0.00    +0.000 C 
ATOM     22  C   UNL     1      -5.260  11.996  17.455  0.00  0.00    +0.000 C 
ATOM     23  O   UNL     1      -6.375  12.861  17.215  0.00  0.00    +0.000 OA
ATOM     24  C   UNL     1      -6.574  13.750  18.323  0.00  0.00    +0.000 C 
ATOM     25  C   UNL     1      -6.781  12.983  19.636  0.00  0.00    +0.000 C 
ENDBRANCH  18  20
ENDBRANCH   1  16
BRANCH   1  26
ATOM     26  C   UNL     1      -2.260  12.022  22.959  0.00  0.00    +0.000 C 
BRANCH  26  27
ATOM     27  C   UNL     1      -0.958  11.443  22.368  0.00  0.00    +0.000 C 
ATOM     28  C   UNL     1      -0.645  10.093  23.031  0.00  0.00    +0.000 C 
ATOM     29  C   UNL     1      -1.003  11.247  20.860  0.00  0.00    +0.000 C 
ENDBRANCH  26  27
ENDBRANCH   1  26
TORSDOF 5
ENDMDL
MODEL 6
REMARK VINA RESULT:      -5.5      4.331      7.228
REMARK  Name = 
REMARK  7 active torsions:
REMARK  status: ('A' for Active; 'I' for Inactive)
REMARK    1  A    between atoms: N_5  and  C_6
REMARK    2  A    between atoms: C_6  and  C_7
REMARK    3  A    between atoms: C_6  and  C_11
REMARK    4  A    between atoms: C_7  and  C_8
REMARK    5  A    between atoms: C_8  and  C_9
REMARK    6  A    between atoms: C_8  and  C_10
REMARK    7  A    between atoms: N_13  and  N_14
REMARK                            x       y       z     vdW  Elec       q    Type
REMARK                         _______ _______ _______ _____ _____    ______ ____
ROOT
ATOM      1  C   UNL     1      -0.417  13.529  19.319  0.00  0.00    +0.000 C 
ENDROOT
BRANCH   1   6
ATOM      2  C   UNL     1       0.904  18.456  19.520  0.00  0.00    +0.000 C 
ATOM      3  C   UNL     1       0.649  17.203  19.112  0.00  0.00    +0.000 C 
ATOM      4  C   UNL     1      -0.737  16.658  18.905  0.00  0.00    +0.000 C 
ATOM      5  C   UNL     1      -1.282  15.790  20.052  0.00  0.00    +0.000 C 
ATOM      6  N   UNL     1      -0.444  14.579  20.434  0.00  0.00    +0.000 NA
ATOM      7  S   UNL     1       1.016  15.028  21.252  0.00  0.00    +0.000 S 
ATOM      8  O   UNL     1       1.519  13.862  21.939  0.00  0.00    +0.000 OA
ATOM      9  O   UNL     1       0.785  16.242  21.995  0.00  0.00    +0.000 OA
ATOM     10  C   UNL     1       2.128  15.357  19.914  0.00  0.00    +0.000 A 
ATOM     11  C   UNL     1       3.253  14.530  19.771  0.00  0.00    +0.000 A 
ATOM     12  C   UNL     1       3.963  14.536  18.575  0.00  0.00    +0.000 A 
ATOM     13  C   UNL     1       3.582  15.401  17.554  0.00  0.00    +0.000 A 
ATOM     14  C   UNL     1       2.516  16.290  17.739  0.00  0.00    +0.000 A 
ATOM     15  C   UNL     1       1.774  16.278  18.927  0.00  0.00    +0.000 A 
ENDBRANCH   1   6
BRANCH   1  16
ATOM     16  C   UNL     1      -1.714  12.705  19.299  0.00  0.00    +0.000 C 
ATOM     17  O   UNL     1      -2.368  12.510  20.320  0.00  0.00    +0.000 OA
ATOM     18  N   UNL     1      -2.083  12.290  18.017  0.00  0.00    +0.000 N 
ATOM     19  H   UNL     1      -1.359  12.363  17.302  0.00  0.00    +0.000 HD
BRANCH  18  20
ATOM     20  N   UNL     1      -3.142  11.369  17.879  0.00  0.00    +0.000 NA
ATOM     21  C   UNL     1      -2.704   9.965  17.934  0.00  0.00    +0.000 C 
ATOM     22  C   UNL     1      -2.043   9.484  16.636  0.00  0.00    +0.000 C 
ATOM     23  O   UNL     1      -2.905   9.679  15.511  0.00  0.00    +0.000 OA
ATOM     24  C   UNL     1      -3.259  11.063  15.378  0.00  0.00    +0.000 C 
ATOM     25  C   UNL     1      -3.928  11.603  16.649  0.00  0.00    +0.000 C 
ENDBRANCH  18  20
ENDBRANCH   1  16
BRANCH   1  26
ATOM     26  C   UNL     1       0.780  12.566  19.190  0.00  0.00    +0.000 C 
BRANCH  26  27
ATOM     27  C   UNL     1       0.581  11.051  19.407  0.00  0.00    +0.000 C 
ATOM     28  C   UNL     1       1.452  10.267  18.413  0.00  0.00    +0.000 C 
ATOM     29  C   UNL     1       0.910  10.585  20.817  0.00  0.00    +0.000 C 
ENDBRANCH  26  27
ENDBRANCH   1  26
TORSDOF 5
ENDMDL
MODEL 7
REMARK VINA RESULT:      -5.5      4.057      6.516
REMARK  Name = 
REMARK  7 active torsions:
REMARK  status: ('A' for Active; 'I' for Inactive)
REMARK    1  A    between atoms: N_5  and  C_6
REMARK    2  A    between atoms: C_6  and  C_7
REMARK    3  A    between atoms: C_6  and  C_11
REMARK    4  A    between atoms: C_7  and  C_8
REMARK    5  A    between atoms: C_8  and  C_9
REMARK    6  A    between atoms: C_8  and  C_10
REMARK    7  A    between atoms: N_13  and  N_14
REMARK                            x       y       z     vdW  Elec       q    Type
REMARK                         _______ _______ _______ _____ _____    ______ ____
ROOT
ATOM      1  C   UNL     1       0.199  13.738  19.833  0.00  0.00    +0.000 C 
ENDROOT
BRANCH   1   6
ATOM      2  C   UNL     1      -2.825  11.981  23.552  0.00  0.00    +0.000 C 
ATOM      3  C   UNL     1      -1.765  12.326  22.805  0.00  0.00    +0.000 C 
ATOM      4  C   UNL     1      -1.286  13.742  22.637  0.00  0.00    +0.000 C 
ATOM      5  C   UNL     1      -1.716  14.433  21.333  0.00  0.00    +0.000 C 
ATOM      6  N   UNL     1      -1.319  13.735  20.039  0.00  0.00    +0.000 NA
ATOM      7  S   UNL     1      -2.239  12.293  19.768  0.00  0.00    +0.000 S 
ATOM      8  O   UNL     1      -2.117  11.942  18.372  0.00  0.00    +0.000 OA
ATOM      9  O   UNL     1      -3.551  12.455  20.345  0.00  0.00    +0.000 OA
ATOM     10  C   UNL     1      -1.337  11.075  20.685  0.00  0.00    +0.000 A 
ATOM     11  C   UNL     1      -0.734  10.025  19.974  0.00  0.00    +0.000 A 
ATOM     12  C   UNL     1       0.238   9.246  20.592  0.00  0.00    +0.000 A 
ATOM     13  C   UNL     1       0.564   9.483  21.925  0.00  0.00    +0.000 A 
ATOM     14  C   UNL     1      -0.108  10.472  22.654  0.00  0.00    +0.000 A 
ATOM     15  C   UNL     1      -1.071  11.282  22.039  0.00  0.00    +0.000 A 
ENDBRANCH   1   6
BRANCH   1  16
ATOM     16  C   UNL     1       0.772  15.160  19.935  0.00  0.00    +0.000 C 
ATOM     17  O   UNL     1       1.528  15.485  20.846  0.00  0.00    +0.000 OA
ATOM     18  N   UNL     1       0.405  15.981  18.865  0.00  0.00    +0.000 N 
ATOM     19  H   UNL     1      -0.365  15.640  18.289  0.00  0.00    +0.000 HD
BRANCH  18  20
ATOM     20  N   UNL     1       0.701  17.358  18.930  0.00  0.00    +0.000 NA
ATOM     21  C   UNL     1      -0.365  18.210  18.377  0.00  0.00    +0.000 C 
ATOM     22  C   UNL     1      -0.390  18.232  16.844  0.00  0.00    +0.000 C 
ATOM     23  O   UNL     1       0.877  18.630  16.309  0.00  0.00    +0.000 OA
ATOM     24  C   UNL     1       1.915  17.746  16.754  0.00  0.00    +0.000 C 
ATOM     25  C   UNL     1       1.990  17.683  18.285  0.00  0.00    +0.000 C 
ENDBRANCH  18  20
ENDBRANCH   1  16
BRANCH   1  26
ATOM     26  C   UNL     1       0.815  13.047  18.600  0.00  0.00    +0.000 C 
BRANCH  26  27
ATOM     27  C   UNL     1       2.239  12.458  18.675  0.00  0.00    +0.000 C 
ATOM     28  C   UNL     1       2.263  11.077  18.001  0.00  0.00    +0.000 C 
ATOM     29  C   UNL     1       3.301  13.335  18.030  0.00  0.00    +0.000 C 
ENDBRANCH  26  27
ENDBRANCH   1  26
TORSDOF 5
ENDMDL
MODEL 8
REMARK VINA RESULT:      -5.5      2.426      6.901
REMARK  Name = 
REMARK  7 active torsions:
REMARK  status: ('A' for Active; 'I' for Inactive)
REMARK    1  A    between atoms: N_5  and  C_6
REMARK    2  A    between atoms: C_6  and  C_7
REMARK    3  A    between atoms: C_6  and  C_11
REMARK    4  A    between atoms: C_7  and  C_8
REMARK    5  A    between atoms: C_8  and  C_9
REMARK    6  A    between atoms: C_8  and  C_10
REMARK    7  A    between atoms: N_13  and  N_14
REMARK                            x       y       z     vdW  Elec       q    Type
REMARK                         _______ _______ _______ _____ _____    ______ ____
ROOT
ATOM      1  C   UNL     1      -1.883  12.848  20.958  0.00  0.00    +0.000 C 
ENDROOT
BRANCH   1   6
ATOM      2  C   UNL     1       0.651   9.637  17.902  0.00  0.00    +0.000 C 
ATOM      3  C   UNL     1      -0.223  10.181  18.764  0.00  0.00    +0.000 C 
ATOM      4  C   UNL     1      -1.326  11.118  18.358  0.00  0.00    +0.000 C 
ATOM      5  C   UNL     1      -1.040  12.612  18.585  0.00  0.00    +0.000 C 
ATOM      6  N   UNL     1      -0.693  13.020  20.010  0.00  0.00    +0.000 NA
ATOM      7  S   UNL     1       0.886  12.481  20.476  0.00  0.00    +0.000 S 
ATOM      8  O   UNL     1       1.298  13.248  21.628  0.00  0.00    +0.000 OA
ATOM      9  O   UNL     1       1.735  12.445  19.310  0.00  0.00    +0.000 OA
ATOM     10  C   UNL     1       0.585  10.828  21.038  0.00  0.00    +0.000 A 
ATOM     11  C   UNL     1       0.817  10.538  22.392  0.00  0.00    +0.000 A 
ATOM     12  C   UNL     1       0.295   9.374  22.944  0.00  0.00    +0.000 A 
ATOM     13  C   UNL     1      -0.405   8.484  22.135  0.00  0.00    +0.000 A 
ATOM     14  C   UNL     1      -0.552   8.735  20.766  0.00  0.00    +0.000 A 
ATOM     15  C   UNL     1      -0.055   9.916  20.199  0.00  0.00    +0.000 A 
ENDBRANCH   1   6
BRANCH   1  16
ATOM     16  C   UNL     1      -3.119  13.602  20.443  0.00  0.00    +0.000 C 
ATOM     17  O   UNL     1      -3.164  14.829  20.428  0.00  0.00    +0.000 OA
ATOM     18  N   UNL     1      -4.111  12.756  19.941  0.00  0.00    +0.000 N 
ATOM     19  H   UNL     1      -4.017  11.769  20.185  0.00  0.00    +0.000 HD
BRANCH  18  20
ATOM     20  N   UNL     1      -5.370  13.301  19.616  0.00  0.00    +0.000 NA
ATOM     21  C   UNL     1      -6.344  13.215  20.717  0.00  0.00    +0.000 C 
ATOM     22  C   UNL     1      -6.936  11.812  20.895  0.00  0.00    +0.000 C 
ATOM     23  O   UNL     1      -7.532  11.342  19.682  0.00  0.00    +0.000 OA
ATOM     24  C   UNL     1      -6.569  11.319  18.620  0.00  0.00    +0.000 C 
ATOM     25  C   UNL     1      -5.940  12.700  18.393  0.00  0.00    +0.000 C 
ENDBRANCH  18  20
ENDBRANCH   1  16
BRANCH   1  26
ATOM     26  C   UNL     1      -1.722  13.137  22.464  0.00  0.00    +0.000 C 
BRANCH  26  27
ATOM     27  C   UNL     1      -2.953  13.508  23.316  0.00  0.00    +0.000 C 
ATOM     28  C   UNL     1      -3.603  12.231  23.870  0.00  0.00    +0.000 C 
ATOM     29  C   UNL     1      -2.638  14.439  24.478  0.00  0.00    +0.000 C 
ENDBRANCH  26  27
ENDBRANCH   1  26
TORSDOF 5
ENDMDL
MODEL 9
REMARK VINA RESULT:      -5.5      9.318     13.519
REMARK  Name = 
REMARK  7 active torsions:
REMARK  status: ('A' for Active; 'I' for Inactive)
REMARK    1  A    between atoms: N_5  and  C_6
REMARK    2  A    between atoms: C_6  and  C_7
REMARK    3  A    between atoms: C_6  and  C_11
REMARK    4  A    between atoms: C_7  and  C_8
REMARK    5  A    between atoms: C_8  and  C_9
REMARK    6  A    between atoms: C_8  and  C_10
REMARK    7  A    between atoms: N_13  and  N_14
REMARK                            x       y       z     vdW  Elec       q    Type
REMARK                         _______ _______ _______ _____ _____    ______ ____
ROOT
ATOM      1  C   UNL     1       7.867  14.905  19.855  0.00  0.00    +0.000 C 
ENDROOT
BRANCH   1   6
ATOM      2  C   UNL     1      11.812  13.462  16.952  0.00  0.00    +0.000 C 
ATOM      3  C   UNL     1      10.605  13.571  17.529  0.00  0.00    +0.000 C 
ATOM      4  C   UNL     1       9.630  14.676  17.227  0.00  0.00    +0.000 C 
ATOM      5  C   UNL     1       9.595  15.823  18.251  0.00  0.00    +0.000 C 
ATOM      6  N   UNL     1       9.297  15.428  19.691  0.00  0.00    +0.000 NA
ATOM      7  S   UNL     1      10.626  14.595  20.428  0.00  0.00    +0.000 S 
ATOM      8  O   UNL     1      10.443  14.641  21.859  0.00  0.00    +0.000 OA
ATOM      9  O   UNL     1      11.859  15.077  19.856  0.00  0.00    +0.000 OA
ATOM     10  C   UNL     1      10.361  12.917  19.928  0.00  0.00    +0.000 A 
ATOM     11  C   UNL     1      10.082  11.967  20.923  0.00  0.00    +0.000 A 
ATOM     12  C   UNL     1       9.552  10.732  20.566  0.00  0.00    +0.000 A 
ATOM     13  C   UNL     1       9.354  10.432  19.221  0.00  0.00    +0.000 A 
ATOM     14  C   UNL     1       9.722  11.349  18.229  0.00  0.00    +0.000 A 
ATOM     15  C   UNL     1      10.232  12.607  18.573  0.00  0.00    +0.000 A 
ENDBRANCH   1   6
BRANCH   1  16
ATOM     16  C   UNL     1       6.836  15.954  19.409  0.00  0.00    +0.000 C 
ATOM     17  O   UNL     1       7.053  17.157  19.521  0.00  0.00    +0.000 OA
ATOM     18  N   UNL     1       5.703  15.394  18.813  0.00  0.00    +0.000 N 
ATOM     19  H   UNL     1       5.577  14.392  18.954  0.00  0.00    +0.000 HD
BRANCH  18  20
ATOM     20  N   UNL     1       4.599  16.227  18.535  0.00  0.00    +0.000 NA
ATOM     21  C   UNL     1       3.810  16.566  19.730  0.00  0.00    +0.000 C 
ATOM     22  C   UNL     1       2.900  15.425  20.201  0.00  0.00    +0.000 C 
ATOM     23  O   UNL     1       2.030  14.988  19.152  0.00  0.00    +0.000 OA
ATOM     24  C   UNL     1       2.787  14.552  18.014  0.00  0.00    +0.000 C 
ATOM     25  C   UNL     1       3.718  15.656  17.495  0.00  0.00    +0.000 C 
ENDBRANCH  18  20
ENDBRANCH   1  16
BRANCH   1  26
ATOM     26  C   UNL     1       7.410  14.305  21.200  0.00  0.00    +0.000 C 
BRANCH  26  27
ATOM     27  C   UNL     1       6.570  15.153  22.179  0.00  0.00    +0.000 C 
ATOM     28  C   UNL     1       5.376  14.328  22.684  0.00  0.00    +0.000 C 
ATOM     29  C   UNL     1       7.354  15.662  23.378  0.00  0.00    +0.000 C 
ENDBRANCH  26  27
ENDBRANCH   1  26
TORSDOF 5
ENDMDL
