MODEL 1
REMARK VINA RESULT:      -7.8      0.000      0.000
REMARK  Name = 
REMARK  5 active torsions:
REMARK  status: ('A' for Active; 'I' for Inactive)
REMARK    1  A    between atoms: C_4  and  C_5
REMARK    2  A    between atoms: C_8  and  C_9
REMARK    3  A    between atoms: C_9  and  N_10
REMARK    4  A    between atoms: C_14  and  C_15
REMARK    5  A    between atoms: C_15  and  N_16
REMARK                            x       y       z     vdW  Elec       q    Type
REMARK                         _______ _______ _______ _____ _____    ______ ____
ROOT
ATOM      1  C   UNL     1       3.633   3.369  18.367  0.00  0.00    +0.000 C 
ENDROOT
BRANCH   1   5
ATOM      2  C   UNL     1       6.017   4.401  15.942  0.00  0.00    +0.000 A 
ATOM      3  N   UNL     1       6.697   4.766  17.012  0.00  0.00    +0.000 NA
ATOM      4  N   UNL     1       5.899   4.496  18.103  0.00  0.00    +0.000 NA
ATOM      5  C   UNL     1       4.785   3.977  17.629  0.00  0.00    +0.000 A 
ATOM      6  O   UNL     1       4.773   3.909  16.257  0.00  0.00    +0.000 OA
BRANCH   2  10
ATOM      7  C   UNL     1       7.131   4.289  11.818  0.00  0.00    +0.000 A 
ATOM      8  C   UNL     1       6.100   3.483  12.294  0.00  0.00    +0.000 A 
ATOM      9  C   UNL     1       5.760   3.516  13.649  0.00  0.00    +0.000 A 
ATOM     10  C   UNL     1       6.433   4.363  14.545  0.00  0.00    +0.000 A 
ATOM     11  C   UNL     1       7.475   5.163  14.050  0.00  0.00    +0.000 A 
ATOM     12  C   UNL     1       7.820   5.124  12.694  0.00  0.00    +0.000 A 
ENDBRANCH   2  10
ENDBRANCH   1   5
BRANCH   1  13
ATOM     13  N   UNL     1       3.217   3.970  19.655  0.00  0.00    +0.000 NA
ATOM     14  C   UNL     1       2.960   2.987  20.707  0.00  0.00    +0.000 C 
ATOM     15  C   UNL     1       1.463   2.760  20.696  0.00  0.00    +0.000 C 
ATOM     16  C   UNL     1       0.895   4.110  20.302  0.00  0.00    +0.000 C 
ATOM     17  C   UNL     1       2.019   4.840  19.551  0.00  0.00    +0.000 C 
BRANCH  17  18
ATOM     18  C   UNL     1       2.322   6.223  20.165  0.00  0.00    +0.000 C 
BRANCH  18  19
ATOM     19  N   UNL     1       2.280   7.301  19.197  0.00  0.00    +0.000 N 
ATOM     20  C   UNL     1       2.859   7.342  17.969  0.00  0.00    +0.000 A 
ATOM     21  N   UNL     1       2.625   8.505  17.409  0.00  0.00    +0.000 NA
ATOM     22  C   UNL     1       1.874   9.149  18.350  0.00  0.00    +0.000 A 
ATOM     23  N   UNL     1       1.623   8.446  19.458  0.00  0.00    +0.000 NA
ENDBRANCH  18  19
ENDBRANCH  17  18
ENDBRANCH   1  13
TORSDOF 5
ENDMDL
MODEL 2
REMARK VINA RESULT:      -7.7      0.462      1.105
REMARK  Name = 
REMARK  5 active torsions:
REMARK  status: ('A' for Active; 'I' for Inactive)
REMARK    1  A    between atoms: C_4  and  C_5
REMARK    2  A    between atoms: C_8  and  C_9
REMARK    3  A    between atoms: C_9  and  N_10
REMARK    4  A    between atoms: C_14  and  C_15
REMARK    5  A    between atoms: C_15  and  N_16
REMARK                            x       y       z     vdW  Elec       q    Type
REMARK                         _______ _______ _______ _____ _____    ______ ____
ROOT
ATOM      1  C   UNL     1       4.036   3.023  19.049  0.00  0.00    +0.000 C 
ENDROOT
BRANCH   1   5
ATOM      2  C   UNL     1       6.015   4.321  16.398  0.00  0.00    +0.000 A 
ATOM      3  N   UNL     1       6.743   4.787  17.394  0.00  0.00    +0.000 NA
ATOM      4  N   UNL     1       6.098   4.431  18.559  0.00  0.00    +0.000 NA
ATOM      5  C   UNL     1       5.021   3.764  18.200  0.00  0.00    +0.000 A 
ATOM      6  O   UNL     1       4.883   3.675  16.835  0.00  0.00    +0.000 OA
BRANCH   2  10
ATOM      7  C   UNL     1       6.938   4.295  12.226  0.00  0.00    +0.000 A 
ATOM      8  C   UNL     1       7.708   5.040  13.115  0.00  0.00    +0.000 A 
ATOM      9  C   UNL     1       7.383   5.054  14.474  0.00  0.00    +0.000 A 
ATOM     10  C   UNL     1       6.294   4.316  14.966  0.00  0.00    +0.000 A 
ATOM     11  C   UNL     1       5.525   3.575  14.055  0.00  0.00    +0.000 A 
ATOM     12  C   UNL     1       5.846   3.567  12.693  0.00  0.00    +0.000 A 
ENDBRANCH   2  10
ENDBRANCH   1   5
BRANCH   1  13
ATOM     13  N   UNL     1       3.320   3.761  20.115  0.00  0.00    +0.000 NA
ATOM     14  C   UNL     1       2.737   2.894  21.139  0.00  0.00    +0.000 C 
ATOM     15  C   UNL     1       1.289   2.707  20.739  0.00  0.00    +0.000 C 
ATOM     16  C   UNL     1       0.920   4.025  20.087  0.00  0.00    +0.000 C 
ATOM     17  C   UNL     1       2.241   4.647  19.610  0.00  0.00    +0.000 C 
BRANCH  17  18
ATOM     18  C   UNL     1       2.439   6.076  20.159  0.00  0.00    +0.000 C 
BRANCH  18  19
ATOM     19  N   UNL     1       2.461   7.089  19.122  0.00  0.00    +0.000 N 
ATOM     20  C   UNL     1       3.144   7.066  17.948  0.00  0.00    +0.000 A 
ATOM     21  N   UNL     1       2.937   8.186  17.295  0.00  0.00    +0.000 NA
ATOM     22  C   UNL     1       2.095   8.869  18.126  0.00  0.00    +0.000 A 
ATOM     23  N   UNL     1       1.762   8.231  19.251  0.00  0.00    +0.000 NA
ENDBRANCH  18  19
ENDBRANCH  17  18
ENDBRANCH   1  13
TORSDOF 5
ENDMDL
MODEL 3
REMARK VINA RESULT:      -7.7      1.392      1.878
REMARK  Name = 
REMARK  5 active torsions:
REMARK  status: ('A' for Active; 'I' for Inactive)
REMARK    1  A    between atoms: C_4  and  C_5
REMARK    2  A    between atoms: C_8  and  C_9
REMARK    3  A    between atoms: C_9  and  N_10
REMARK    4  A    between atoms: C_14  and  C_15
REMARK    5  A    between atoms: C_15  and  N_16
REMARK                            x       y       z     vdW  Elec       q    Type
REMARK                         _______ _______ _______ _____ _____    ______ ____
ROOT
ATOM      1  C   UNL     1       5.926   4.799  19.257  0.00  0.00    +0.000 C 
ENDROOT
BRANCH   1   5
ATOM      2  C   UNL     1       6.702   5.401  15.842  0.00  0.00    +0.000 A 
ATOM      3  N   UNL     1       7.320   6.453  16.342  0.00  0.00    +0.000 NA
ATOM      4  N   UNL     1       7.088   6.442  17.701  0.00  0.00    +0.000 NA
ATOM      5  C   UNL     1       6.350   5.380  17.945  0.00  0.00    +0.000 A 
ATOM      6  O   UNL     1       6.037   4.678  16.805  0.00  0.00    +0.000 OA
BRANCH   2  10
ATOM      7  C   UNL     1       6.848   3.857  11.860  0.00  0.00    +0.000 A 
ATOM      8  C   UNL     1       7.724   4.862  12.261  0.00  0.00    +0.000 A 
ATOM      9  C   UNL     1       7.652   5.371  13.560  0.00  0.00    +0.000 A 
ATOM     10  C   UNL     1       6.714   4.875  14.482  0.00  0.00    +0.000 A 
ATOM     11  C   UNL     1       5.834   3.867  14.059  0.00  0.00    +0.000 A 
ATOM     12  C   UNL     1       5.902   3.364  12.755  0.00  0.00    +0.000 A 
ENDBRANCH   2  10
ENDBRANCH   1   5
BRANCH   1  13
ATOM     13  N   UNL     1       4.479   4.708  19.561  0.00  0.00    +0.000 NA
ATOM     14  C   UNL     1       3.946   3.348  19.476  0.00  0.00    +0.000 C 
ATOM     15  C   UNL     1       3.336   3.235  18.095  0.00  0.00    +0.000 C 
ATOM     16  C   UNL     1       2.816   4.631  17.813  0.00  0.00    +0.000 C 
ATOM     17  C   UNL     1       3.632   5.577  18.706  0.00  0.00    +0.000 C 
BRANCH  17  18
ATOM     18  C   UNL     1       2.728   6.460  19.592  0.00  0.00    +0.000 C 
BRANCH  18  19
ATOM     19  N   UNL     1       2.323   7.694  18.948  0.00  0.00    +0.000 N 
ATOM     20  C   UNL     1       2.654   8.133  17.706  0.00  0.00    +0.000 A 
ATOM     21  N   UNL     1       2.122   9.315  17.499  0.00  0.00    +0.000 NA
ATOM     22  C   UNL     1       1.452   9.553  18.666  0.00  0.00    +0.000 A 
ATOM     23  N   UNL     1       1.533   8.581  19.578  0.00  0.00    +0.000 NA
ENDBRANCH  18  19
ENDBRANCH  17  18
ENDBRANCH   1  13
TORSDOF 5
ENDMDL
MODEL 4
REMARK VINA RESULT:      -7.7      2.090      3.222
REMARK  Name = 
REMARK  5 active torsions:
REMARK  status: ('A' for Active; 'I' for Inactive)
REMARK    1  A    between atoms: C_4  and  C_5
REMARK    2  A    between atoms: C_8  and  C_9
REMARK    3  A    between atoms: C_9  and  N_10
REMARK    4  A    between atoms: C_14  and  C_15
REMARK    5  A    between atoms: C_15  and  N_16
REMARK                            x       y       z     vdW  Elec       q    Type
REMARK                         _______ _______ _______ _____ _____    ______ ____
ROOT
ATOM      1  C   UNL     1       5.062   5.499  18.892  0.00  0.00    +0.000 C 
ENDROOT
BRANCH   1   5
ATOM      2  C   UNL     1       6.983   4.761  15.995  0.00  0.00    +0.000 A 
ATOM      3  N   UNL     1       7.884   4.403  16.888  0.00  0.00    +0.000 NA
ATOM      4  N   UNL     1       7.343   4.671  18.128  0.00  0.00    +0.000 NA
ATOM      5  C   UNL     1       6.144   5.169  17.911  0.00  0.00    +0.000 A 
ATOM      6  O   UNL     1       5.851   5.284  16.574  0.00  0.00    +0.000 OA
BRANCH   2  10
ATOM      7  C   UNL     1       6.900   4.254  11.752  0.00  0.00    +0.000 A 
ATOM      8  C   UNL     1       6.091   3.473  12.573  0.00  0.00    +0.000 A 
ATOM      9  C   UNL     1       6.143   3.636  13.960  0.00  0.00    +0.000 A 
ATOM     10  C   UNL     1       6.992   4.589  14.546  0.00  0.00    +0.000 A 
ATOM     11  C   UNL     1       7.806   5.363  13.705  0.00  0.00    +0.000 A 
ATOM     12  C   UNL     1       7.759   5.194  12.316  0.00  0.00    +0.000 A 
ENDBRANCH   2  10
ENDBRANCH   1   5
BRANCH   1  13
ATOM     13  N   UNL     1       3.968   4.522  19.099  0.00  0.00    +0.000 NA
ATOM     14  C   UNL     1       4.362   3.136  18.840  0.00  0.00    +0.000 C 
ATOM     15  C   UNL     1       3.920   2.846  17.421  0.00  0.00    +0.000 C 
ATOM     16  C   UNL     1       2.659   3.670  17.258  0.00  0.00    +0.000 C 
ATOM     17  C   UNL     1       2.754   4.802  18.293  0.00  0.00    +0.000 C 
BRANCH  17  18
ATOM     18  C   UNL     1       1.516   4.851  19.213  0.00  0.00    +0.000 C 
BRANCH  18  19
ATOM     19  N   UNL     1       1.637   4.002  20.382  0.00  0.00    +0.000 N 
ATOM     20  C   UNL     1       2.292   4.270  21.542  0.00  0.00    +0.000 A 
ATOM     21  N   UNL     1       2.205   3.236  22.346  0.00  0.00    +0.000 NA
ATOM     22  C   UNL     1       1.463   2.349  21.619  0.00  0.00    +0.000 A 
ATOM     23  N   UNL     1       1.078   2.779  20.415  0.00  0.00    +0.000 NA
ENDBRANCH  18  19
ENDBRANCH  17  18
ENDBRANCH   1  13
TORSDOF 5
ENDMDL
MODEL 5
REMARK VINA RESULT:      -7.6      1.600      3.555
REMARK  Name = 
REMARK  5 active torsions:
REMARK  status: ('A' for Active; 'I' for Inactive)
REMARK    1  A    between atoms: C_4  and  C_5
REMARK    2  A    between atoms: C_8  and  C_9
REMARK    3  A    between atoms: C_9  and  N_10
REMARK    4  A    between atoms: C_14  and  C_15
REMARK    5  A    between atoms: C_15  and  N_16
REMARK                            x       y       z     vdW  Elec       q    Type
REMARK                         _______ _______ _______ _____ _____    ______ ____
ROOT
ATOM      1  C   UNL     1       5.129   5.516  19.159  0.00  0.00    +0.000 C 
ENDROOT
BRANCH   1   5
ATOM      2  C   UNL     1       6.922   4.770  16.183  0.00  0.00    +0.000 A 
ATOM      3  N   UNL     1       7.873   4.445  17.037  0.00  0.00    +0.000 NA
ATOM      4  N   UNL     1       7.387   4.722  18.298  0.00  0.00    +0.000 NA
ATOM      5  C   UNL     1       6.169   5.192  18.132  0.00  0.00    +0.000 A 
ATOM      6  O   UNL     1       5.809   5.279  16.809  0.00  0.00    +0.000 OA
BRANCH   2  10
ATOM      7  C   UNL     1       6.862   4.201  11.948  0.00  0.00    +0.000 A 
ATOM      8  C   UNL     1       7.738   5.116  12.526  0.00  0.00    +0.000 A 
ATOM      9  C   UNL     1       7.733   5.306  13.910  0.00  0.00    +0.000 A 
ATOM     10  C   UNL     1       6.864   4.576  14.739  0.00  0.00    +0.000 A 
ATOM     11  C   UNL     1       5.983   3.662  14.139  0.00  0.00    +0.000 A 
ATOM     12  C   UNL     1       5.983   3.478  12.752  0.00  0.00    +0.000 A 
ENDBRANCH   2  10
ENDBRANCH   1   5
BRANCH   1  13
ATOM     13  N   UNL     1       3.704   5.510  18.754  0.00  0.00    +0.000 NA
ATOM     14  C   UNL     1       3.372   6.534  17.763  0.00  0.00    +0.000 C 
ATOM     15  C   UNL     1       2.811   7.698  18.552  0.00  0.00    +0.000 C 
ATOM     16  C   UNL     1       2.102   7.037  19.719  0.00  0.00    +0.000 C 
ATOM     17  C   UNL     1       2.758   5.658  19.888  0.00  0.00    +0.000 C 
BRANCH  17  18
ATOM     18  C   UNL     1       1.721   4.516  19.856  0.00  0.00    +0.000 C 
BRANCH  18  19
ATOM     19  N   UNL     1       2.183   3.343  19.141  0.00  0.00    +0.000 N 
ATOM     20  C   UNL     1       3.065   2.401  19.567  0.00  0.00    +0.000 A 
ATOM     21  N   UNL     1       3.257   1.515  18.618  0.00  0.00    +0.000 NA
ATOM     22  C   UNL     1       2.443   1.964  17.617  0.00  0.00    +0.000 A 
ATOM     23  N   UNL     1       1.753   3.073  17.896  0.00  0.00    +0.000 NA
ENDBRANCH  18  19
ENDBRANCH  17  18
ENDBRANCH   1  13
TORSDOF 5
ENDMDL
MODEL 6
REMARK VINA RESULT:      -7.5      1.687      3.393
REMARK  Name = 
REMARK  5 active torsions:
REMARK  status: ('A' for Active; 'I' for Inactive)
REMARK    1  A    between atoms: C_4  and  C_5
REMARK    2  A    between atoms: C_8  and  C_9
REMARK    3  A    between atoms: C_9  and  N_10
REMARK    4  A    between atoms: C_14  and  C_15
REMARK    5  A    between atoms: C_15  and  N_16
REMARK                            x       y       z     vdW  Elec       q    Type
REMARK                         _______ _______ _______ _____ _____    ______ ____
ROOT
ATOM      1  C   UNL     1       5.334   5.782  19.074  0.00  0.00    +0.000 C 
ENDROOT
BRANCH   1   5
ATOM      2  C   UNL     1       7.048   4.753  16.137  0.00  0.00    +0.000 A 
ATOM      3  N   UNL     1       7.908   4.268  17.011  0.00  0.00    +0.000 NA
ATOM      4  N   UNL     1       7.445   4.619  18.261  0.00  0.00    +0.000 NA
ATOM      5  C   UNL     1       6.329   5.290  18.070  0.00  0.00    +0.000 A 
ATOM      6  O   UNL     1       6.022   5.441  16.739  0.00  0.00    +0.000 OA
BRANCH   2  10
ATOM      7  C   UNL     1       6.783   4.235  11.903  0.00  0.00    +0.000 A 
ATOM      8  C   UNL     1       5.972   3.493  12.758  0.00  0.00    +0.000 A 
ATOM      9  C   UNL     1       6.083   3.659  14.141  0.00  0.00    +0.000 A 
ATOM     10  C   UNL     1       6.995   4.576  14.690  0.00  0.00    +0.000 A 
ATOM     11  C   UNL     1       7.810   5.311  13.814  0.00  0.00    +0.000 A 
ATOM     12  C   UNL     1       7.703   5.139  12.429  0.00  0.00    +0.000 A 
ENDBRANCH   2  10
ENDBRANCH   1   5
BRANCH   1  13
ATOM     13  N   UNL     1       3.902   5.459  18.873  0.00  0.00    +0.000 NA
ATOM     14  C   UNL     1       3.246   6.299  17.870  0.00  0.00    +0.000 C 
ATOM     15  C   UNL     1       2.557   7.400  18.648  0.00  0.00    +0.000 C 
ATOM     16  C   UNL     1       2.149   6.727  19.945  0.00  0.00    +0.000 C 
ATOM     17  C   UNL     1       3.092   5.526  20.115  0.00  0.00    +0.000 C 
BRANCH  17  18
ATOM     18  C   UNL     1       2.318   4.205  20.305  0.00  0.00    +0.000 C 
BRANCH  18  19
ATOM     19  N   UNL     1       2.555   3.243  19.246  0.00  0.00    +0.000 N 
ATOM     20  C   UNL     1       1.800   3.020  18.139  0.00  0.00    +0.000 A 
ATOM     21  N   UNL     1       2.324   2.042  17.438  0.00  0.00    +0.000 NA
ATOM     22  C   UNL     1       3.426   1.702  18.170  0.00  0.00    +0.000 A 
ATOM     23  N   UNL     1       3.618   2.420  19.279  0.00  0.00    +0.000 NA
ENDBRANCH  18  19
ENDBRANCH  17  18
ENDBRANCH   1  13
TORSDOF 5
ENDMDL
MODEL 7
REMARK VINA RESULT:      -7.5      2.912      7.862
REMARK  Name = 
REMARK  5 active torsions:
REMARK  status: ('A' for Active; 'I' for Inactive)
REMARK    1  A    between atoms: C_4  and  C_5
REMARK    2  A    between atoms: C_8  and  C_9
REMARK    3  A    between atoms: C_9  and  N_10
REMARK    4  A    between atoms: C_14  and  C_15
REMARK    5  A    between atoms: C_15  and  N_16
REMARK                            x       y       z     vdW  Elec       q    Type
REMARK                         _______ _______ _______ _____ _____    ______ ____
ROOT
ATOM      1  C   UNL     1       3.015   5.773  19.318  0.00  0.00    +0.000 C 
ENDROOT
BRANCH   1   5
ATOM      2  C   UNL     1       1.371   8.838  20.045  0.00  0.00    +0.000 A 
ATOM      3  N   UNL     1       1.564   9.053  18.758  0.00  0.00    +0.000 NA
ATOM      4  N   UNL     1       2.264   7.968  18.275  0.00  0.00    +0.000 NA
ATOM      5  C   UNL     1       2.447   7.157  19.296  0.00  0.00    +0.000 A 
ATOM      6  O   UNL     1       1.930   7.655  20.468  0.00  0.00    +0.000 OA
BRANCH   2  10
ATOM      7  C   UNL     1      -0.976  11.124  22.789  0.00  0.00    +0.000 A 
ATOM      8  C   UNL     1      -0.634  11.648  21.545  0.00  0.00    +0.000 A 
ATOM      9  C   UNL     1       0.150  10.896  20.665  0.00  0.00    +0.000 A 
ATOM     10  C   UNL     1       0.592   9.608  21.009  0.00  0.00    +0.000 A 
ATOM     11  C   UNL     1       0.244   9.098  22.270  0.00  0.00    +0.000 A 
ATOM     12  C   UNL     1      -0.535   9.854  23.153  0.00  0.00    +0.000 A 
ENDBRANCH   2  10
ENDBRANCH   1   5
BRANCH   1  13
ATOM     13  N   UNL     1       2.935   4.952  18.088  0.00  0.00    +0.000 NA
ATOM     14  C   UNL     1       1.576   4.523  17.756  0.00  0.00    +0.000 C 
ATOM     15  C   UNL     1       1.442   3.122  18.314  0.00  0.00    +0.000 C 
ATOM     16  C   UNL     1       2.836   2.541  18.172  0.00  0.00    +0.000 C 
ATOM     17  C   UNL     1       3.793   3.741  18.118  0.00  0.00    +0.000 C 
BRANCH  17  18
ATOM     18  C   UNL     1       4.693   3.708  16.864  0.00  0.00    +0.000 C 
BRANCH  18  19
ATOM     19  N   UNL     1       5.811   4.628  16.937  0.00  0.00    +0.000 N 
ATOM     20  C   UNL     1       6.242   5.492  15.981  0.00  0.00    +0.000 A 
ATOM     21  N   UNL     1       7.307   6.128  16.411  0.00  0.00    +0.000 NA
ATOM     22  C   UNL     1       7.482   5.614  17.664  0.00  0.00    +0.000 A 
ATOM     23  N   UNL     1       6.581   4.702  18.037  0.00  0.00    +0.000 NA
ENDBRANCH  18  19
ENDBRANCH  17  18
ENDBRANCH   1  13
TORSDOF 5
ENDMDL
MODEL 8
REMARK VINA RESULT:      -7.4      0.919      1.540
REMARK  Name = 
REMARK  5 active torsions:
REMARK  status: ('A' for Active; 'I' for Inactive)
REMARK    1  A    between atoms: C_4  and  C_5
REMARK    2  A    between atoms: C_8  and  C_9
REMARK    3  A    between atoms: C_9  and  N_10
REMARK    4  A    between atoms: C_14  and  C_15
REMARK    5  A    between atoms: C_15  and  N_16
REMARK                            x       y       z     vdW  Elec       q    Type
REMARK                         _______ _______ _______ _____ _____    ______ ____
ROOT
ATOM      1  C   UNL     1       4.671   3.370  18.924  0.00  0.00    +0.000 C 
ENDROOT
BRANCH   1   5
ATOM      2  C   UNL     1       6.055   4.734  15.949  0.00  0.00    +0.000 A 
ATOM      3  N   UNL     1       6.508   5.653  16.780  0.00  0.00    +0.000 NA
ATOM      4  N   UNL     1       6.020   5.333  18.030  0.00  0.00    +0.000 NA
ATOM      5  C   UNL     1       5.307   4.236  17.882  0.00  0.00    +0.000 A 
ATOM      6  O   UNL     1       5.258   3.807  16.577  0.00  0.00    +0.000 OA
BRANCH   2  10
ATOM      7  C   UNL     1       7.046   4.129  11.836  0.00  0.00    +0.000 A 
ATOM      8  C   UNL     1       7.783   5.015  12.618  0.00  0.00    +0.000 A 
ATOM      9  C   UNL     1       7.436   5.217  13.956  0.00  0.00    +0.000 A 
ATOM     10  C   UNL     1       6.357   4.530  14.537  0.00  0.00    +0.000 A 
ATOM     11  C   UNL     1       5.620   3.646  13.733  0.00  0.00    +0.000 A 
ATOM     12  C   UNL     1       5.964   3.450  12.390  0.00  0.00    +0.000 A 
ENDBRANCH   2  10
ENDBRANCH   1   5
BRANCH   1  13
ATOM     13  N   UNL     1       3.392   3.809  19.528  0.00  0.00    +0.000 NA
ATOM     14  C   UNL     1       2.397   2.741  19.636  0.00  0.00    +0.000 C 
ATOM     15  C   UNL     1       1.505   2.891  18.422  0.00  0.00    +0.000 C 
ATOM     16  C   UNL     1       1.478   4.387  18.174  0.00  0.00    +0.000 C 
ATOM     17  C   UNL     1       2.754   4.947  18.821  0.00  0.00    +0.000 C 
BRANCH  17  18
ATOM     18  C   UNL     1       2.445   6.078  19.825  0.00  0.00    +0.000 C 
BRANCH  18  19
ATOM     19  N   UNL     1       2.237   7.365  19.191  0.00  0.00    +0.000 N 
ATOM     20  C   UNL     1       1.526   8.422  19.663  0.00  0.00    +0.000 A 
ATOM     21  N   UNL     1       1.541   9.394  18.781  0.00  0.00    +0.000 NA
ATOM     22  C   UNL     1       2.299   8.874  17.771  0.00  0.00    +0.000 A 
ATOM     23  N   UNL     1       2.761   7.639  17.982  0.00  0.00    +0.000 NA
ENDBRANCH  18  19
ENDBRANCH  17  18
ENDBRANCH   1  13
TORSDOF 5
ENDMDL
MODEL 9
REMARK VINA RESULT:      -7.4      1.235      2.102
REMARK  Name = 
REMARK  5 active torsions:
REMARK  status: ('A' for Active; 'I' for Inactive)
REMARK    1  A    between atoms: C_4  and  C_5
REMARK    2  A    between atoms: C_8  and  C_9
REMARK    3  A    between atoms: C_9  and  N_10
REMARK    4  A    between atoms: C_14  and  C_15
REMARK    5  A    between atoms: C_15  and  N_16
REMARK                            x       y       z     vdW  Elec       q    Type
REMARK                         _______ _______ _______ _____ _____    ______ ____
ROOT
ATOM      1  C   UNL     1       5.347   4.154  19.055  0.00  0.00    +0.000 C 
ENDROOT
BRANCH   1   5
ATOM      2  C   UNL     1       5.921   5.132  15.688  0.00  0.00    +0.000 A 
ATOM      3  N   UNL     1       5.924   6.340  16.216  0.00  0.00    +0.000 NA
ATOM      4  N   UNL     1       5.653   6.188  17.559  0.00  0.00    +0.000 NA
ATOM      5  C   UNL     1       5.508   4.896  17.766  0.00  0.00    +0.000 A 
ATOM      6  O   UNL     1       5.637   4.157  16.614  0.00  0.00    +0.000 OA
BRANCH   2  10
ATOM      7  C   UNL     1       7.022   3.885  11.751  0.00  0.00    +0.000 A 
ATOM      8  C   UNL     1       7.781   4.836  12.429  0.00  0.00    +0.000 A 
ATOM      9  C   UNL     1       7.398   5.248  13.708  0.00  0.00    +0.000 A 
ATOM     10  C   UNL     1       6.261   4.709  14.334  0.00  0.00    +0.000 A 
ATOM     11  C   UNL     1       5.504   3.757  13.633  0.00  0.00    +0.000 A 
ATOM     12  C   UNL     1       5.884   3.350  12.349  0.00  0.00    +0.000 A 
ENDBRANCH   2  10
ENDBRANCH   1   5
BRANCH   1  13
ATOM     13  N   UNL     1       4.020   3.587  19.388  0.00  0.00    +0.000 NA
ATOM     14  C   UNL     1       4.061   2.171  19.755  0.00  0.00    +0.000 C 
ATOM     15  C   UNL     1       3.712   1.412  18.493  0.00  0.00    +0.000 C 
ATOM     16  C   UNL     1       2.735   2.327  17.779  0.00  0.00    +0.000 C 
ATOM     17  C   UNL     1       3.014   3.742  18.308  0.00  0.00    +0.000 C 
BRANCH  17  18
ATOM     18  C   UNL     1       1.741   4.410  18.870  0.00  0.00    +0.000 C 
BRANCH  18  19
ATOM     19  N   UNL     1       1.922   5.815  19.180  0.00  0.00    +0.000 N 
ATOM     20  C   UNL     1       1.736   6.435  20.375  0.00  0.00    +0.000 A 
ATOM     21  N   UNL     1       1.965   7.721  20.244  0.00  0.00    +0.000 NA
ATOM     22  C   UNL     1       2.305   7.836  18.926  0.00  0.00    +0.000 A 
ATOM     23  N   UNL     1       2.307   6.692  18.236  0.00  0.00    +0.000 NA
ENDBRANCH  18  19
ENDBRANCH  17  18
ENDBRANCH   1  13
TORSDOF 5
ENDMDL
