MODEL 1
REMARK VINA RESULT:      -6.9      0.000      0.000
REMARK  Name = 
REMARK  8 active torsions:
REMARK  status: ('A' for Active; 'I' for Inactive)
REMARK    1  A    between atoms: C_1  and  O_2
REMARK    2  A    between atoms: O_2  and  C_3
REMARK    3  A    between atoms: C_7  and  O_8
REMARK    4  A    between atoms: O_8  and  C_9
REMARK    5  A    between atoms: C_9  and  C_10
REMARK    6  A    between atoms: C_10  and  O_12
REMARK    7  A    between atoms: O_12  and  N_13
REMARK    8  A    between atoms: C_14  and  C_16
REMARK                            x       y       z     vdW  Elec       q    Type
REMARK                         _______ _______ _______ _____ _____    ______ ____
ROOT
ATOM      1  C   UNL     1       5.366   6.343  18.097  0.00  0.00    +0.000 C 
ATOM      2  O   UNL     1       4.252   6.715  17.743  0.00  0.00    +0.000 OA
ENDROOT
BRANCH   1   3
ATOM      3  C   UNL     1       5.632   5.418  19.266  0.00  0.00    +0.000 C 
BRANCH   3   4
ATOM      4  O   UNL     1       5.602   4.049  18.898  0.00  0.00    +0.000 OA
BRANCH   4   9
ATOM      5  C   UNL     1       2.207   2.681  19.572  0.00  0.00    +0.000 A 
ATOM      6  C   UNL     1       1.857   2.346  18.262  0.00  0.00    +0.000 A 
ATOM      7  C   UNL     1       2.745   2.575  17.213  0.00  0.00    +0.000 A 
ATOM      8  C   UNL     1       3.992   3.146  17.472  0.00  0.00    +0.000 A 
ATOM      9  C   UNL     1       4.356   3.487  18.776  0.00  0.00    +0.000 A 
ATOM     10  C   UNL     1       3.459   3.250  19.824  0.00  0.00    +0.000 A 
BRANCH   5  12
ATOM     11  C   UNL     1       1.561   2.719  21.863  0.00  0.00    +0.000 C 
ATOM     12  O   UNL     1       1.250   2.404  20.510  0.00  0.00    +0.000 OA
ENDBRANCH   5  12
ENDBRANCH   4   9
ENDBRANCH   3   4
ENDBRANCH   1   3
BRANCH   1  13
ATOM     13  O   UNL     1       6.549   6.628  17.463  0.00  0.00    +0.000 OA
BRANCH  13  14
ATOM     14  N   UNL     1       6.399   6.306  16.099  0.00  0.00    +0.000 NA
ATOM     15  C   UNL     1       7.002   5.195  15.798  0.00  0.00    +0.000 C 
ATOM     16  N   UNL     1       7.805   4.498  16.672  0.00  0.00    +0.000 N 
ATOM     17  H   UNL     1       8.099   5.073  17.456  0.00  0.00    +0.000 HD
ATOM     18  H   UNL     1       8.596   4.026  16.244  0.00  0.00    +0.000 HD
BRANCH  15  19
ATOM     19  C   UNL     1       6.795   4.656  14.422  0.00  0.00    +0.000 A 
ATOM     20  C   UNL     1       7.667   5.015  13.396  0.00  0.00    +0.000 A 
ATOM     21  C   UNL     1       7.415   4.517  12.131  0.00  0.00    +0.000 A 
ATOM     22  N   UNL     1       6.369   3.714  11.836  0.00  0.00    +0.000 NA
ATOM     23  C   UNL     1       5.531   3.401  12.847  0.00  0.00    +0.000 A 
ATOM     24  C   UNL     1       5.699   3.839  14.148  0.00  0.00    +0.000 A 
ENDBRANCH  15  19
ENDBRANCH  13  14
ENDBRANCH   1  13
TORSDOF 7
ENDMDL
MODEL 2
REMARK VINA RESULT:      -6.9      1.462      2.079
REMARK  Name = 
REMARK  8 active torsions:
REMARK  status: ('A' for Active; 'I' for Inactive)
REMARK    1  A    between atoms: C_1  and  O_2
REMARK    2  A    between atoms: O_2  and  C_3
REMARK    3  A    between atoms: C_7  and  O_8
REMARK    4  A    between atoms: O_8  and  C_9
REMARK    5  A    between atoms: C_9  and  C_10
REMARK    6  A    between atoms: C_10  and  O_12
REMARK    7  A    between atoms: O_12  and  N_13
REMARK    8  A    between atoms: C_14  and  C_16
REMARK                            x       y       z     vdW  Elec       q    Type
REMARK                         _______ _______ _______ _____ _____    ______ ____
ROOT
ATOM      1  C   UNL     1       7.373   4.895  17.151  0.00  0.00    +0.000 C 
ATOM      2  O   UNL     1       8.327   4.216  17.515  0.00  0.00    +0.000 OA
ENDROOT
BRANCH   1   3
ATOM      3  C   UNL     1       6.136   5.156  17.984  0.00  0.00    +0.000 C 
BRANCH   3   4
ATOM      4  O   UNL     1       5.762   4.039  18.773  0.00  0.00    +0.000 OA
BRANCH   4   9
ATOM      5  C   UNL     1       2.344   2.742  19.470  0.00  0.00    +0.000 A 
ATOM      6  C   UNL     1       1.793   2.922  18.199  0.00  0.00    +0.000 A 
ATOM      7  C   UNL     1       2.561   3.454  17.166  0.00  0.00    +0.000 A 
ATOM      8  C   UNL     1       3.889   3.813  17.401  0.00  0.00    +0.000 A 
ATOM      9  C   UNL     1       4.453   3.640  18.667  0.00  0.00    +0.000 A 
ATOM     10  C   UNL     1       3.676   3.101  19.698  0.00  0.00    +0.000 A 
BRANCH   5  12
ATOM     11  C   UNL     1       1.548   2.746  21.714  0.00  0.00    +0.000 C 
ATOM     12  O   UNL     1       1.488   2.210  20.397  0.00  0.00    +0.000 OA
ENDBRANCH   5  12
ENDBRANCH   4   9
ENDBRANCH   3   4
ENDBRANCH   1   3
BRANCH   1  13
ATOM     13  O   UNL     1       7.285   5.595  15.973  0.00  0.00    +0.000 OA
BRANCH  13  14
ATOM     14  N   UNL     1       6.503   4.840  15.077  0.00  0.00    +0.000 NA
ATOM     15  C   UNL     1       7.034   4.801  13.892  0.00  0.00    +0.000 C 
ATOM     16  N   UNL     1       8.145   5.525  13.526  0.00  0.00    +0.000 N 
ATOM     17  H   UNL     1       8.330   6.287  14.171  0.00  0.00    +0.000 HD
ATOM     18  H   UNL     1       8.149   5.848  12.563  0.00  0.00    +0.000 HD
BRANCH  15  19
ATOM     19  C   UNL     1       6.390   3.908  12.885  0.00  0.00    +0.000 A 
ATOM     20  C   UNL     1       5.001   3.879  12.766  0.00  0.00    +0.000 A 
ATOM     21  C   UNL     1       4.450   3.012  11.843  0.00  0.00    +0.000 A 
ATOM     22  N   UNL     1       5.180   2.188  11.059  0.00  0.00    +0.000 NA
ATOM     23  C   UNL     1       6.520   2.224  11.210  0.00  0.00    +0.000 A 
ATOM     24  C   UNL     1       7.171   3.061  12.098  0.00  0.00    +0.000 A 
ENDBRANCH  15  19
ENDBRANCH  13  14
ENDBRANCH   1  13
TORSDOF 7
ENDMDL
MODEL 3
REMARK VINA RESULT:      -6.8      3.288      4.659
REMARK  Name = 
REMARK  8 active torsions:
REMARK  status: ('A' for Active; 'I' for Inactive)
REMARK    1  A    between atoms: C_1  and  O_2
REMARK    2  A    between atoms: O_2  and  C_3
REMARK    3  A    between atoms: C_7  and  O_8
REMARK    4  A    between atoms: O_8  and  C_9
REMARK    5  A    between atoms: C_9  and  C_10
REMARK    6  A    between atoms: C_10  and  O_12
REMARK    7  A    between atoms: O_12  and  N_13
REMARK    8  A    between atoms: C_14  and  C_16
REMARK                            x       y       z     vdW  Elec       q    Type
REMARK                         _______ _______ _______ _____ _____    ______ ____
ROOT
ATOM      1  C   UNL     1       1.678   3.102  18.853  0.00  0.00    +0.000 C 
ATOM      2  O   UNL     1       0.714   2.863  18.133  0.00  0.00    +0.000 OA
ENDROOT
BRANCH   1   3
ATOM      3  C   UNL     1       1.632   3.975  20.089  0.00  0.00    +0.000 C 
BRANCH   3   4
ATOM      4  O   UNL     1       2.678   4.931  20.123  0.00  0.00    +0.000 OA
BRANCH   4   9
ATOM      5  C   UNL     1       1.440   8.439  20.232  0.00  0.00    +0.000 A 
ATOM      6  C   UNL     1       1.718   8.797  18.910  0.00  0.00    +0.000 A 
ATOM      7  C   UNL     1       2.294   7.876  18.037  0.00  0.00    +0.000 A 
ATOM      8  C   UNL     1       2.597   6.589  18.484  0.00  0.00    +0.000 A 
ATOM      9  C   UNL     1       2.325   6.219  19.803  0.00  0.00    +0.000 A 
ATOM     10  C   UNL     1       1.744   7.148  20.672  0.00  0.00    +0.000 A 
BRANCH   5  12
ATOM     11  C   UNL     1      -0.221   9.064  21.818  0.00  0.00    +0.000 C 
ATOM     12  O   UNL     1       0.874   9.431  20.987  0.00  0.00    +0.000 OA
ENDBRANCH   5  12
ENDBRANCH   4   9
ENDBRANCH   3   4
ENDBRANCH   1   3
BRANCH   1  13
ATOM     13  O   UNL     1       2.935   2.568  18.719  0.00  0.00    +0.000 OA
BRANCH  13  14
ATOM     14  N   UNL     1       3.621   3.314  17.739  0.00  0.00    +0.000 NA
ATOM     15  C   UNL     1       4.825   3.615  18.121  0.00  0.00    +0.000 C 
ATOM     16  N   UNL     1       5.317   3.358  19.380  0.00  0.00    +0.000 N 
ATOM     17  H   UNL     1       4.574   3.177  20.047  0.00  0.00    +0.000 HD
ATOM     18  H   UNL     1       5.970   4.050  19.735  0.00  0.00    +0.000 HD
BRANCH  15  19
ATOM     19  C   UNL     1       5.715   4.271  17.118  0.00  0.00    +0.000 A 
ATOM     20  C   UNL     1       6.443   5.405  17.471  0.00  0.00    +0.000 A 
ATOM     21  C   UNL     1       7.228   5.997  16.499  0.00  0.00    +0.000 A 
ATOM     22  N   UNL     1       7.319   5.543  15.229  0.00  0.00    +0.000 NA
ATOM     23  C   UNL     1       6.587   4.454  14.913  0.00  0.00    +0.000 A 
ATOM     24  C   UNL     1       5.778   3.783  15.813  0.00  0.00    +0.000 A 
ENDBRANCH  15  19
ENDBRANCH  13  14
ENDBRANCH   1  13
TORSDOF 7
ENDMDL
MODEL 4
REMARK VINA RESULT:      -6.8      3.503      5.422
REMARK  Name = 
REMARK  8 active torsions:
REMARK  status: ('A' for Active; 'I' for Inactive)
REMARK    1  A    between atoms: C_1  and  O_2
REMARK    2  A    between atoms: O_2  and  C_3
REMARK    3  A    between atoms: C_7  and  O_8
REMARK    4  A    between atoms: O_8  and  C_9
REMARK    5  A    between atoms: C_9  and  C_10
REMARK    6  A    between atoms: C_10  and  O_12
REMARK    7  A    between atoms: O_12  and  N_13
REMARK    8  A    between atoms: C_14  and  C_16
REMARK                            x       y       z     vdW  Elec       q    Type
REMARK                         _______ _______ _______ _____ _____    ______ ____
ROOT
ATOM      1  C   UNL     1       2.093   3.282  20.864  0.00  0.00    +0.000 C 
ATOM      2  O   UNL     1       2.264   2.942  22.031  0.00  0.00    +0.000 OA
ENDROOT
BRANCH   1   3
ATOM      3  C   UNL     1       1.397   4.556  20.434  0.00  0.00    +0.000 C 
BRANCH   3   4
ATOM      4  O   UNL     1       1.994   5.718  20.982  0.00  0.00    +0.000 OA
BRANCH   4   9
ATOM      5  C   UNL     1       1.300   9.159  19.747  0.00  0.00    +0.000 A 
ATOM      6  C   UNL     1       1.875   9.043  18.479  0.00  0.00    +0.000 A 
ATOM      7  C   UNL     1       2.461   7.844  18.078  0.00  0.00    +0.000 A 
ATOM      8  C   UNL     1       2.477   6.753  18.948  0.00  0.00    +0.000 A 
ATOM      9  C   UNL     1       1.907   6.855  20.219  0.00  0.00    +0.000 A 
ATOM     10  C   UNL     1       1.317   8.061  20.612  0.00  0.00    +0.000 A 
BRANCH   5  12
ATOM     11  C   UNL     1       0.550  11.260  18.916  0.00  0.00    +0.000 C 
ATOM     12  O   UNL     1       0.757  10.386  20.020  0.00  0.00    +0.000 OA
ENDBRANCH   5  12
ENDBRANCH   4   9
ENDBRANCH   3   4
ENDBRANCH   1   3
BRANCH   1  13
ATOM     13  O   UNL     1       2.562   2.621  19.756  0.00  0.00    +0.000 OA
BRANCH  13  14
ATOM     14  N   UNL     1       3.164   3.572  18.907  0.00  0.00    +0.000 NA
ATOM     15  C   UNL     1       4.455   3.438  18.875  0.00  0.00    +0.000 C 
ATOM     16  N   UNL     1       5.156   2.568  19.678  0.00  0.00    +0.000 N 
ATOM     17  H   UNL     1       4.605   2.261  20.475  0.00  0.00    +0.000 HD
ATOM     18  H   UNL     1       6.072   2.895  19.968  0.00  0.00    +0.000 HD
BRANCH  15  19
ATOM     19  C   UNL     1       5.205   4.280  17.897  0.00  0.00    +0.000 A 
ATOM     20  C   UNL     1       6.489   4.726  18.204  0.00  0.00    +0.000 A 
ATOM     21  C   UNL     1       7.131   5.531  17.282  0.00  0.00    +0.000 A 
ATOM     22  N   UNL     1       6.579   5.914  16.109  0.00  0.00    +0.000 NA
ATOM     23  C   UNL     1       5.327   5.483  15.849  0.00  0.00    +0.000 A 
ATOM     24  C   UNL     1       4.603   4.668  16.700  0.00  0.00    +0.000 A 
ENDBRANCH  15  19
ENDBRANCH  13  14
ENDBRANCH   1  13
TORSDOF 7
ENDMDL
MODEL 5
REMARK VINA RESULT:      -6.7      3.349      4.812
REMARK  Name = 
REMARK  8 active torsions:
REMARK  status: ('A' for Active; 'I' for Inactive)
REMARK    1  A    between atoms: C_1  and  O_2
REMARK    2  A    between atoms: O_2  and  C_3
REMARK    3  A    between atoms: C_7  and  O_8
REMARK    4  A    between atoms: O_8  and  C_9
REMARK    5  A    between atoms: C_9  and  C_10
REMARK    6  A    between atoms: C_10  and  O_12
REMARK    7  A    between atoms: O_12  and  N_13
REMARK    8  A    between atoms: C_14  and  C_16
REMARK                            x       y       z     vdW  Elec       q    Type
REMARK                         _______ _______ _______ _____ _____    ______ ____
ROOT
ATOM      1  C   UNL     1       1.781   3.367  18.962  0.00  0.00    +0.000 C 
ATOM      2  O   UNL     1       0.814   3.073  18.266  0.00  0.00    +0.000 OA
ENDROOT
BRANCH   1   3
ATOM      3  C   UNL     1       1.735   4.316  20.141  0.00  0.00    +0.000 C 
BRANCH   3   4
ATOM      4  O   UNL     1       2.763   5.290  20.099  0.00  0.00    +0.000 OA
BRANCH   4   9
ATOM      5  C   UNL     1       1.375   8.740  19.947  0.00  0.00    +0.000 A 
ATOM      6  C   UNL     1       1.743   9.053  18.636  0.00  0.00    +0.000 A 
ATOM      7  C   UNL     1       2.425   8.122  17.854  0.00  0.00    +0.000 A 
ATOM      8  C   UNL     1       2.745   6.871  18.383  0.00  0.00    +0.000 A 
ATOM      9  C   UNL     1       2.384   6.546  19.692  0.00  0.00    +0.000 A 
ATOM     10  C   UNL     1       1.696   7.484  20.469  0.00  0.00    +0.000 A 
BRANCH   5  12
ATOM     11  C   UNL     1       0.260  10.840  19.830  0.00  0.00    +0.000 C 
ATOM     12  O   UNL     1       0.709   9.737  20.608  0.00  0.00    +0.000 OA
ENDBRANCH   5  12
ENDBRANCH   4   9
ENDBRANCH   3   4
ENDBRANCH   1   3
BRANCH   1  13
ATOM     13  O   UNL     1       3.043   2.838  18.851  0.00  0.00    +0.000 OA
BRANCH  13  14
ATOM     14  N   UNL     1       3.674   3.449  17.749  0.00  0.00    +0.000 NA
ATOM     15  C   UNL     1       4.877   3.842  18.042  0.00  0.00    +0.000 C 
ATOM     16  N   UNL     1       5.412   3.794  19.308  0.00  0.00    +0.000 N 
ATOM     17  H   UNL     1       4.694   3.692  20.019  0.00  0.00    +0.000 HD
ATOM     18  H   UNL     1       6.049   4.552  19.535  0.00  0.00    +0.000 HD
BRANCH  15  19
ATOM     19  C   UNL     1       5.714   4.368  16.924  0.00  0.00    +0.000 A 
ATOM     20  C   UNL     1       5.683   3.743  15.678  0.00  0.00    +0.000 A 
ATOM     21  C   UNL     1       6.501   4.246  14.684  0.00  0.00    +0.000 A 
ATOM     22  N   UNL     1       7.331   5.298  14.856  0.00  0.00    +0.000 NA
ATOM     23  C   UNL     1       7.353   5.870  16.078  0.00  0.00    +0.000 A 
ATOM     24  C   UNL     1       6.568   5.450  17.137  0.00  0.00    +0.000 A 
ENDBRANCH  15  19
ENDBRANCH  13  14
ENDBRANCH   1  13
TORSDOF 7
ENDMDL
MODEL 6
REMARK VINA RESULT:      -6.7      3.548      5.220
REMARK  Name = 
REMARK  8 active torsions:
REMARK  status: ('A' for Active; 'I' for Inactive)
REMARK    1  A    between atoms: C_1  and  O_2
REMARK    2  A    between atoms: O_2  and  C_3
REMARK    3  A    between atoms: C_7  and  O_8
REMARK    4  A    between atoms: O_8  and  C_9
REMARK    5  A    between atoms: C_9  and  C_10
REMARK    6  A    between atoms: C_10  and  O_12
REMARK    7  A    between atoms: O_12  and  N_13
REMARK    8  A    between atoms: C_14  and  C_16
REMARK                            x       y       z     vdW  Elec       q    Type
REMARK                         _______ _______ _______ _____ _____    ______ ____
ROOT
ATOM      1  C   UNL     1       5.910   6.616  16.579  0.00  0.00    +0.000 C 
ATOM      2  O   UNL     1       5.377   6.717  15.479  0.00  0.00    +0.000 OA
ENDROOT
BRANCH   1   3
ATOM      3  C   UNL     1       5.187   6.230  17.852  0.00  0.00    +0.000 C 
BRANCH   3   4
ATOM      4  O   UNL     1       3.839   5.855  17.624  0.00  0.00    +0.000 OA
BRANCH   4   9
ATOM      5  C   UNL     1       2.929   3.080  19.931  0.00  0.00    +0.000 A 
ATOM      6  C   UNL     1       2.625   2.109  18.974  0.00  0.00    +0.000 A 
ATOM      7  C   UNL     1       2.734   2.398  17.615  0.00  0.00    +0.000 A 
ATOM      8  C   UNL     1       3.147   3.667  17.206  0.00  0.00    +0.000 A 
ATOM      9  C   UNL     1       3.454   4.648  18.151  0.00  0.00    +0.000 A 
ATOM     10  C   UNL     1       3.346   4.348  19.513  0.00  0.00    +0.000 A 
BRANCH   5  12
ATOM     11  C   UNL     1       1.463   2.660  21.758  0.00  0.00    +0.000 C 
ATOM     12  O   UNL     1       2.784   2.671  21.229  0.00  0.00    +0.000 OA
ENDBRANCH   5  12
ENDBRANCH   4   9
ENDBRANCH   3   4
ENDBRANCH   1   3
BRANCH   1  13
ATOM     13  O   UNL     1       7.251   6.754  16.841  0.00  0.00    +0.000 OA
BRANCH  13  14
ATOM     14  N   UNL     1       7.509   8.121  17.069  0.00  0.00    +0.000 NA
ATOM     15  C   UNL     1       8.195   8.305  18.156  0.00  0.00    +0.000 C 
ATOM     16  N   UNL     1       8.507   7.302  19.044  0.00  0.00    +0.000 N 
ATOM     17  H   UNL     1       7.919   6.484  18.914  0.00  0.00    +0.000 HD
ATOM     18  H   UNL     1       8.534   7.585  20.019  0.00  0.00    +0.000 HD
BRANCH  15  19
ATOM     19  C   UNL     1       8.670   9.692  18.437  0.00  0.00    +0.000 A 
ATOM     20  C   UNL     1       9.371   9.963  19.610  0.00  0.00    +0.000 A 
ATOM     21  C   UNL     1       9.762  11.268  19.842  0.00  0.00    +0.000 A 
ATOM     22  N   UNL     1       9.494  12.292  19.002  0.00  0.00    +0.000 NA
ATOM     23  C   UNL     1       8.796  12.001  17.883  0.00  0.00    +0.000 A 
ATOM     24  C   UNL     1       8.367  10.728  17.554  0.00  0.00    +0.000 A 
ENDBRANCH  15  19
ENDBRANCH  13  14
ENDBRANCH   1  13
TORSDOF 7
ENDMDL
MODEL 7
REMARK VINA RESULT:      -6.5      2.739      6.725
REMARK  Name = 
REMARK  8 active torsions:
REMARK  status: ('A' for Active; 'I' for Inactive)
REMARK    1  A    between atoms: C_1  and  O_2
REMARK    2  A    between atoms: O_2  and  C_3
REMARK    3  A    between atoms: C_7  and  O_8
REMARK    4  A    between atoms: O_8  and  C_9
REMARK    5  A    between atoms: C_9  and  C_10
REMARK    6  A    between atoms: C_10  and  O_12
REMARK    7  A    between atoms: O_12  and  N_13
REMARK    8  A    between atoms: C_14  and  C_16
REMARK                            x       y       z     vdW  Elec       q    Type
REMARK                         _______ _______ _______ _____ _____    ______ ____
ROOT
ATOM      1  C   UNL     1       6.449   6.758  17.164  0.00  0.00    +0.000 C 
ATOM      2  O   UNL     1       7.171   7.740  17.028  0.00  0.00    +0.000 OA
ENDROOT
BRANCH   1   3
ATOM      3  C   UNL     1       5.697   6.081  16.037  0.00  0.00    +0.000 C 
BRANCH   3   4
ATOM      4  O   UNL     1       6.169   4.771  15.773  0.00  0.00    +0.000 OA
BRANCH   4   9
ATOM      5  C   UNL     1       6.088   3.277  12.366  0.00  0.00    +0.000 A 
ATOM      6  C   UNL     1       7.064   4.077  11.767  0.00  0.00    +0.000 A 
ATOM      7  C   UNL     1       7.713   5.068  12.502  0.00  0.00    +0.000 A 
ATOM      8  C   UNL     1       7.383   5.266  13.843  0.00  0.00    +0.000 A 
ATOM      9  C   UNL     1       6.409   4.474  14.455  0.00  0.00    +0.000 A 
ATOM     10  C   UNL     1       5.766   3.478  13.711  0.00  0.00    +0.000 A 
BRANCH   5  12
ATOM     11  C   UNL     1       6.353   1.247  11.151  0.00  0.00    +0.000 C 
ATOM     12  O   UNL     1       5.529   2.340  11.539  0.00  0.00    +0.000 OA
ENDBRANCH   5  12
ENDBRANCH   4   9
ENDBRANCH   3   4
ENDBRANCH   1   3
BRANCH   1  13
ATOM     13  O   UNL     1       6.254   6.056  18.328  0.00  0.00    +0.000 OA
BRANCH  13  14
ATOM     14  N   UNL     1       4.879   5.767  18.435  0.00  0.00    +0.000 NA
ATOM     15  C   UNL     1       4.675   4.582  18.925  0.00  0.00    +0.000 C 
ATOM     16  N   UNL     1       5.676   3.672  19.175  0.00  0.00    +0.000 N 
ATOM     17  H   UNL     1       6.533   3.908  18.683  0.00  0.00    +0.000 HD
ATOM     18  H   UNL     1       5.421   2.701  19.026  0.00  0.00    +0.000 HD
BRANCH  15  19
ATOM     19  C   UNL     1       3.264   4.206  19.237  0.00  0.00    +0.000 A 
ATOM     20  C   UNL     1       2.816   4.218  20.557  0.00  0.00    +0.000 A 
ATOM     21  C   UNL     1       1.512   3.830  20.799  0.00  0.00    +0.000 A 
ATOM     22  N   UNL     1       0.655   3.433  19.832  0.00  0.00    +0.000 NA
ATOM     23  C   UNL     1       1.125   3.414  18.566  0.00  0.00    +0.000 A 
ATOM     24  C   UNL     1       2.409   3.790  18.217  0.00  0.00    +0.000 A 
ENDBRANCH  15  19
ENDBRANCH  13  14
ENDBRANCH   1  13
TORSDOF 7
ENDMDL
MODEL 8
REMARK VINA RESULT:      -6.5      2.864      6.943
REMARK  Name = 
REMARK  8 active torsions:
REMARK  status: ('A' for Active; 'I' for Inactive)
REMARK    1  A    between atoms: C_1  and  O_2
REMARK    2  A    between atoms: O_2  and  C_3
REMARK    3  A    between atoms: C_7  and  O_8
REMARK    4  A    between atoms: O_8  and  C_9
REMARK    5  A    between atoms: C_9  and  C_10
REMARK    6  A    between atoms: C_10  and  O_12
REMARK    7  A    between atoms: O_12  and  N_13
REMARK    8  A    between atoms: C_14  and  C_16
REMARK                            x       y       z     vdW  Elec       q    Type
REMARK                         _______ _______ _______ _____ _____    ______ ____
ROOT
ATOM      1  C   UNL     1       6.857   5.112  18.163  0.00  0.00    +0.000 C 
ATOM      2  O   UNL     1       7.004   6.180  18.749  0.00  0.00    +0.000 OA
ENDROOT
BRANCH   1   3
ATOM      3  C   UNL     1       7.229   4.869  16.715  0.00  0.00    +0.000 C 
BRANCH   3   4
ATOM      4  O   UNL     1       6.100   4.829  15.859  0.00  0.00    +0.000 OA
BRANCH   4   9
ATOM      5  C   UNL     1       5.992   3.401  12.424  0.00  0.00    +0.000 A 
ATOM      6  C   UNL     1       7.057   4.116  11.870  0.00  0.00    +0.000 A 
ATOM      7  C   UNL     1       7.771   5.031  12.643  0.00  0.00    +0.000 A 
ATOM      8  C   UNL     1       7.417   5.237  13.978  0.00  0.00    +0.000 A 
ATOM      9  C   UNL     1       6.354   4.531  14.544  0.00  0.00    +0.000 A 
ATOM     10  C   UNL     1       5.646   3.611  13.762  0.00  0.00    +0.000 A 
BRANCH   5  12
ATOM     11  C   UNL     1       6.036   1.300  11.306  0.00  0.00    +0.000 C 
ATOM     12  O   UNL     1       5.375   2.534  11.563  0.00  0.00    +0.000 OA
ENDBRANCH   5  12
ENDBRANCH   4   9
ENDBRANCH   3   4
ENDBRANCH   1   3
BRANCH   1  13
ATOM     13  O   UNL     1       6.411   3.941  18.722  0.00  0.00    +0.000 OA
BRANCH  13  14
ATOM     14  N   UNL     1       5.002   3.978  18.740  0.00  0.00    +0.000 NA
ATOM     15  C   UNL     1       4.504   2.978  19.402  0.00  0.00    +0.000 C 
ATOM     16  N   UNL     1       5.255   1.939  19.901  0.00  0.00    +0.000 N 
ATOM     17  H   UNL     1       6.170   1.888  19.464  0.00  0.00    +0.000 HD
ATOM     18  H   UNL     1       4.794   1.034  19.895  0.00  0.00    +0.000 HD
BRANCH  15  19
ATOM     19  C   UNL     1       3.029   2.978  19.632  0.00  0.00    +0.000 A 
ATOM     20  C   UNL     1       2.157   2.872  18.549  0.00  0.00    +0.000 A 
ATOM     21  C   UNL     1       0.800   2.911  18.808  0.00  0.00    +0.000 A 
ATOM     22  N   UNL     1       0.276   3.054  20.046  0.00  0.00    +0.000 NA
ATOM     23  C   UNL     1       1.146   3.173  21.071  0.00  0.00    +0.000 A 
ATOM     24  C   UNL     1       2.521   3.139  20.920  0.00  0.00    +0.000 A 
ENDBRANCH  15  19
ENDBRANCH  13  14
ENDBRANCH   1  13
TORSDOF 7
ENDMDL
MODEL 9
REMARK VINA RESULT:      -6.5      3.752      5.532
REMARK  Name = 
REMARK  8 active torsions:
REMARK  status: ('A' for Active; 'I' for Inactive)
REMARK    1  A    between atoms: C_1  and  O_2
REMARK    2  A    between atoms: O_2  and  C_3
REMARK    3  A    between atoms: C_7  and  O_8
REMARK    4  A    between atoms: O_8  and  C_9
REMARK    5  A    between atoms: C_9  and  C_10
REMARK    6  A    between atoms: C_10  and  O_12
REMARK    7  A    between atoms: O_12  and  N_13
REMARK    8  A    between atoms: C_14  and  C_16
REMARK                            x       y       z     vdW  Elec       q    Type
REMARK                         _______ _______ _______ _____ _____    ______ ____
ROOT
ATOM      1  C   UNL     1       1.863   4.359  20.009  0.00  0.00    +0.000 C 
ATOM      2  O   UNL     1       0.732   4.100  20.407  0.00  0.00    +0.000 OA
ENDROOT
BRANCH   1   3
ATOM      3  C   UNL     1       2.595   5.656  20.283  0.00  0.00    +0.000 C 
BRANCH   3   4
ATOM      4  O   UNL     1       1.727   6.696  20.700  0.00  0.00    +0.000 OA
BRANCH   4   9
ATOM      5  C   UNL     1       1.085  10.076  19.281  0.00  0.00    +0.000 A 
ATOM      6  C   UNL     1       1.738   9.913  18.057  0.00  0.00    +0.000 A 
ATOM      7  C   UNL     1       2.357   8.704  17.743  0.00  0.00    +0.000 A 
ATOM      8  C   UNL     1       2.326   7.650  18.657  0.00  0.00    +0.000 A 
ATOM      9  C   UNL     1       1.679   7.800  19.885  0.00  0.00    +0.000 A 
ATOM     10  C   UNL     1       1.057   9.015  20.191  0.00  0.00    +0.000 A 
BRANCH   5  12
ATOM     11  C   UNL     1       1.346  12.442  19.240  0.00  0.00    +0.000 C 
ATOM     12  O   UNL     1       0.517  11.308  19.468  0.00  0.00    +0.000 OA
ENDBRANCH   5  12
ENDBRANCH   4   9
ENDBRANCH   3   4
ENDBRANCH   1   3
BRANCH   1  13
ATOM     13  O   UNL     1       2.690   3.505  19.322  0.00  0.00    +0.000 OA
BRANCH  13  14
ATOM     14  N   UNL     1       3.720   4.273  18.742  0.00  0.00    +0.000 NA
ATOM     15  C   UNL     1       4.405   3.584  17.880  0.00  0.00    +0.000 C 
ATOM     16  N   UNL     1       4.234   2.235  17.666  0.00  0.00    +0.000 N 
ATOM     17  H   UNL     1       3.734   1.791  18.431  0.00  0.00    +0.000 HD
ATOM     18  H   UNL     1       5.082   1.726  17.436  0.00  0.00    +0.000 HD
BRANCH  15  19
ATOM     19  C   UNL     1       5.428   4.317  17.078  0.00  0.00    +0.000 A 
ATOM     20  C   UNL     1       5.774   3.861  15.807  0.00  0.00    +0.000 A 
ATOM     21  C   UNL     1       6.750   4.554  15.116  0.00  0.00    +0.000 A 
ATOM     22  N   UNL     1       7.391   5.638  15.608  0.00  0.00    +0.000 NA
ATOM     23  C   UNL     1       7.047   6.043  16.849  0.00  0.00    +0.000 A 
ATOM     24  C   UNL     1       6.078   5.426  17.619  0.00  0.00    +0.000 A 
ENDBRANCH  15  19
ENDBRANCH  13  14
ENDBRANCH   1  13
TORSDOF 7
ENDMDL
