MODEL 1
REMARK VINA RESULT:      -7.2      0.000      0.000
REMARK  Name = 
REMARK  14 active torsions:
REMARK  status: ('A' for Active; 'I' for Inactive)
REMARK    1  A    between atoms: C_1  and  O_2
REMARK    2  A    between atoms: O_2  and  C_3
REMARK    3  A    between atoms: C_5  and  N_6
REMARK    4  A    between atoms: C_7  and  C_9
REMARK    5  A    between atoms: C_14  and  O_15
REMARK    6  A    between atoms: O_15  and  C_16
REMARK    7  A    between atoms: C_19  and  C_20
REMARK    8  A    between atoms: C_19  and  C_21
REMARK    9  A    between atoms: C_25  and  O_26
REMARK   10  A    between atoms: O_26  and  C_27
REMARK   11  A    between atoms: C_27  and  C_28
REMARK   12  A    between atoms: C_28  and  C_29
REMARK   13  A    between atoms: C_29  and  C_30
REMARK   14  A    between atoms: N_33  and  C_34
REMARK                            x       y       z     vdW  Elec       q    Type
REMARK                         _______ _______ _______ _____ _____    ______ ____
ROOT
ATOM      1  C   UNL     1       2.039   5.595  20.383  0.00  0.00    +0.000 A 
ATOM      2  C   UNL     1       1.593   6.883  20.740  0.00  0.00    +0.000 A 
ATOM      3  C   UNL     1       1.713   7.952  19.867  0.00  0.00    +0.000 A 
ATOM      4  C   UNL     1       2.287   7.767  18.617  0.00  0.00    +0.000 A 
ATOM      5  C   UNL     1       2.662   6.483  18.215  0.00  0.00    +0.000 A 
ATOM      6  C   UNL     1       2.497   5.392  19.080  0.00  0.00    +0.000 A 
ENDROOT
BRANCH   3   7
ATOM      7  N   UNL     1       1.256   9.247  20.222  0.00  0.00    +0.000 N 
ATOM      8  C   UNL     1       0.305  10.019  19.567  0.00  0.00    +0.000 C 
ATOM      9  O   UNL     1      -0.334   9.722  18.563  0.00  0.00    +0.000 OA
ATOM     10  H   UNL     1       1.644   9.625  21.083  0.00  0.00    +0.000 HD
BRANCH   8  11
ATOM     11  C   UNL     1       0.021  11.335  20.187  0.00  0.00    +0.000 A 
ATOM     12  C   UNL     1      -0.770  11.454  21.339  0.00  0.00    +0.000 A 
ATOM     13  C   UNL     1      -0.580  12.586  22.148  0.00  0.00    +0.000 A 
ATOM     14  C   UNL     1       0.203  13.621  21.651  0.00  0.00    +0.000 A 
ATOM     15  C   UNL     1       0.407  13.661  20.306  0.00  0.00    +0.000 A 
ATOM     16  C   UNL     1       0.783  12.440  19.814  0.00  0.00    +0.000 A 
ATOM     17  C   UNL     1       0.663  14.954  19.710  0.00  0.00    +0.000 C 
ATOM     18  C   UNL     1       1.523  15.709  20.372  0.00  0.00    +0.000 C 
ATOM     19  C   UNL     1       1.924  15.351  21.791  0.00  0.00    +0.000 C 
ATOM     20  C   UNL     1       1.799  16.552  22.723  0.00  0.00    +0.000 C 
ATOM     21  C   UNL     1       3.406  14.952  21.716  0.00  0.00    +0.000 C 
ATOM     22  O   UNL     1       1.007  14.394  22.451  0.00  0.00    +0.000 OA
BRANCH  16  23
ATOM     23  O   UNL     1       2.145  12.248  19.550  0.00  0.00    +0.000 OA
ATOM     24  C   UNL     1       2.433  12.486  18.139  0.00  0.00    +0.000 C 
ENDBRANCH  16  23
ENDBRANCH   8  11
ENDBRANCH   3   7
BRANCH   1  26
ATOM     25  C   UNL     1       1.210   3.405  20.997  0.00  0.00    +0.000 C 
ATOM     26  O   UNL     1       2.042   4.542  21.255  0.00  0.00    +0.000 OA
ENDBRANCH   1  26
BRANCH   6  27
ATOM     27  O   UNL     1       2.813   4.178  18.510  0.00  0.00    +0.000 OA
BRANCH  27  28
ATOM     28  C   UNL     1       3.356   4.283  17.192  0.00  0.00    +0.000 C 
BRANCH  28  29
ATOM     29  C   UNL     1       4.592   3.391  17.059  0.00  0.00    +0.000 C 
BRANCH  29  30
ATOM     30  C   UNL     1       5.760   4.231  16.539  0.00  0.00    +0.000 C 
BRANCH  30  31
ATOM     31  C   UNL     1       6.107   5.473  17.374  0.00  0.00    +0.000 C 
ATOM     32  C   UNL     1       6.034   6.776  16.565  0.00  0.00    +0.000 C 
ATOM     33  C   UNL     1       6.582   7.970  17.354  0.00  0.00    +0.000 C 
ATOM     34  N   UNL     1       7.956   7.717  17.806  0.00  0.00    +0.000 NA
ATOM     35  C   UNL     1       8.506   8.889  18.482  0.00  0.00    +0.000 C 
ATOM     36  C   UNL     1       8.005   6.545  18.687  0.00  0.00    +0.000 C 
ATOM     37  C   UNL     1       7.524   5.299  17.949  0.00  0.00    +0.000 C 
ENDBRANCH  30  31
ENDBRANCH  29  30
ENDBRANCH  28  29
ENDBRANCH  27  28
ENDBRANCH   6  27
TORSDOF 9
ENDMDL
MODEL 2
REMARK VINA RESULT:      -7.1      2.502      9.782
REMARK  Name = 
REMARK  14 active torsions:
REMARK  status: ('A' for Active; 'I' for Inactive)
REMARK    1  A    between atoms: C_1  and  O_2
REMARK    2  A    between atoms: O_2  and  C_3
REMARK    3  A    between atoms: C_5  and  N_6
REMARK    4  A    between atoms: C_7  and  C_9
REMARK    5  A    between atoms: C_14  and  O_15
REMARK    6  A    between atoms: O_15  and  C_16
REMARK    7  A    between atoms: C_19  and  C_20
REMARK    8  A    between atoms: C_19  and  C_21
REMARK    9  A    between atoms: C_25  and  O_26
REMARK   10  A    between atoms: O_26  and  C_27
REMARK   11  A    between atoms: C_27  and  C_28
REMARK   12  A    between atoms: C_28  and  C_29
REMARK   13  A    between atoms: C_29  and  C_30
REMARK   14  A    between atoms: N_33  and  C_34
REMARK                            x       y       z     vdW  Elec       q    Type
REMARK                         _______ _______ _______ _____ _____    ______ ____
ROOT
ATOM      1  C   UNL     1       0.582  11.536  21.517  0.00  0.00    +0.000 A 
ATOM      2  C   UNL     1       1.196  10.537  20.735  0.00  0.00    +0.000 A 
ATOM      3  C   UNL     1       0.973   9.192  20.984  0.00  0.00    +0.000 A 
ATOM      4  C   UNL     1       0.137   8.807  22.022  0.00  0.00    +0.000 A 
ATOM      5  C   UNL     1      -0.542   9.782  22.758  0.00  0.00    +0.000 A 
ATOM      6  C   UNL     1      -0.354  11.142  22.475  0.00  0.00    +0.000 A 
ENDROOT
BRANCH   3   7
ATOM      7  N   UNL     1       1.583   8.187  20.191  0.00  0.00    +0.000 N 
ATOM      8  C   UNL     1       1.826   8.216  18.824  0.00  0.00    +0.000 C 
ATOM      9  O   UNL     1       1.573   9.126  18.042  0.00  0.00    +0.000 OA
ATOM     10  H   UNL     1       1.917   7.373  20.702  0.00  0.00    +0.000 HD
BRANCH   8  11
ATOM     11  C   UNL     1       2.497   7.015  18.273  0.00  0.00    +0.000 A 
ATOM     12  C   UNL     1       3.841   7.039  17.872  0.00  0.00    +0.000 A 
ATOM     13  C   UNL     1       4.542   5.822  17.863  0.00  0.00    +0.000 A 
ATOM     14  C   UNL     1       3.817   4.648  18.027  0.00  0.00    +0.000 A 
ATOM     15  C   UNL     1       2.476   4.704  17.795  0.00  0.00    +0.000 A 
ATOM     16  C   UNL     1       1.896   5.768  18.430  0.00  0.00    +0.000 A 
ATOM     17  C   UNL     1       1.824   3.485  17.371  0.00  0.00    +0.000 C 
ATOM     18  C   UNL     1       2.173   2.404  18.048  0.00  0.00    +0.000 C 
ATOM     19  C   UNL     1       3.391   2.426  18.952  0.00  0.00    +0.000 C 
ATOM     20  C   UNL     1       4.309   1.239  18.676  0.00  0.00    +0.000 C 
ATOM     21  C   UNL     1       2.849   2.293  20.383  0.00  0.00    +0.000 C 
ATOM     22  O   UNL     1       4.314   3.554  18.690  0.00  0.00    +0.000 OA
BRANCH  16  23
ATOM     23  O   UNL     1       1.212   5.507  19.624  0.00  0.00    +0.000 OA
ATOM     24  C   UNL     1       2.150   5.359  20.733  0.00  0.00    +0.000 C 
ENDBRANCH  16  23
ENDBRANCH   8  11
ENDBRANCH   3   7
BRANCH   1  26
ATOM     25  C   UNL     1       1.853  13.287  20.430  0.00  0.00    +0.000 C 
ATOM     26  O   UNL     1       0.864  12.866  21.377  0.00  0.00    +0.000 OA
ENDBRANCH   1  26
BRANCH   6  27
ATOM     27  O   UNL     1      -1.166  11.980  23.209  0.00  0.00    +0.000 OA
BRANCH  27  28
ATOM     28  C   UNL     1      -2.479  12.133  22.665  0.00  0.00    +0.000 C 
BRANCH  28  29
ATOM     29  C   UNL     1      -2.578  13.450  21.893  0.00  0.00    +0.000 C 
BRANCH  29  30
ATOM     30  C   UNL     1      -3.539  13.267  20.716  0.00  0.00    +0.000 C 
BRANCH  30  31
ATOM     31  C   UNL     1      -3.198  12.119  19.755  0.00  0.00    +0.000 C 
ATOM     32  C   UNL     1      -1.894  12.357  18.978  0.00  0.00    +0.000 C 
ATOM     33  C   UNL     1      -1.682  11.309  17.881  0.00  0.00    +0.000 C 
ATOM     34  N   UNL     1      -2.830  11.265  16.966  0.00  0.00    +0.000 NA
ATOM     35  C   UNL     1      -2.588  10.328  15.872  0.00  0.00    +0.000 C 
ATOM     36  C   UNL     1      -4.056  10.908  17.688  0.00  0.00    +0.000 C 
ATOM     37  C   UNL     1      -4.364  11.944  18.766  0.00  0.00    +0.000 C 
ENDBRANCH  30  31
ENDBRANCH  29  30
ENDBRANCH  28  29
ENDBRANCH  27  28
ENDBRANCH   6  27
TORSDOF 9
ENDMDL
MODEL 3
REMARK VINA RESULT:      -7.0      4.983     10.661
REMARK  Name = 
REMARK  14 active torsions:
REMARK  status: ('A' for Active; 'I' for Inactive)
REMARK    1  A    between atoms: C_1  and  O_2
REMARK    2  A    between atoms: O_2  and  C_3
REMARK    3  A    between atoms: C_5  and  N_6
REMARK    4  A    between atoms: C_7  and  C_9
REMARK    5  A    between atoms: C_14  and  O_15
REMARK    6  A    between atoms: O_15  and  C_16
REMARK    7  A    between atoms: C_19  and  C_20
REMARK    8  A    between atoms: C_19  and  C_21
REMARK    9  A    between atoms: C_25  and  O_26
REMARK   10  A    between atoms: O_26  and  C_27
REMARK   11  A    between atoms: C_27  and  C_28
REMARK   12  A    between atoms: C_28  and  C_29
REMARK   13  A    between atoms: C_29  and  C_30
REMARK   14  A    between atoms: N_33  and  C_34
REMARK                            x       y       z     vdW  Elec       q    Type
REMARK                         _______ _______ _______ _____ _____    ______ ____
ROOT
ATOM      1  C   UNL     1      10.060  12.385  18.341  0.00  0.00    +0.000 A 
ATOM      2  C   UNL     1       9.605  11.063  18.162  0.00  0.00    +0.000 A 
ATOM      3  C   UNL     1       9.335  10.243  19.246  0.00  0.00    +0.000 A 
ATOM      4  C   UNL     1       9.517  10.717  20.538  0.00  0.00    +0.000 A 
ATOM      5  C   UNL     1       9.891  12.048  20.736  0.00  0.00    +0.000 A 
ATOM      6  C   UNL     1      10.119  12.892  19.641  0.00  0.00    +0.000 A 
ENDROOT
BRANCH   3   7
ATOM      7  N   UNL     1       8.867   8.917  19.066  0.00  0.00    +0.000 N 
ATOM      8  C   UNL     1       8.102   8.422  18.018  0.00  0.00    +0.000 C 
ATOM      9  O   UNL     1       7.697   9.036  17.036  0.00  0.00    +0.000 OA
ATOM     10  H   UNL     1       9.172   8.249  19.771  0.00  0.00    +0.000 HD
BRANCH   8  11
ATOM     11  C   UNL     1       7.777   6.978  18.095  0.00  0.00    +0.000 A 
ATOM     12  C   UNL     1       8.052   6.220  19.243  0.00  0.00    +0.000 A 
ATOM     13  C   UNL     1       7.287   5.062  19.460  0.00  0.00    +0.000 A 
ATOM     14  C   UNL     1       6.471   4.614  18.428  0.00  0.00    +0.000 A 
ATOM     15  C   UNL     1       6.744   5.066  17.173  0.00  0.00    +0.000 A 
ATOM     16  C   UNL     1       6.917   6.424  17.150  0.00  0.00    +0.000 A 
ATOM     17  C   UNL     1       6.363   4.221  16.064  0.00  0.00    +0.000 C 
ATOM     18  C   UNL     1       5.153   3.695  16.157  0.00  0.00    +0.000 C 
ATOM     19  C   UNL     1       4.401   3.732  17.473  0.00  0.00    +0.000 C 
ATOM     20  C   UNL     1       3.856   2.355  17.840  0.00  0.00    +0.000 C 
ATOM     21  C   UNL     1       3.210   4.676  17.246  0.00  0.00    +0.000 C 
ATOM     22  O   UNL     1       5.258   4.011  18.648  0.00  0.00    +0.000 OA
BRANCH  16  23
ATOM     23  O   UNL     1       5.842   7.199  16.696  0.00  0.00    +0.000 OA
ATOM     24  C   UNL     1       4.822   7.322  17.734  0.00  0.00    +0.000 C 
ENDBRANCH  16  23
ENDBRANCH   8  11
ENDBRANCH   3   7
BRANCH   1  26
ATOM     25  C   UNL     1      11.821  13.225  16.909  0.00  0.00    +0.000 C 
ATOM     26  O   UNL     1      10.444  13.186  17.302  0.00  0.00    +0.000 OA
ENDBRANCH   1  26
BRANCH   6  27
ATOM     27  O   UNL     1      10.377  14.200  19.991  0.00  0.00    +0.000 OA
BRANCH  27  28
ATOM     28  C   UNL     1       9.653  14.644  21.140  0.00  0.00    +0.000 C 
BRANCH  28  29
ATOM     29  C   UNL     1       8.244  15.082  20.738  0.00  0.00    +0.000 C 
BRANCH  29  30
ATOM     30  C   UNL     1       7.351  15.092  21.981  0.00  0.00    +0.000 C 
BRANCH  30  31
ATOM     31  C   UNL     1       7.649  14.001  23.020  0.00  0.00    +0.000 C 
ATOM     32  C   UNL     1       6.804  12.735  22.818  0.00  0.00    +0.000 C 
ATOM     33  C   UNL     1       6.964  11.749  23.979  0.00  0.00    +0.000 C 
ATOM     34  N   UNL     1       6.641  12.388  25.261  0.00  0.00    +0.000 NA
ATOM     35  C   UNL     1       6.709  11.423  26.356  0.00  0.00    +0.000 C 
ATOM     36  C   UNL     1       7.537  13.521  25.517  0.00  0.00    +0.000 C 
ATOM     37  C   UNL     1       7.391  14.577  24.424  0.00  0.00    +0.000 C 
ENDBRANCH  30  31
ENDBRANCH  29  30
ENDBRANCH  28  29
ENDBRANCH  27  28
ENDBRANCH   6  27
TORSDOF 9
ENDMDL
MODEL 4
REMARK VINA RESULT:      -6.8      1.858      3.058
REMARK  Name = 
REMARK  14 active torsions:
REMARK  status: ('A' for Active; 'I' for Inactive)
REMARK    1  A    between atoms: C_1  and  O_2
REMARK    2  A    between atoms: O_2  and  C_3
REMARK    3  A    between atoms: C_5  and  N_6
REMARK    4  A    between atoms: C_7  and  C_9
REMARK    5  A    between atoms: C_14  and  O_15
REMARK    6  A    between atoms: O_15  and  C_16
REMARK    7  A    between atoms: C_19  and  C_20
REMARK    8  A    between atoms: C_19  and  C_21
REMARK    9  A    between atoms: C_25  and  O_26
REMARK   10  A    between atoms: O_26  and  C_27
REMARK   11  A    between atoms: C_27  and  C_28
REMARK   12  A    between atoms: C_28  and  C_29
REMARK   13  A    between atoms: C_29  and  C_30
REMARK   14  A    between atoms: N_33  and  C_34
REMARK                            x       y       z     vdW  Elec       q    Type
REMARK                         _______ _______ _______ _____ _____    ______ ____
ROOT
ATOM      1  C   UNL     1       2.030   7.634  19.118  0.00  0.00    +0.000 A 
ATOM      2  C   UNL     1       1.552   8.959  19.077  0.00  0.00    +0.000 A 
ATOM      3  C   UNL     1       0.785   9.478  20.107  0.00  0.00    +0.000 A 
ATOM      4  C   UNL     1       0.468   8.689  21.204  0.00  0.00    +0.000 A 
ATOM      5  C   UNL     1       0.997   7.399  21.299  0.00  0.00    +0.000 A 
ATOM      6  C   UNL     1       1.813   6.890  20.280  0.00  0.00    +0.000 A 
ENDROOT
BRANCH   3   7
ATOM      7  N   UNL     1       0.312  10.815  20.070  0.00  0.00    +0.000 N 
ATOM      8  C   UNL     1      -0.728  11.325  19.304  0.00  0.00    +0.000 C 
ATOM      9  O   UNL     1      -1.449  10.712  18.524  0.00  0.00    +0.000 OA
ATOM     10  H   UNL     1       0.766  11.455  20.717  0.00  0.00    +0.000 HD
BRANCH   8  11
ATOM     11  C   UNL     1      -1.005  12.769  19.491  0.00  0.00    +0.000 A 
ATOM     12  C   UNL     1      -2.088  13.220  20.259  0.00  0.00    +0.000 A 
ATOM     13  C   UNL     1      -2.003  14.506  20.818  0.00  0.00    +0.000 A 
ATOM     14  C   UNL     1      -0.968  15.334  20.398  0.00  0.00    +0.000 A 
ATOM     15  C   UNL     1      -0.355  15.023  19.224  0.00  0.00    +0.000 A 
ATOM     16  C   UNL     1      -0.018  13.697  19.164  0.00  0.00    +0.000 A 
ATOM     17  C   UNL     1       0.250  16.106  18.482  0.00  0.00    +0.000 C 
ATOM     18  C   UNL     1       0.960  16.951  19.212  0.00  0.00    +0.000 C 
ATOM     19  C   UNL     1       0.848  16.937  20.724  0.00  0.00    +0.000 C 
ATOM     20  C   UNL     1       0.609  18.339  21.276  0.00  0.00    +0.000 C 
ATOM     21  C   UNL     1       2.210  16.443  21.237  0.00  0.00    +0.000 C 
ATOM     22  O   UNL     1      -0.351  16.233  21.232  0.00  0.00    +0.000 OA
BRANCH  16  23
ATOM     23  O   UNL     1       1.318  13.363  19.418  0.00  0.00    +0.000 OA
ATOM     24  C   UNL     1       2.077  13.296  18.172  0.00  0.00    +0.000 C 
ENDBRANCH  16  23
ENDBRANCH   8  11
ENDBRANCH   3   7
BRANCH   1  26
ATOM     25  C   UNL     1       3.683   7.794  17.358  0.00  0.00    +0.000 C 
ATOM     26  O   UNL     1       2.692   7.050  18.075  0.00  0.00    +0.000 OA
ENDBRANCH   1  26
BRANCH   6  27
ATOM     27  O   UNL     1       2.345   5.650  20.561  0.00  0.00    +0.000 OA
BRANCH  27  28
ATOM     28  C   UNL     1       1.404   4.580  20.454  0.00  0.00    +0.000 C 
BRANCH  28  29
ATOM     29  C   UNL     1       1.558   3.875  19.105  0.00  0.00    +0.000 C 
BRANCH  29  30
ATOM     30  C   UNL     1       2.640   2.799  19.226  0.00  0.00    +0.000 C 
BRANCH  30  31
ATOM     31  C   UNL     1       3.934   3.070  18.443  0.00  0.00    +0.000 C 
ATOM     32  C   UNL     1       4.902   3.997  19.192  0.00  0.00    +0.000 C 
ATOM     33  C   UNL     1       6.084   4.421  18.313  0.00  0.00    +0.000 C 
ATOM     34  N   UNL     1       5.617   5.052  17.073  0.00  0.00    +0.000 NA
ATOM     35  C   UNL     1       6.744   5.532  16.277  0.00  0.00    +0.000 C 
ATOM     36  C   UNL     1       4.797   4.119  16.292  0.00  0.00    +0.000 C 
ATOM     37  C   UNL     1       3.565   3.694  17.086  0.00  0.00    +0.000 C 
ENDBRANCH  30  31
ENDBRANCH  29  30
ENDBRANCH  28  29
ENDBRANCH  27  28
ENDBRANCH   6  27
TORSDOF 9
ENDMDL
MODEL 5
REMARK VINA RESULT:      -6.8      4.409      7.877
REMARK  Name = 
REMARK  14 active torsions:
REMARK  status: ('A' for Active; 'I' for Inactive)
REMARK    1  A    between atoms: C_1  and  O_2
REMARK    2  A    between atoms: O_2  and  C_3
REMARK    3  A    between atoms: C_5  and  N_6
REMARK    4  A    between atoms: C_7  and  C_9
REMARK    5  A    between atoms: C_14  and  O_15
REMARK    6  A    between atoms: O_15  and  C_16
REMARK    7  A    between atoms: C_19  and  C_20
REMARK    8  A    between atoms: C_19  and  C_21
REMARK    9  A    between atoms: C_25  and  O_26
REMARK   10  A    between atoms: O_26  and  C_27
REMARK   11  A    between atoms: C_27  and  C_28
REMARK   12  A    between atoms: C_28  and  C_29
REMARK   13  A    between atoms: C_29  and  C_30
REMARK   14  A    between atoms: N_33  and  C_34
REMARK                            x       y       z     vdW  Elec       q    Type
REMARK                         _______ _______ _______ _____ _____    ______ ____
ROOT
ATOM      1  C   UNL     1       7.687   6.318  18.706  0.00  0.00    +0.000 A 
ATOM      2  C   UNL     1       8.476   7.484  18.679  0.00  0.00    +0.000 A 
ATOM      3  C   UNL     1       8.068   8.611  17.982  0.00  0.00    +0.000 A 
ATOM      4  C   UNL     1       6.865   8.603  17.290  0.00  0.00    +0.000 A 
ATOM      5  C   UNL     1       6.033   7.484  17.370  0.00  0.00    +0.000 A 
ATOM      6  C   UNL     1       6.423   6.361  18.114  0.00  0.00    +0.000 A 
ENDROOT
BRANCH   3   7
ATOM      7  N   UNL     1       8.858   9.789  17.962  0.00  0.00    +0.000 N 
ATOM      8  C   UNL     1       9.338  10.507  19.050  0.00  0.00    +0.000 C 
ATOM      9  O   UNL     1       9.183  10.249  20.240  0.00  0.00    +0.000 OA
ATOM     10  H   UNL     1       9.135  10.111  17.038  0.00  0.00    +0.000 HD
BRANCH   8  11
ATOM     11  C   UNL     1      10.154  11.697  18.715  0.00  0.00    +0.000 A 
ATOM     12  C   UNL     1      10.990  11.726  17.589  0.00  0.00    +0.000 A 
ATOM     13  C   UNL     1      11.310  12.981  17.045  0.00  0.00    +0.000 A 
ATOM     14  C   UNL     1      10.975  14.115  17.775  0.00  0.00    +0.000 A 
ATOM     15  C   UNL     1      10.729  13.953  19.104  0.00  0.00    +0.000 A 
ATOM     16  C   UNL     1       9.873  12.911  19.338  0.00  0.00    +0.000 A 
ATOM     17  C   UNL     1      10.973  15.087  19.969  0.00  0.00    +0.000 C 
ATOM     18  C   UNL     1      10.521  16.242  19.510  0.00  0.00    +0.000 C 
ATOM     19  C   UNL     1      10.091  16.376  18.062  0.00  0.00    +0.000 C 
ATOM     20  C   UNL     1      10.734  17.592  17.402  0.00  0.00    +0.000 C 
ATOM     21  C   UNL     1       8.571  16.595  18.099  0.00  0.00    +0.000 C 
ATOM     22  O   UNL     1      10.588  15.292  17.184  0.00  0.00    +0.000 OA
BRANCH  16  23
ATOM     23  O   UNL     1       8.534  13.228  19.600  0.00  0.00    +0.000 OA
ATOM     24  C   UNL     1       8.339  13.503  21.020  0.00  0.00    +0.000 C 
ENDBRANCH  16  23
ENDBRANCH   8  11
ENDBRANCH   3   7
BRANCH   1  26
ATOM     25  C   UNL     1       8.439   5.131  20.677  0.00  0.00    +0.000 C 
ATOM     26  O   UNL     1       8.104   5.152  19.285  0.00  0.00    +0.000 OA
ENDBRANCH   1  26
BRANCH   6  27
ATOM     27  O   UNL     1       5.458   5.381  18.187  0.00  0.00    +0.000 OA
BRANCH  27  28
ATOM     28  C   UNL     1       4.520   5.411  17.109  0.00  0.00    +0.000 C 
BRANCH  28  29
ATOM     29  C   UNL     1       3.091   5.367  17.652  0.00  0.00    +0.000 C 
BRANCH  29  30
ATOM     30  C   UNL     1       3.095   5.848  19.105  0.00  0.00    +0.000 C 
BRANCH  30  31
ATOM     31  C   UNL     1       2.748   7.329  19.314  0.00  0.00    +0.000 C 
ATOM     32  C   UNL     1       1.646   7.543  20.362  0.00  0.00    +0.000 C 
ATOM     33  C   UNL     1       1.171   9.000  20.404  0.00  0.00    +0.000 C 
ATOM     34  N   UNL     1       0.719   9.443  19.080  0.00  0.00    +0.000 NA
ATOM     35  C   UNL     1       0.186  10.802  19.140  0.00  0.00    +0.000 C 
ATOM     36  C   UNL     1       1.811   9.362  18.104  0.00  0.00    +0.000 C 
ATOM     37  C   UNL     1       2.302   7.924  17.966  0.00  0.00    +0.000 C 
ENDBRANCH  30  31
ENDBRANCH  29  30
ENDBRANCH  28  29
ENDBRANCH  27  28
ENDBRANCH   6  27
TORSDOF 9
ENDMDL
MODEL 6
REMARK VINA RESULT:      -6.8      3.949     10.599
REMARK  Name = 
REMARK  14 active torsions:
REMARK  status: ('A' for Active; 'I' for Inactive)
REMARK    1  A    between atoms: C_1  and  O_2
REMARK    2  A    between atoms: O_2  and  C_3
REMARK    3  A    between atoms: C_5  and  N_6
REMARK    4  A    between atoms: C_7  and  C_9
REMARK    5  A    between atoms: C_14  and  O_15
REMARK    6  A    between atoms: O_15  and  C_16
REMARK    7  A    between atoms: C_19  and  C_20
REMARK    8  A    between atoms: C_19  and  C_21
REMARK    9  A    between atoms: C_25  and  O_26
REMARK   10  A    between atoms: O_26  and  C_27
REMARK   11  A    between atoms: C_27  and  C_28
REMARK   12  A    between atoms: C_28  and  C_29
REMARK   13  A    between atoms: C_29  and  C_30
REMARK   14  A    between atoms: N_33  and  C_34
REMARK                            x       y       z     vdW  Elec       q    Type
REMARK                         _______ _______ _______ _____ _____    ______ ____
ROOT
ATOM      1  C   UNL     1      10.667  12.087  18.402  0.00  0.00    +0.000 A 
ATOM      2  C   UNL     1      10.171  10.776  18.253  0.00  0.00    +0.000 A 
ATOM      3  C   UNL     1       9.407  10.181  19.244  0.00  0.00    +0.000 A 
ATOM      4  C   UNL     1       9.122  10.873  20.412  0.00  0.00    +0.000 A 
ATOM      5  C   UNL     1       9.538  12.201  20.544  0.00  0.00    +0.000 A 
ATOM      6  C   UNL     1      10.270  12.820  19.522  0.00  0.00    +0.000 A 
ENDROOT
BRANCH   3   7
ATOM      7  N   UNL     1       8.900   8.865  19.091  0.00  0.00    +0.000 N 
ATOM      8  C   UNL     1       8.080   8.385  18.077  0.00  0.00    +0.000 C 
ATOM      9  O   UNL     1       7.651   9.005  17.110  0.00  0.00    +0.000 OA
ATOM     10  H   UNL     1       9.216   8.193  19.786  0.00  0.00    +0.000 HD
BRANCH   8  11
ATOM     11  C   UNL     1       7.722   6.950  18.176  0.00  0.00    +0.000 A 
ATOM     12  C   UNL     1       8.204   6.139  19.214  0.00  0.00    +0.000 A 
ATOM     13  C   UNL     1       7.457   4.999  19.551  0.00  0.00    +0.000 A 
ATOM     14  C   UNL     1       6.424   4.617  18.703  0.00  0.00    +0.000 A 
ATOM     15  C   UNL     1       6.444   5.110  17.434  0.00  0.00    +0.000 A 
ATOM     16  C   UNL     1       6.661   6.461  17.418  0.00  0.00    +0.000 A 
ATOM     17  C   UNL     1       5.804   4.321  16.404  0.00  0.00    +0.000 C 
ATOM     18  C   UNL     1       4.622   3.831  16.736  0.00  0.00    +0.000 C 
ATOM     19  C   UNL     1       4.167   3.839  18.182  0.00  0.00    +0.000 C 
ATOM     20  C   UNL     1       3.658   2.467  18.612  0.00  0.00    +0.000 C 
ATOM     21  C   UNL     1       2.993   4.828  18.243  0.00  0.00    +0.000 C 
ATOM     22  O   UNL     1       5.263   4.044  19.156  0.00  0.00    +0.000 OA
BRANCH  16  23
ATOM     23  O   UNL     1       5.545   7.287  17.228  0.00  0.00    +0.000 OA
ATOM     24  C   UNL     1       4.985   7.094  15.894  0.00  0.00    +0.000 C 
ENDBRANCH  16  23
ENDBRANCH   8  11
ENDBRANCH   3   7
BRANCH   1  26
ATOM     25  C   UNL     1      11.028  13.689  16.624  0.00  0.00    +0.000 C 
ATOM     26  O   UNL     1      11.515  12.667  17.501  0.00  0.00    +0.000 OA
ENDBRANCH   1  26
BRANCH   6  27
ATOM     27  O   UNL     1      10.518  14.156  19.747  0.00  0.00    +0.000 OA
BRANCH  27  28
ATOM     28  C   UNL     1       9.357  14.905  20.115  0.00  0.00    +0.000 C 
BRANCH  28  29
ATOM     29  C   UNL     1       8.731  15.547  18.875  0.00  0.00    +0.000 C 
BRANCH  29  30
ATOM     30  C   UNL     1       7.469  14.769  18.494  0.00  0.00    +0.000 C 
BRANCH  30  31
ATOM     31  C   UNL     1       6.152  15.553  18.591  0.00  0.00    +0.000 C 
ATOM     32  C   UNL     1       5.677  15.748  20.038  0.00  0.00    +0.000 C 
ATOM     33  C   UNL     1       4.267  16.344  20.102  0.00  0.00    +0.000 C 
ATOM     34  N   UNL     1       3.313  15.521  19.350  0.00  0.00    +0.000 NA
ATOM     35  C   UNL     1       1.955  16.043  19.485  0.00  0.00    +0.000 C 
ATOM     36  C   UNL     1       3.696  15.443  17.936  0.00  0.00    +0.000 C 
ATOM     37  C   UNL     1       5.074  14.804  17.789  0.00  0.00    +0.000 C 
ENDBRANCH  30  31
ENDBRANCH  29  30
ENDBRANCH  28  29
ENDBRANCH  27  28
ENDBRANCH   6  27
TORSDOF 9
ENDMDL
MODEL 7
REMARK VINA RESULT:      -6.8      2.244      3.444
REMARK  Name = 
REMARK  14 active torsions:
REMARK  status: ('A' for Active; 'I' for Inactive)
REMARK    1  A    between atoms: C_1  and  O_2
REMARK    2  A    between atoms: O_2  and  C_3
REMARK    3  A    between atoms: C_5  and  N_6
REMARK    4  A    between atoms: C_7  and  C_9
REMARK    5  A    between atoms: C_14  and  O_15
REMARK    6  A    between atoms: O_15  and  C_16
REMARK    7  A    between atoms: C_19  and  C_20
REMARK    8  A    between atoms: C_19  and  C_21
REMARK    9  A    between atoms: C_25  and  O_26
REMARK   10  A    between atoms: O_26  and  C_27
REMARK   11  A    between atoms: C_27  and  C_28
REMARK   12  A    between atoms: C_28  and  C_29
REMARK   13  A    between atoms: C_29  and  C_30
REMARK   14  A    between atoms: N_33  and  C_34
REMARK                            x       y       z     vdW  Elec       q    Type
REMARK                         _______ _______ _______ _____ _____    ______ ____
ROOT
ATOM      1  C   UNL     1       2.158   7.489  19.640  0.00  0.00    +0.000 A 
ATOM      2  C   UNL     1       1.445   8.468  20.360  0.00  0.00    +0.000 A 
ATOM      3  C   UNL     1       1.182   9.713  19.811  0.00  0.00    +0.000 A 
ATOM      4  C   UNL     1       1.628  10.017  18.533  0.00  0.00    +0.000 A 
ATOM      5  C   UNL     1       2.268   9.033  17.775  0.00  0.00    +0.000 A 
ATOM      6  C   UNL     1       2.492   7.758  18.311  0.00  0.00    +0.000 A 
ENDROOT
BRANCH   3   7
ATOM      7  N   UNL     1       0.455  10.695  20.531  0.00  0.00    +0.000 N 
ATOM      8  C   UNL     1      -0.804  11.203  20.238  0.00  0.00    +0.000 C 
ATOM      9  O   UNL     1      -1.537  10.886  19.307  0.00  0.00    +0.000 OA
ATOM     10  H   UNL     1       0.900  11.027  21.384  0.00  0.00    +0.000 HD
BRANCH   8  11
ATOM     11  C   UNL     1      -1.316  12.218  21.189  0.00  0.00    +0.000 A 
ATOM     12  C   UNL     1      -1.808  11.863  22.454  0.00  0.00    +0.000 A 
ATOM     13  C   UNL     1      -1.781  12.839  23.462  0.00  0.00    +0.000 A 
ATOM     14  C   UNL     1      -1.489  14.149  23.098  0.00  0.00    +0.000 A 
ATOM     15  C   UNL     1      -1.633  14.480  21.786  0.00  0.00    +0.000 A 
ATOM     16  C   UNL     1      -1.034  13.563  20.964  0.00  0.00    +0.000 A 
ATOM     17  C   UNL     1      -1.927  15.861  21.477  0.00  0.00    +0.000 C 
ATOM     18  C   UNL     1      -1.203  16.745  22.142  0.00  0.00    +0.000 C 
ATOM     19  C   UNL     1      -0.388  16.316  23.347  0.00  0.00    +0.000 C 
ATOM     20  C   UNL     1      -0.644  17.228  24.543  0.00  0.00    +0.000 C 
ATOM     21  C   UNL     1       1.083  16.471  22.931  0.00  0.00    +0.000 C 
ATOM     22  O   UNL     1      -0.789  15.006  23.909  0.00  0.00    +0.000 OA
BRANCH  16  23
ATOM     23  O   UNL     1       0.219  13.899  20.435  0.00  0.00    +0.000 OA
ATOM     24  C   UNL     1       0.089  14.352  19.053  0.00  0.00    +0.000 C 
ENDBRANCH  16  23
ENDBRANCH   8  11
ENDBRANCH   3   7
BRANCH   1  26
ATOM     25  C   UNL     1       1.548   5.440  20.776  0.00  0.00    +0.000 C 
ATOM     26  O   UNL     1       2.535   6.293  20.185  0.00  0.00    +0.000 OA
ENDBRANCH   1  26
BRANCH   6  27
ATOM     27  O   UNL     1       3.036   6.865  17.414  0.00  0.00    +0.000 OA
BRANCH  27  28
ATOM     28  C   UNL     1       4.440   7.038  17.207  0.00  0.00    +0.000 C 
BRANCH  28  29
ATOM     29  C   UNL     1       4.956   6.003  16.205  0.00  0.00    +0.000 C 
BRANCH  29  30
ATOM     30  C   UNL     1       5.790   4.959  16.951  0.00  0.00    +0.000 C 
BRANCH  30  31
ATOM     31  C   UNL     1       5.007   3.757  17.502  0.00  0.00    +0.000 C 
ATOM     32  C   UNL     1       3.619   3.604  16.864  0.00  0.00    +0.000 C 
ATOM     33  C   UNL     1       2.779   2.535  17.571  0.00  0.00    +0.000 C 
ATOM     34  N   UNL     1       2.661   2.823  19.006  0.00  0.00    +0.000 NA
ATOM     35  C   UNL     1       1.788   1.852  19.661  0.00  0.00    +0.000 C 
ATOM     36  C   UNL     1       3.982   2.841  19.643  0.00  0.00    +0.000 C 
ATOM     37  C   UNL     1       4.861   3.924  19.025  0.00  0.00    +0.000 C 
ENDBRANCH  30  31
ENDBRANCH  29  30
ENDBRANCH  28  29
ENDBRANCH  27  28
ENDBRANCH   6  27
TORSDOF 9
ENDMDL
MODEL 8
REMARK VINA RESULT:      -6.7      1.758      2.605
REMARK  Name = 
REMARK  14 active torsions:
REMARK  status: ('A' for Active; 'I' for Inactive)
REMARK    1  A    between atoms: C_1  and  O_2
REMARK    2  A    between atoms: O_2  and  C_3
REMARK    3  A    between atoms: C_5  and  N_6
REMARK    4  A    between atoms: C_7  and  C_9
REMARK    5  A    between atoms: C_14  and  O_15
REMARK    6  A    between atoms: O_15  and  C_16
REMARK    7  A    between atoms: C_19  and  C_20
REMARK    8  A    between atoms: C_19  and  C_21
REMARK    9  A    between atoms: C_25  and  O_26
REMARK   10  A    between atoms: O_26  and  C_27
REMARK   11  A    between atoms: C_27  and  C_28
REMARK   12  A    between atoms: C_28  and  C_29
REMARK   13  A    between atoms: C_29  and  C_30
REMARK   14  A    between atoms: N_33  and  C_34
REMARK                            x       y       z     vdW  Elec       q    Type
REMARK                         _______ _______ _______ _____ _____    ______ ____
ROOT
ATOM      1  C   UNL     1       2.190   4.723  20.389  0.00  0.00    +0.000 A 
ATOM      2  C   UNL     1       2.015   6.114  20.533  0.00  0.00    +0.000 A 
ATOM      3  C   UNL     1       1.991   6.952  19.430  0.00  0.00    +0.000 A 
ATOM      4  C   UNL     1       2.147   6.428  18.154  0.00  0.00    +0.000 A 
ATOM      5  C   UNL     1       2.243   5.044  17.987  0.00  0.00    +0.000 A 
ATOM      6  C   UNL     1       2.219   4.191  19.099  0.00  0.00    +0.000 A 
ENDROOT
BRANCH   3   7
ATOM      7  N   UNL     1       1.805   8.351  19.573  0.00  0.00    +0.000 N 
ATOM      8  C   UNL     1       1.668   9.296  18.565  0.00  0.00    +0.000 C 
ATOM      9  O   UNL     1       1.665   9.098  17.354  0.00  0.00    +0.000 OA
ATOM     10  H   UNL     1       1.720   8.683  20.531  0.00  0.00    +0.000 HD
BRANCH   8  11
ATOM     11  C   UNL     1       1.471  10.691  19.024  0.00  0.00    +0.000 A 
ATOM     12  C   UNL     1       1.923  11.786  18.274  0.00  0.00    +0.000 A 
ATOM     13  C   UNL     1       1.281  13.020  18.467  0.00  0.00    +0.000 A 
ATOM     14  C   UNL     1       0.401  13.140  19.537  0.00  0.00    +0.000 A 
ATOM     15  C   UNL     1       0.506  12.224  20.538  0.00  0.00    +0.000 A 
ATOM     16  C   UNL     1       0.565  10.946  20.051  0.00  0.00    +0.000 A 
ATOM     17  C   UNL     1       0.082  12.631  21.859  0.00  0.00    +0.000 C 
ATOM     18  C   UNL     1      -1.066  13.287  21.896  0.00  0.00    +0.000 C 
ATOM     19  C   UNL     1      -1.678  13.831  20.619  0.00  0.00    +0.000 C 
ATOM     20  C   UNL     1      -2.069  15.298  20.772  0.00  0.00    +0.000 C 
ATOM     21  C   UNL     1      -2.958  13.013  20.391  0.00  0.00    +0.000 C 
ATOM     22  O   UNL     1      -0.729  13.916  19.486  0.00  0.00    +0.000 OA
BRANCH  16  23
ATOM     23  O   UNL     1      -0.610  10.185  20.104  0.00  0.00    +0.000 OA
ATOM     24  C   UNL     1      -0.660   9.400  21.333  0.00  0.00    +0.000 C 
ENDBRANCH  16  23
ENDBRANCH   8  11
ENDBRANCH   3   7
BRANCH   1  26
ATOM     25  C   UNL     1       1.412   2.795  21.628  0.00  0.00    +0.000 C 
ATOM     26  O   UNL     1       2.332   3.878  21.454  0.00  0.00    +0.000 OA
ENDBRANCH   1  26
BRANCH   6  27
ATOM     27  O   UNL     1       2.216   2.852  18.772  0.00  0.00    +0.000 OA
BRANCH  27  28
ATOM     28  C   UNL     1       3.415   2.412  18.130  0.00  0.00    +0.000 C 
BRANCH  28  29
ATOM     29  C   UNL     1       4.637   3.005  18.832  0.00  0.00    +0.000 C 
BRANCH  29  30
ATOM     30  C   UNL     1       5.501   3.734  17.800  0.00  0.00    +0.000 C 
BRANCH  30  31
ATOM     31  C   UNL     1       5.897   5.173  18.164  0.00  0.00    +0.000 C 
ATOM     32  C   UNL     1       5.597   6.177  17.042  0.00  0.00    +0.000 C 
ATOM     33  C   UNL     1       6.186   7.560  17.340  0.00  0.00    +0.000 C 
ATOM     34  N   UNL     1       7.631   7.474  17.585  0.00  0.00    +0.000 NA
ATOM     35  C   UNL     1       8.205   8.803  17.782  0.00  0.00    +0.000 C 
ATOM     36  C   UNL     1       7.911   6.616  18.742  0.00  0.00    +0.000 C 
ATOM     37  C   UNL     1       7.400   5.200  18.494  0.00  0.00    +0.000 C 
ENDBRANCH  30  31
ENDBRANCH  29  30
ENDBRANCH  28  29
ENDBRANCH  27  28
ENDBRANCH   6  27
TORSDOF 9
ENDMDL
MODEL 9
REMARK VINA RESULT:      -6.7      4.135      7.759
REMARK  Name = 
REMARK  14 active torsions:
REMARK  status: ('A' for Active; 'I' for Inactive)
REMARK    1  A    between atoms: C_1  and  O_2
REMARK    2  A    between atoms: O_2  and  C_3
REMARK    3  A    between atoms: C_5  and  N_6
REMARK    4  A    between atoms: C_7  and  C_9
REMARK    5  A    between atoms: C_14  and  O_15
REMARK    6  A    between atoms: O_15  and  C_16
REMARK    7  A    between atoms: C_19  and  C_20
REMARK    8  A    between atoms: C_19  and  C_21
REMARK    9  A    between atoms: C_25  and  O_26
REMARK   10  A    between atoms: O_26  and  C_27
REMARK   11  A    between atoms: C_27  and  C_28
REMARK   12  A    between atoms: C_28  and  C_29
REMARK   13  A    between atoms: C_29  and  C_30
REMARK   14  A    between atoms: N_33  and  C_34
REMARK                            x       y       z     vdW  Elec       q    Type
REMARK                         _______ _______ _______ _____ _____    ______ ____
ROOT
ATOM      1  C   UNL     1       6.473   6.627  17.039  0.00  0.00    +0.000 A 
ATOM      2  C   UNL     1       7.309   7.716  17.356  0.00  0.00    +0.000 A 
ATOM      3  C   UNL     1       8.125   7.693  18.475  0.00  0.00    +0.000 A 
ATOM      4  C   UNL     1       8.125   6.586  19.313  0.00  0.00    +0.000 A 
ATOM      5  C   UNL     1       7.363   5.466  18.973  0.00  0.00    +0.000 A 
ATOM      6  C   UNL     1       6.573   5.470  17.814  0.00  0.00    +0.000 A 
ENDROOT
BRANCH   3   7
ATOM      7  N   UNL     1       8.973   8.785  18.789  0.00  0.00    +0.000 N 
ATOM      8  C   UNL     1       8.864  10.098  18.348  0.00  0.00    +0.000 C 
ATOM      9  O   UNL     1       8.001  10.568  17.615  0.00  0.00    +0.000 OA
ATOM     10  H   UNL     1       9.719   8.581  19.450  0.00  0.00    +0.000 HD
BRANCH   8  11
ATOM     11  C   UNL     1       9.898  11.028  18.861  0.00  0.00    +0.000 A 
ATOM     12  C   UNL     1      11.219  10.997  18.388  0.00  0.00    +0.000 A 
ATOM     13  C   UNL     1      11.980  12.172  18.501  0.00  0.00    +0.000 A 
ATOM     14  C   UNL     1      11.469  13.213  19.267  0.00  0.00    +0.000 A 
ATOM     15  C   UNL     1      10.489  12.907  20.162  0.00  0.00    +0.000 A 
ATOM     16  C   UNL     1       9.504  12.146  19.593  0.00  0.00    +0.000 A 
ATOM     17  C   UNL     1      10.368  13.751  21.330  0.00  0.00    +0.000 C 
ATOM     18  C   UNL     1      10.442  15.049  21.088  0.00  0.00    +0.000 C 
ATOM     19  C   UNL     1      10.940  15.550  19.746  0.00  0.00    +0.000 C 
ATOM     20  C   UNL     1      12.022  16.612  19.917  0.00  0.00    +0.000 C 
ATOM     21  C   UNL     1       9.726  16.205  19.070  0.00  0.00    +0.000 C 
ATOM     22  O   UNL     1      11.674  14.533  18.958  0.00  0.00    +0.000 OA
BRANCH  16  23
ATOM     23  O   UNL     1       8.322  12.799  19.221  0.00  0.00    +0.000 OA
ATOM     24  C   UNL     1       8.484  13.457  17.927  0.00  0.00    +0.000 C 
ENDBRANCH  16  23
ENDBRANCH   8  11
ENDBRANCH   3   7
BRANCH   1  26
ATOM     25  C   UNL     1       5.658   5.681  14.966  0.00  0.00    +0.000 C 
ATOM     26  O   UNL     1       5.572   6.656  16.011  0.00  0.00    +0.000 OA
ENDBRANCH   1  26
BRANCH   6  27
ATOM     27  O   UNL     1       5.962   4.263  17.554  0.00  0.00    +0.000 OA
BRANCH  27  28
ATOM     28  C   UNL     1       4.949   3.913  18.500  0.00  0.00    +0.000 C 
BRANCH  28  29
ATOM     29  C   UNL     1       3.628   4.591  18.132  0.00  0.00    +0.000 C 
BRANCH  29  30
ATOM     30  C   UNL     1       2.981   5.145  19.403  0.00  0.00    +0.000 C 
BRANCH  30  31
ATOM     31  C   UNL     1       2.845   6.674  19.465  0.00  0.00    +0.000 C 
ATOM     32  C   UNL     1       1.682   7.135  20.357  0.00  0.00    +0.000 C 
ATOM     33  C   UNL     1       1.434   8.642  20.239  0.00  0.00    +0.000 C 
ATOM     34  N   UNL     1       1.200   9.029  18.842  0.00  0.00    +0.000 NA
ATOM     35  C   UNL     1       0.877  10.451  18.743  0.00  0.00    +0.000 C 
ATOM     36  C   UNL     1       2.366   8.708  18.012  0.00  0.00    +0.000 C 
ATOM     37  C   UNL     1       2.643   7.207  18.035  0.00  0.00    +0.000 C 
ENDBRANCH  30  31
ENDBRANCH  29  30
ENDBRANCH  28  29
ENDBRANCH  27  28
ENDBRANCH   6  27
TORSDOF 9
ENDMDL
