MODEL 1
REMARK VINA RESULT:      -7.5      0.000      0.000
REMARK  Name = 
REMARK  8 active torsions:
REMARK  status: ('A' for Active; 'I' for Inactive)
REMARK    1  A    between atoms: C_1  and  C_2
REMARK    2  A    between atoms: C_2  and  O_3
REMARK    3  A    between atoms: O_3  and  C_4
REMARK    4  A    between atoms: C_4  and  C_6
REMARK    5  A    between atoms: C_9  and  N_10
REMARK    6  A    between atoms: C_14  and  N_15
REMARK    7  A    between atoms: C_17  and  C_18
REMARK    8  A    between atoms: C_20  and  C_21
REMARK                            x       y       z     vdW  Elec       q    Type
REMARK                         _______ _______ _______ _____ _____    ______ ____
ROOT
ATOM      1  N   UNL     1       3.080   6.212  18.674  0.00  0.00    +0.000 N 
ATOM      2  C   UNL     1       2.924   5.573  19.876  0.00  0.00    +0.000 C 
ATOM      3  O   UNL     1       3.546   4.622  20.330  0.00  0.00    +0.000 OA
ATOM      4  C   UNL     1       1.802   6.210  20.634  0.00  0.00    +0.000 C 
ATOM      5  C   UNL     1       1.387   7.433  19.818  0.00  0.00    +0.000 C 
ATOM      6  C   UNL     1       2.129   7.193  18.501  0.00  0.00    +0.000 C 
ATOM      7  O   UNL     1       1.829   7.754  17.452  0.00  0.00    +0.000 OA
ENDROOT
BRANCH   5   8
ATOM      8  N   UNL     1       1.759   8.751  20.395  0.00  0.00    +0.000 NA
ATOM      9  C   UNL     1       1.229   9.900  19.602  0.00  0.00    +0.000 C 
ATOM     10  C   UNL     1      -0.292  10.135  19.762  0.00  0.00    +0.000 C 
ATOM     11  C   UNL     1      -0.737  11.365  18.981  0.00  0.00    +0.000 C 
ATOM     12  O   UNL     1      -0.622  10.349  21.143  0.00  0.00    +0.000 OA
ATOM     13  C   UNL     1      -0.212   9.236  21.950  0.00  0.00    +0.000 C 
ATOM     14  C   UNL     1      -0.542   9.575  23.400  0.00  0.00    +0.000 C 
ATOM     15  C   UNL     1       1.301   8.965  21.792  0.00  0.00    +0.000 C 
ENDBRANCH   5   8
BRANCH   1  19
ATOM     16  C   UNL     1       5.876   5.056  15.680  0.00  0.00    +0.000 A 
ATOM     17  C   UNL     1       5.947   6.325  16.259  0.00  0.00    +0.000 A 
ATOM     18  C   UNL     1       5.019   6.715  17.232  0.00  0.00    +0.000 A 
ATOM     19  C   UNL     1       4.015   5.839  17.667  0.00  0.00    +0.000 A 
ATOM     20  C   UNL     1       3.952   4.568  17.072  0.00  0.00    +0.000 A 
ATOM     21  C   UNL     1       4.866   4.179  16.085  0.00  0.00    +0.000 A 
BRANCH  16  22
ATOM     22  C   UNL     1       6.839   4.722  14.599  0.00  0.00    +0.000 C 
ATOM     23  O   UNL     1       7.763   5.449  14.273  0.00  0.00    +0.000 OA
BRANCH  22  24
ATOM     24  O   UNL     1       6.459   3.579  13.978  0.00  0.00    +0.000 OA
BRANCH  24  26
ATOM     25  C   UNL     1       5.015   3.402  12.088  0.00  0.00    +0.000 C 
ATOM     26  C   UNL     1       6.442   3.640  12.546  0.00  0.00    +0.000 C 
ENDBRANCH  24  26
ENDBRANCH  22  24
ENDBRANCH  16  22
ENDBRANCH   1  19
TORSDOF 5
ENDMDL
MODEL 2
REMARK VINA RESULT:      -6.9      4.073      6.736
REMARK  Name = 
REMARK  8 active torsions:
REMARK  status: ('A' for Active; 'I' for Inactive)
REMARK    1  A    between atoms: C_1  and  C_2
REMARK    2  A    between atoms: C_2  and  O_3
REMARK    3  A    between atoms: O_3  and  C_4
REMARK    4  A    between atoms: C_4  and  C_6
REMARK    5  A    between atoms: C_9  and  N_10
REMARK    6  A    between atoms: C_14  and  N_15
REMARK    7  A    between atoms: C_17  and  C_18
REMARK    8  A    between atoms: C_20  and  C_21
REMARK                            x       y       z     vdW  Elec       q    Type
REMARK                         _______ _______ _______ _____ _____    ______ ____
ROOT
ATOM      1  N   UNL     1       0.517  10.907  18.776  0.00  0.00    +0.000 N 
ATOM      2  C   UNL     1      -0.817  11.138  18.567  0.00  0.00    +0.000 C 
ATOM      3  O   UNL     1      -1.752  10.349  18.608  0.00  0.00    +0.000 OA
ATOM      4  C   UNL     1      -1.024  12.584  18.236  0.00  0.00    +0.000 C 
ATOM      5  C   UNL     1       0.334  13.255  18.430  0.00  0.00    +0.000 C 
ATOM      6  C   UNL     1       1.262  12.044  18.561  0.00  0.00    +0.000 C 
ATOM      7  O   UNL     1       2.477  12.113  18.406  0.00  0.00    +0.000 OA
ENDROOT
BRANCH   5   8
ATOM      8  N   UNL     1       0.455  14.139  19.618  0.00  0.00    +0.000 NA
ATOM      9  C   UNL     1       1.768  14.845  19.682  0.00  0.00    +0.000 C 
ATOM     10  C   UNL     1       1.917  16.005  18.668  0.00  0.00    +0.000 C 
ATOM     11  C   UNL     1       3.252  16.718  18.848  0.00  0.00    +0.000 C 
ATOM     12  O   UNL     1       0.874  16.972  18.859  0.00  0.00    +0.000 OA
ATOM     13  C   UNL     1      -0.421  16.369  18.725  0.00  0.00    +0.000 C 
ATOM     14  C   UNL     1      -1.462  17.448  19.004  0.00  0.00    +0.000 C 
ATOM     15  C   UNL     1      -0.588  15.192  19.713  0.00  0.00    +0.000 C 
ENDBRANCH   5   8
BRANCH   1  19
ATOM     16  C   UNL     1       2.239   7.113  19.650  0.00  0.00    +0.000 A 
ATOM     17  C   UNL     1       2.300   7.635  18.356  0.00  0.00    +0.000 A 
ATOM     18  C   UNL     1       1.721   8.875  18.060  0.00  0.00    +0.000 A 
ATOM     19  C   UNL     1       1.090   9.634  19.055  0.00  0.00    +0.000 A 
ATOM     20  C   UNL     1       1.030   9.094  20.351  0.00  0.00    +0.000 A 
ATOM     21  C   UNL     1       1.592   7.846  20.648  0.00  0.00    +0.000 A 
BRANCH  16  22
ATOM     22  C   UNL     1       2.804   5.761  19.890  0.00  0.00    +0.000 C 
ATOM     23  O   UNL     1       3.684   5.267  19.202  0.00  0.00    +0.000 OA
BRANCH  22  24
ATOM     24  O   UNL     1       2.120   5.143  20.883  0.00  0.00    +0.000 OA
BRANCH  24  26
ATOM     25  C   UNL     1       1.455   2.895  21.326  0.00  0.00    +0.000 C 
ATOM     26  C   UNL     1       1.219   4.114  20.453  0.00  0.00    +0.000 C 
ENDBRANCH  24  26
ENDBRANCH  22  24
ENDBRANCH  16  22
ENDBRANCH   1  19
TORSDOF 5
ENDMDL
MODEL 3
REMARK VINA RESULT:      -6.9      2.850      7.741
REMARK  Name = 
REMARK  8 active torsions:
REMARK  status: ('A' for Active; 'I' for Inactive)
REMARK    1  A    between atoms: C_1  and  C_2
REMARK    2  A    between atoms: C_2  and  O_3
REMARK    3  A    between atoms: O_3  and  C_4
REMARK    4  A    between atoms: C_4  and  C_6
REMARK    5  A    between atoms: C_9  and  N_10
REMARK    6  A    between atoms: C_14  and  N_15
REMARK    7  A    between atoms: C_17  and  C_18
REMARK    8  A    between atoms: C_20  and  C_21
REMARK                            x       y       z     vdW  Elec       q    Type
REMARK                         _______ _______ _______ _____ _____    ______ ____
ROOT
ATOM      1  N   UNL     1       2.998   5.327  18.290  0.00  0.00    +0.000 N 
ATOM      2  C   UNL     1       4.327   4.994  18.337  0.00  0.00    +0.000 C 
ATOM      3  O   UNL     1       5.263   5.622  18.815  0.00  0.00    +0.000 OA
ATOM      4  C   UNL     1       4.530   3.672  17.665  0.00  0.00    +0.000 C 
ATOM      5  C   UNL     1       3.133   3.148  17.341  0.00  0.00    +0.000 C 
ATOM      6  C   UNL     1       2.271   4.388  17.594  0.00  0.00    +0.000 C 
ATOM      7  O   UNL     1       1.134   4.514  17.151  0.00  0.00    +0.000 OA
ENDROOT
BRANCH   5   8
ATOM      8  N   UNL     1       2.663   2.005  18.167  0.00  0.00    +0.000 NA
ATOM      9  C   UNL     1       3.775   1.316  18.885  0.00  0.00    +0.000 C 
ATOM     10  C   UNL     1       4.335   2.101  20.094  0.00  0.00    +0.000 C 
ATOM     11  C   UNL     1       5.412   1.299  20.813  0.00  0.00    +0.000 C 
ATOM     12  O   UNL     1       3.290   2.377  21.038  0.00  0.00    +0.000 OA
ATOM     13  C   UNL     1       2.223   3.116  20.427  0.00  0.00    +0.000 C 
ATOM     14  C   UNL     1       1.135   3.307  21.479  0.00  0.00    +0.000 C 
ATOM     15  C   UNL     1       1.659   2.362  19.201  0.00  0.00    +0.000 C 
ENDBRANCH   5   8
BRANCH   1  19
ATOM     16  C   UNL     1       1.371   8.986  19.732  0.00  0.00    +0.000 A 
ATOM     17  C   UNL     1       1.495   7.885  20.582  0.00  0.00    +0.000 A 
ATOM     18  C   UNL     1       2.014   6.675  20.108  0.00  0.00    +0.000 A 
ATOM     19  C   UNL     1       2.445   6.543  18.781  0.00  0.00    +0.000 A 
ATOM     20  C   UNL     1       2.310   7.657  17.935  0.00  0.00    +0.000 A 
ATOM     21  C   UNL     1       1.773   8.864  18.399  0.00  0.00    +0.000 A 
BRANCH  16  22
ATOM     22  C   UNL     1       0.744  10.221  20.268  0.00  0.00    +0.000 C 
ATOM     23  O   UNL     1       1.243  11.331  20.162  0.00  0.00    +0.000 OA
BRANCH  22  24
ATOM     24  O   UNL     1      -0.369   9.906  20.975  0.00  0.00    +0.000 OA
BRANCH  24  26
ATOM     25  C   UNL     1      -0.234   9.630  23.340  0.00  0.00    +0.000 C 
ATOM     26  C   UNL     1      -0.521  10.608  22.215  0.00  0.00    +0.000 C 
ENDBRANCH  24  26
ENDBRANCH  22  24
ENDBRANCH  16  22
ENDBRANCH   1  19
TORSDOF 5
ENDMDL
MODEL 4
REMARK VINA RESULT:      -6.8      2.831      7.692
REMARK  Name = 
REMARK  8 active torsions:
REMARK  status: ('A' for Active; 'I' for Inactive)
REMARK    1  A    between atoms: C_1  and  C_2
REMARK    2  A    between atoms: C_2  and  O_3
REMARK    3  A    between atoms: O_3  and  C_4
REMARK    4  A    between atoms: C_4  and  C_6
REMARK    5  A    between atoms: C_9  and  N_10
REMARK    6  A    between atoms: C_14  and  N_15
REMARK    7  A    between atoms: C_17  and  C_18
REMARK    8  A    between atoms: C_20  and  C_21
REMARK                            x       y       z     vdW  Elec       q    Type
REMARK                         _______ _______ _______ _____ _____    ______ ____
ROOT
ATOM      1  N   UNL     1       2.954   5.348  18.216  0.00  0.00    +0.000 N 
ATOM      2  C   UNL     1       4.277   4.994  18.230  0.00  0.00    +0.000 C 
ATOM      3  O   UNL     1       5.237   5.611  18.674  0.00  0.00    +0.000 OA
ATOM      4  C   UNL     1       4.440   3.660  17.570  0.00  0.00    +0.000 C 
ATOM      5  C   UNL     1       3.025   3.156  17.292  0.00  0.00    +0.000 C 
ATOM      6  C   UNL     1       2.191   4.413  17.554  0.00  0.00    +0.000 C 
ATOM      7  O   UNL     1       1.045   4.553  17.141  0.00  0.00    +0.000 OA
ENDROOT
BRANCH   5   8
ATOM      8  N   UNL     1       2.561   2.032  18.145  0.00  0.00    +0.000 NA
ATOM      9  C   UNL     1       3.682   1.329  18.837  0.00  0.00    +0.000 C 
ATOM     10  C   UNL     1       4.294   2.118  20.019  0.00  0.00    +0.000 C 
ATOM     11  C   UNL     1       5.377   1.303  20.714  0.00  0.00    +0.000 C 
ATOM     12  O   UNL     1       3.283   2.423  20.992  0.00  0.00    +0.000 OA
ATOM     13  C   UNL     1       2.212   3.175  20.405  0.00  0.00    +0.000 C 
ATOM     14  C   UNL     1       1.161   3.399  21.487  0.00  0.00    +0.000 C 
ATOM     15  C   UNL     1       1.596   2.419  19.205  0.00  0.00    +0.000 C 
ENDBRANCH   5   8
BRANCH   1  19
ATOM     16  C   UNL     1       1.378   9.009  19.710  0.00  0.00    +0.000 A 
ATOM     17  C   UNL     1       1.731   8.890  18.364  0.00  0.00    +0.000 A 
ATOM     18  C   UNL     1       2.265   7.693  17.872  0.00  0.00    +0.000 A 
ATOM     19  C   UNL     1       2.435   6.580  18.707  0.00  0.00    +0.000 A 
ATOM     20  C   UNL     1       2.081   6.716  20.060  0.00  0.00    +0.000 A 
ATOM     21  C   UNL     1       1.564   7.917  20.561  0.00  0.00    +0.000 A 
BRANCH  16  22
ATOM     22  C   UNL     1       0.887  10.325  20.193  0.00  0.00    +0.000 C 
ATOM     23  O   UNL     1       0.545  11.231  19.450  0.00  0.00    +0.000 OA
BRANCH  22  24
ATOM     24  O   UNL     1       0.997  10.393  21.543  0.00  0.00    +0.000 OA
BRANCH  24  26
ATOM     25  C   UNL     1      -0.273   9.588  23.395  0.00  0.00    +0.000 C 
ATOM     26  C   UNL     1      -0.238  10.579  22.245  0.00  0.00    +0.000 C 
ENDBRANCH  24  26
ENDBRANCH  22  24
ENDBRANCH  16  22
ENDBRANCH   1  19
TORSDOF 5
ENDMDL
MODEL 5
REMARK VINA RESULT:      -6.8      1.392      1.600
REMARK  Name = 
REMARK  8 active torsions:
REMARK  status: ('A' for Active; 'I' for Inactive)
REMARK    1  A    between atoms: C_1  and  C_2
REMARK    2  A    between atoms: C_2  and  O_3
REMARK    3  A    between atoms: O_3  and  C_4
REMARK    4  A    between atoms: C_4  and  C_6
REMARK    5  A    between atoms: C_9  and  N_10
REMARK    6  A    between atoms: C_14  and  N_15
REMARK    7  A    between atoms: C_17  and  C_18
REMARK    8  A    between atoms: C_20  and  C_21
REMARK                            x       y       z     vdW  Elec       q    Type
REMARK                         _______ _______ _______ _____ _____    ______ ____
ROOT
ATOM      1  N   UNL     1       2.520   7.289  18.876  0.00  0.00    +0.000 N 
ATOM      2  C   UNL     1       1.924   6.884  20.042  0.00  0.00    +0.000 C 
ATOM      3  O   UNL     1       2.155   5.893  20.723  0.00  0.00    +0.000 OA
ATOM      4  C   UNL     1       0.854   7.862  20.417  0.00  0.00    +0.000 C 
ATOM      5  C   UNL     1       0.974   9.014  19.421  0.00  0.00    +0.000 C 
ATOM      6  C   UNL     1       1.922   8.423  18.375  0.00  0.00    +0.000 C 
ATOM      7  O   UNL     1       2.035   8.879  17.242  0.00  0.00    +0.000 OA
ENDROOT
BRANCH   5   8
ATOM      8  N   UNL     1       1.521  10.284  19.966  0.00  0.00    +0.000 NA
ATOM      9  C   UNL     1       1.266  11.453  19.073  0.00  0.00    +0.000 C 
ATOM     10  C   UNL     1      -0.198  11.953  19.081  0.00  0.00    +0.000 C 
ATOM     11  C   UNL     1      -0.357  13.188  18.205  0.00  0.00    +0.000 C 
ATOM     12  O   UNL     1      -0.598  12.307  20.414  0.00  0.00    +0.000 OA
ATOM     13  C   UNL     1      -0.456  11.194  21.308  0.00  0.00    +0.000 C 
ATOM     14  C   UNL     1      -0.839  11.674  22.704  0.00  0.00    +0.000 C 
ATOM     15  C   UNL     1       0.995  10.660  21.303  0.00  0.00    +0.000 C 
ENDBRANCH   5   8
BRANCH   1  19
ATOM     16  C   UNL     1       5.562   5.108  16.849  0.00  0.00    +0.000 A 
ATOM     17  C   UNL     1       5.779   6.435  17.229  0.00  0.00    +0.000 A 
ATOM     18  C   UNL     1       4.775   7.161  17.881  0.00  0.00    +0.000 A 
ATOM     19  C   UNL     1       3.542   6.572  18.192  0.00  0.00    +0.000 A 
ATOM     20  C   UNL     1       3.335   5.239  17.799  0.00  0.00    +0.000 A 
ATOM     21  C   UNL     1       4.329   4.514  17.129  0.00  0.00    +0.000 A 
BRANCH  16  22
ATOM     22  C   UNL     1       6.633   4.410  16.093  0.00  0.00    +0.000 C 
ATOM     23  O   UNL     1       7.818   4.485  16.379  0.00  0.00    +0.000 OA
BRANCH  22  24
ATOM     24  O   UNL     1       6.108   3.800  15.002  0.00  0.00    +0.000 OA
BRANCH  24  26
ATOM     25  C   UNL     1       5.981   3.449  12.646  0.00  0.00    +0.000 C 
ATOM     26  C   UNL     1       6.503   4.359  13.743  0.00  0.00    +0.000 C 
ENDBRANCH  24  26
ENDBRANCH  22  24
ENDBRANCH  16  22
ENDBRANCH   1  19
TORSDOF 5
ENDMDL
MODEL 6
REMARK VINA RESULT:      -6.8      2.919      7.460
REMARK  Name = 
REMARK  8 active torsions:
REMARK  status: ('A' for Active; 'I' for Inactive)
REMARK    1  A    between atoms: C_1  and  C_2
REMARK    2  A    between atoms: C_2  and  O_3
REMARK    3  A    between atoms: O_3  and  C_4
REMARK    4  A    between atoms: C_4  and  C_6
REMARK    5  A    between atoms: C_9  and  N_10
REMARK    6  A    between atoms: C_14  and  N_15
REMARK    7  A    between atoms: C_17  and  C_18
REMARK    8  A    between atoms: C_20  and  C_21
REMARK                            x       y       z     vdW  Elec       q    Type
REMARK                         _______ _______ _______ _____ _____    ______ ____
ROOT
ATOM      1  N   UNL     1       3.002   5.311  18.305  0.00  0.00    +0.000 N 
ATOM      2  C   UNL     1       4.328   4.965  18.313  0.00  0.00    +0.000 C 
ATOM      3  O   UNL     1       5.283   5.579  18.769  0.00  0.00    +0.000 OA
ATOM      4  C   UNL     1       4.499   3.645  17.627  0.00  0.00    +0.000 C 
ATOM      5  C   UNL     1       3.087   3.138  17.338  0.00  0.00    +0.000 C 
ATOM      6  C   UNL     1       2.246   4.385  17.623  0.00  0.00    +0.000 C 
ATOM      7  O   UNL     1       1.099   4.526  17.212  0.00  0.00    +0.000 OA
ENDROOT
BRANCH   5   8
ATOM      8  N   UNL     1       2.628   1.995  18.170  0.00  0.00    +0.000 NA
ATOM      9  C   UNL     1       3.749   1.311  18.881  0.00  0.00    +0.000 C 
ATOM     10  C   UNL     1       4.315   2.101  20.085  0.00  0.00    +0.000 C 
ATOM     11  C   UNL     1       5.400   1.304  20.797  0.00  0.00    +0.000 C 
ATOM     12  O   UNL     1       3.275   2.374  21.036  0.00  0.00    +0.000 OA
ATOM     13  C   UNL     1       2.201   3.108  20.431  0.00  0.00    +0.000 C 
ATOM     14  C   UNL     1       1.120   3.297  21.491  0.00  0.00    +0.000 C 
ATOM     15  C   UNL     1       1.631   2.350  19.211  0.00  0.00    +0.000 C 
ENDBRANCH   5   8
BRANCH   1  19
ATOM     16  C   UNL     1       1.455   8.979  19.814  0.00  0.00    +0.000 A 
ATOM     17  C   UNL     1       1.538   7.855  20.639  0.00  0.00    +0.000 A 
ATOM     18  C   UNL     1       2.031   6.642  20.142  0.00  0.00    +0.000 A 
ATOM     19  C   UNL     1       2.476   6.531  18.818  0.00  0.00    +0.000 A 
ATOM     20  C   UNL     1       2.382   7.667  17.997  0.00  0.00    +0.000 A 
ATOM     21  C   UNL     1       1.872   8.878  18.484  0.00  0.00    +0.000 A 
BRANCH  16  22
ATOM     22  C   UNL     1       0.855  10.217  20.372  0.00  0.00    +0.000 C 
ATOM     23  O   UNL     1       0.923  10.527  21.551  0.00  0.00    +0.000 OA
BRANCH  22  24
ATOM     24  O   UNL     1       0.141  10.858  19.414  0.00  0.00    +0.000 OA
BRANCH  24  26
ATOM     25  C   UNL     1      -1.506  10.265  17.794  0.00  0.00    +0.000 C 
ATOM     26  C   UNL     1      -1.218  10.424  19.276  0.00  0.00    +0.000 C 
ENDBRANCH  24  26
ENDBRANCH  22  24
ENDBRANCH  16  22
ENDBRANCH   1  19
TORSDOF 5
ENDMDL
MODEL 7
REMARK VINA RESULT:      -6.8      3.310      5.908
REMARK  Name = 
REMARK  8 active torsions:
REMARK  status: ('A' for Active; 'I' for Inactive)
REMARK    1  A    between atoms: C_1  and  C_2
REMARK    2  A    between atoms: C_2  and  O_3
REMARK    3  A    between atoms: O_3  and  C_4
REMARK    4  A    between atoms: C_4  and  C_6
REMARK    5  A    between atoms: C_9  and  N_10
REMARK    6  A    between atoms: C_14  and  N_15
REMARK    7  A    between atoms: C_17  and  C_18
REMARK    8  A    between atoms: C_20  and  C_21
REMARK                            x       y       z     vdW  Elec       q    Type
REMARK                         _______ _______ _______ _____ _____    ______ ____
ROOT
ATOM      1  N   UNL     1      -0.134  10.716  19.690  0.00  0.00    +0.000 N 
ATOM      2  C   UNL     1      -1.339  10.941  19.078  0.00  0.00    +0.000 C 
ATOM      3  O   UNL     1      -1.875  10.310  18.175  0.00  0.00    +0.000 OA
ATOM      4  C   UNL     1      -1.978  12.157  19.673  0.00  0.00    +0.000 C 
ATOM      5  C   UNL     1      -1.090  12.563  20.847  0.00  0.00    +0.000 C 
ATOM      6  C   UNL     1       0.151  11.698  20.611  0.00  0.00    +0.000 C 
ATOM      7  O   UNL     1       1.239  11.936  21.126  0.00  0.00    +0.000 OA
ENDROOT
BRANCH   5   8
ATOM      8  N   UNL     1      -1.653  12.313  22.200  0.00  0.00    +0.000 NA
ATOM      9  C   UNL     1      -1.108  13.242  23.233  0.00  0.00    +0.000 C 
ATOM     10  C   UNL     1      -1.662  14.684  23.149  0.00  0.00    +0.000 C 
ATOM     11  C   UNL     1      -1.113  15.545  24.280  0.00  0.00    +0.000 C 
ATOM     12  O   UNL     1      -3.093  14.676  23.259  0.00  0.00    +0.000 OA
ATOM     13  C   UNL     1      -3.685  13.864  22.235  0.00  0.00    +0.000 C 
ATOM     14  C   UNL     1      -5.193  13.862  22.465  0.00  0.00    +0.000 C 
ATOM     15  C   UNL     1      -3.132  12.422  22.282  0.00  0.00    +0.000 C 
ENDBRANCH   5   8
BRANCH   1  19
ATOM     16  C   UNL     1       2.601   7.612  18.688  0.00  0.00    +0.000 A 
ATOM     17  C   UNL     1       2.305   8.617  17.764  0.00  0.00    +0.000 A 
ATOM     18  C   UNL     1       1.393   9.630  18.084  0.00  0.00    +0.000 A 
ATOM     19  C   UNL     1       0.777   9.678  19.342  0.00  0.00    +0.000 A 
ATOM     20  C   UNL     1       1.080   8.658  20.259  0.00  0.00    +0.000 A 
ATOM     21  C   UNL     1       1.977   7.632  19.938  0.00  0.00    +0.000 A 
BRANCH  16  22
ATOM     22  C   UNL     1       3.517   6.520  18.269  0.00  0.00    +0.000 C 
ATOM     23  O   UNL     1       4.331   6.633  17.366  0.00  0.00    +0.000 OA
BRANCH  22  24
ATOM     24  O   UNL     1       3.224   5.384  18.947  0.00  0.00    +0.000 OA
BRANCH  24  26
ATOM     25  C   UNL     1       1.509   4.253  17.735  0.00  0.00    +0.000 C 
ATOM     26  C   UNL     1       2.975   4.234  18.129  0.00  0.00    +0.000 C 
ENDBRANCH  24  26
ENDBRANCH  22  24
ENDBRANCH  16  22
ENDBRANCH   1  19
TORSDOF 5
ENDMDL
MODEL 8
REMARK VINA RESULT:      -6.8      1.220      1.659
REMARK  Name = 
REMARK  8 active torsions:
REMARK  status: ('A' for Active; 'I' for Inactive)
REMARK    1  A    between atoms: C_1  and  C_2
REMARK    2  A    between atoms: C_2  and  O_3
REMARK    3  A    between atoms: O_3  and  C_4
REMARK    4  A    between atoms: C_4  and  C_6
REMARK    5  A    between atoms: C_9  and  N_10
REMARK    6  A    between atoms: C_14  and  N_15
REMARK    7  A    between atoms: C_17  and  C_18
REMARK    8  A    between atoms: C_20  and  C_21
REMARK                            x       y       z     vdW  Elec       q    Type
REMARK                         _______ _______ _______ _____ _____    ______ ____
ROOT
ATOM      1  N   UNL     1       2.689   7.231  18.762  0.00  0.00    +0.000 N 
ATOM      2  C   UNL     1       2.214   6.709  19.937  0.00  0.00    +0.000 C 
ATOM      3  O   UNL     1       2.581   5.709  20.542  0.00  0.00    +0.000 OA
ATOM      4  C   UNL     1       1.088   7.559  20.438  0.00  0.00    +0.000 C 
ATOM      5  C   UNL     1       1.033   8.769  19.508  0.00  0.00    +0.000 C 
ATOM      6  C   UNL     1       1.956   8.328  18.369  0.00  0.00    +0.000 C 
ATOM      7  O   UNL     1       1.949   8.852  17.260  0.00  0.00    +0.000 OA
ENDROOT
BRANCH   5   8
ATOM      8  N   UNL     1       1.499  10.055  20.091  0.00  0.00    +0.000 NA
ATOM      9  C   UNL     1       1.171  11.231  19.233  0.00  0.00    +0.000 C 
ATOM     10  C   UNL     1      -0.322  11.637  19.253  0.00  0.00    +0.000 C 
ATOM     11  C   UNL     1      -0.558  12.886  18.413  0.00  0.00    +0.000 C 
ATOM     12  O   UNL     1      -0.743  11.925  20.595  0.00  0.00    +0.000 OA
ATOM     13  C   UNL     1      -0.532  10.797  21.455  0.00  0.00    +0.000 C 
ATOM     14  C   UNL     1      -0.945  11.211  22.864  0.00  0.00    +0.000 C 
ATOM     15  C   UNL     1       0.950  10.356  21.437  0.00  0.00    +0.000 C 
ENDBRANCH   5   8
BRANCH   1  19
ATOM     16  C   UNL     1       5.785   5.536  16.382  0.00  0.00    +0.000 A 
ATOM     17  C   UNL     1       4.640   4.794  16.685  0.00  0.00    +0.000 A 
ATOM     18  C   UNL     1       3.627   5.341  17.482  0.00  0.00    +0.000 A 
ATOM     19  C   UNL     1       3.721   6.651  17.972  0.00  0.00    +0.000 A 
ATOM     20  C   UNL     1       4.880   7.384  17.664  0.00  0.00    +0.000 A 
ATOM     21  C   UNL     1       5.905   6.834  16.884  0.00  0.00    +0.000 A 
BRANCH  16  22
ATOM     22  C   UNL     1       6.860   4.879  15.597  0.00  0.00    +0.000 C 
ATOM     23  O   UNL     1       7.871   4.412  16.098  0.00  0.00    +0.000 OA
BRANCH  22  24
ATOM     24  O   UNL     1       6.600   4.991  14.272  0.00  0.00    +0.000 OA
BRANCH  24  26
ATOM     25  C   UNL     1       6.754   3.770  12.228  0.00  0.00    +0.000 C 
ATOM     26  C   UNL     1       6.174   3.782  13.631  0.00  0.00    +0.000 C 
ENDBRANCH  24  26
ENDBRANCH  22  24
ENDBRANCH  16  22
ENDBRANCH   1  19
TORSDOF 5
ENDMDL
MODEL 9
REMARK VINA RESULT:      -6.7      3.240      5.707
REMARK  Name = 
REMARK  8 active torsions:
REMARK  status: ('A' for Active; 'I' for Inactive)
REMARK    1  A    between atoms: C_1  and  C_2
REMARK    2  A    between atoms: C_2  and  O_3
REMARK    3  A    between atoms: O_3  and  C_4
REMARK    4  A    between atoms: C_4  and  C_6
REMARK    5  A    between atoms: C_9  and  N_10
REMARK    6  A    between atoms: C_14  and  N_15
REMARK    7  A    between atoms: C_17  and  C_18
REMARK    8  A    between atoms: C_20  and  C_21
REMARK                            x       y       z     vdW  Elec       q    Type
REMARK                         _______ _______ _______ _____ _____    ______ ____
ROOT
ATOM      1  N   UNL     1       0.225  10.431  19.540  0.00  0.00    +0.000 N 
ATOM      2  C   UNL     1      -0.811  10.784  18.715  0.00  0.00    +0.000 C 
ATOM      3  O   UNL     1      -1.228  10.215  17.715  0.00  0.00    +0.000 OA
ATOM      4  C   UNL     1      -1.419  12.061  19.204  0.00  0.00    +0.000 C 
ATOM      5  C   UNL     1      -0.734  12.370  20.533  0.00  0.00    +0.000 C 
ATOM      6  C   UNL     1       0.432  11.377  20.518  0.00  0.00    +0.000 C 
ATOM      7  O   UNL     1       1.421  11.496  21.234  0.00  0.00    +0.000 OA
ENDROOT
BRANCH   5   8
ATOM      8  N   UNL     1      -1.567  12.181  21.749  0.00  0.00    +0.000 NA
ATOM      9  C   UNL     1      -1.106  13.012  22.900  0.00  0.00    +0.000 C 
ATOM     10  C   UNL     1      -1.440  14.518  22.772  0.00  0.00    +0.000 C 
ATOM     11  C   UNL     1      -1.003  15.281  24.016  0.00  0.00    +0.000 C 
ATOM     12  O   UNL     1      -2.855  14.704  22.617  0.00  0.00    +0.000 OA
ATOM     13  C   UNL     1      -3.347  13.995  21.471  0.00  0.00    +0.000 C 
ATOM     14  C   UNL     1      -4.859  14.196  21.422  0.00  0.00    +0.000 C 
ATOM     15  C   UNL     1      -3.008  12.490  21.564  0.00  0.00    +0.000 C 
ENDBRANCH   5   8
BRANCH   1  19
ATOM     16  C   UNL     1       2.744   7.055  18.925  0.00  0.00    +0.000 A 
ATOM     17  C   UNL     1       2.047   7.206  20.126  0.00  0.00    +0.000 A 
ATOM     18  C   UNL     1       1.231   8.323  20.339  0.00  0.00    +0.000 A 
ATOM     19  C   UNL     1       1.071   9.301  19.348  0.00  0.00    +0.000 A 
ATOM     20  C   UNL     1       1.782   9.139  18.147  0.00  0.00    +0.000 A 
ATOM     21  C   UNL     1       2.615   8.034  17.936  0.00  0.00    +0.000 A 
BRANCH  16  22
ATOM     22  C   UNL     1       3.654   5.889  18.782  0.00  0.00    +0.000 C 
ATOM     23  O   UNL     1       4.549   5.633  19.572  0.00  0.00    +0.000 OA
BRANCH  22  24
ATOM     24  O   UNL     1       3.412   5.255  17.609  0.00  0.00    +0.000 OA
BRANCH  24  26
ATOM     25  C   UNL     1       1.468   3.894  17.850  0.00  0.00    +0.000 C 
ATOM     26  C   UNL     1       2.982   3.893  17.731  0.00  0.00    +0.000 C 
ENDBRANCH  24  26
ENDBRANCH  22  24
ENDBRANCH  16  22
ENDBRANCH   1  19
TORSDOF 5
ENDMDL
