MODEL 1
REMARK VINA RESULT:      -8.9      0.000      0.000
REMARK  Name = 
REMARK  4 active torsions:
REMARK  status: ('A' for Active; 'I' for Inactive)
REMARK    1  A    between atoms: C_1  and  C_2
REMARK    2  A    between atoms: C_5  and  C_6
REMARK    3  A    between atoms: N_8  and  C_9
REMARK    4  A    between atoms: C_13  and  C_14
REMARK                            x       y       z     vdW  Elec       q    Type
REMARK                         _______ _______ _______ _____ _____    ______ ____
ROOT
ATOM      1  C   UNL     1       2.245   7.621  19.028  0.00  0.00    +0.000 A 
ATOM      2  C   UNL     1       2.090   8.326  17.823  0.00  0.00    +0.000 A 
ATOM      3  C   UNL     1       1.722   9.685  17.796  0.00  0.00    +0.000 A 
ATOM      4  C   UNL     1       1.349  10.319  18.976  0.00  0.00    +0.000 A 
ATOM      5  C   UNL     1       0.983   9.434  19.965  0.00  0.00    +0.000 A 
ATOM      6  C   UNL     1       1.583   8.197  20.127  0.00  0.00    +0.000 A 
ATOM      7  N   UNL     1      -0.389   9.684  20.196  0.00  0.00    +0.000 N 
ATOM      8  C   UNL     1      -0.820  10.771  19.358  0.00  0.00    +0.000 C 
ATOM      9  O   UNL     1      -1.953  11.054  19.036  0.00  0.00    +0.000 OA
ATOM     10  C   UNL     1       0.488  11.569  19.131  0.00  0.00    +0.000 C 
ATOM     11  C   UNL     1       0.791  12.608  18.049  0.00  0.00    +0.000 C 
ATOM     12  C   UNL     1       2.126  13.367  18.275  0.00  0.00    +0.000 C 
ATOM     13  S   UNL     1       2.457  14.024  19.909  0.00  0.00    +0.000 S 
ATOM     14  O   UNL     1       3.884  13.941  20.145  0.00  0.00    +0.000 OA
ATOM     15  O   UNL     1       1.756  15.286  20.031  0.00  0.00    +0.000 OA
ATOM     16  C   UNL     1       1.699  12.900  21.034  0.00  0.00    +0.000 C 
ATOM     17  C   UNL     1       0.410  12.369  20.488  0.00  0.00    +0.000 C 
ATOM     18  H   UNL     1      -1.031   8.977  20.523  0.00  0.00    +0.000 HD
ENDROOT
BRANCH   1  25
ATOM     19  C   UNL     1       1.439   5.216  20.860  0.00  0.00    +0.000 C 
ATOM     20  C   UNL     1       2.628   5.228  19.928  0.00  0.00    +0.000 A 
ATOM     21  C   UNL     1       3.345   4.015  19.862  0.00  0.00    +0.000 A 
ATOM     22  C   UNL     1       4.419   3.852  18.996  0.00  0.00    +0.000 A 
ATOM     23  C   UNL     1       4.829   4.922  18.207  0.00  0.00    +0.000 A 
ATOM     24  C   UNL     1       4.145   6.148  18.286  0.00  0.00    +0.000 A 
ATOM     25  C   UNL     1       3.019   6.340  19.124  0.00  0.00    +0.000 A 
BRANCH  23  26
ATOM     26  C   UNL     1       5.957   4.685  17.249  0.00  0.00    +0.000 C 
ATOM     27  O   UNL     1       7.101   4.912  17.593  0.00  0.00    +0.000 OA
ATOM     28  N   UNL     1       5.587   4.214  15.995  0.00  0.00    +0.000 N 
ATOM     29  H   UNL     1       4.625   4.249  15.726  0.00  0.00    +0.000 HD
BRANCH  28  30
ATOM     30  C   UNL     1       6.565   3.970  14.986  0.00  0.00    +0.000 C 
ATOM     31  C   UNL     1       6.168   3.811  13.544  0.00  0.00    +0.000 C 
ATOM     32  C   UNL     1       6.900   5.044  13.984  0.00  0.00    +0.000 C 
ENDBRANCH  28  30
ENDBRANCH  23  26
ENDBRANCH   1  25
TORSDOF 3
ENDMDL
MODEL 2
REMARK VINA RESULT:      -8.3      1.773      3.220
REMARK  Name = 
REMARK  4 active torsions:
REMARK  status: ('A' for Active; 'I' for Inactive)
REMARK    1  A    between atoms: C_1  and  C_2
REMARK    2  A    between atoms: C_5  and  C_6
REMARK    3  A    between atoms: N_8  and  C_9
REMARK    4  A    between atoms: C_13  and  C_14
REMARK                            x       y       z     vdW  Elec       q    Type
REMARK                         _______ _______ _______ _____ _____    ______ ____
ROOT
ATOM      1  C   UNL     1       2.325   7.485  19.142  0.00  0.00    +0.000 A 
ATOM      2  C   UNL     1       1.840   8.042  20.337  0.00  0.00    +0.000 A 
ATOM      3  C   UNL     1       0.924   9.111  20.342  0.00  0.00    +0.000 A 
ATOM      4  C   UNL     1       0.600   9.745  19.147  0.00  0.00    +0.000 A 
ATOM      5  C   UNL     1       1.530   9.522  18.155  0.00  0.00    +0.000 A 
ATOM      6  C   UNL     1       2.214   8.326  18.021  0.00  0.00    +0.000 A 
ATOM      7  N   UNL     1       2.093  10.790  17.886  0.00  0.00    +0.000 N 
ATOM      8  C   UNL     1       1.444  11.780  18.702  0.00  0.00    +0.000 C 
ATOM      9  O   UNL     1       1.850  12.884  18.991  0.00  0.00    +0.000 OA
ATOM     10  C   UNL     1       0.050  11.155  18.958  0.00  0.00    +0.000 C 
ATOM     11  C   UNL     1      -0.971  11.519  20.039  0.00  0.00    +0.000 C 
ATOM     12  C   UNL     1      -2.351  10.838  19.842  0.00  0.00    +0.000 C 
ATOM     13  S   UNL     1      -3.094  10.889  18.212  0.00  0.00    +0.000 S 
ATOM     14  O   UNL     1      -3.830   9.657  18.016  0.00  0.00    +0.000 OA
ATOM     15  O   UNL     1      -3.743  12.175  18.060  0.00  0.00    +0.000 OA
ATOM     16  C   UNL     1      -1.747  10.853  17.077  0.00  0.00    +0.000 C 
ATOM     17  C   UNL     1      -0.578  11.633  17.593  0.00  0.00    +0.000 C 
ATOM     18  H   UNL     1       3.036  10.914  17.548  0.00  0.00    +0.000 HD
ENDROOT
BRANCH   1  25
ATOM     19  C   UNL     1       1.127   4.941  20.515  0.00  0.00    +0.000 C 
ATOM     20  C   UNL     1       2.380   4.954  19.670  0.00  0.00    +0.000 A 
ATOM     21  C   UNL     1       2.966   3.690  19.454  0.00  0.00    +0.000 A 
ATOM     22  C   UNL     1       4.080   3.536  18.640  0.00  0.00    +0.000 A 
ATOM     23  C   UNL     1       4.663   4.657  18.058  0.00  0.00    +0.000 A 
ATOM     24  C   UNL     1       4.109   5.928  18.290  0.00  0.00    +0.000 A 
ATOM     25  C   UNL     1       2.948   6.122  19.078  0.00  0.00    +0.000 A 
BRANCH  23  26
ATOM     26  C   UNL     1       5.830   4.437  17.144  0.00  0.00    +0.000 C 
ATOM     27  O   UNL     1       6.963   4.532  17.576  0.00  0.00    +0.000 OA
ATOM     28  N   UNL     1       5.509   4.140  15.825  0.00  0.00    +0.000 N 
ATOM     29  H   UNL     1       4.572   4.282  15.508  0.00  0.00    +0.000 HD
BRANCH  28  30
ATOM     30  C   UNL     1       6.530   3.931  14.851  0.00  0.00    +0.000 C 
ATOM     31  C   UNL     1       6.190   3.763  13.395  0.00  0.00    +0.000 C 
ATOM     32  C   UNL     1       6.866   5.018  13.864  0.00  0.00    +0.000 C 
ENDBRANCH  28  30
ENDBRANCH  23  26
ENDBRANCH   1  25
TORSDOF 3
ENDMDL
MODEL 3
REMARK VINA RESULT:      -8.3      3.005      8.396
REMARK  Name = 
REMARK  4 active torsions:
REMARK  status: ('A' for Active; 'I' for Inactive)
REMARK    1  A    between atoms: C_1  and  C_2
REMARK    2  A    between atoms: C_5  and  C_6
REMARK    3  A    between atoms: N_8  and  C_9
REMARK    4  A    between atoms: C_13  and  C_14
REMARK                            x       y       z     vdW  Elec       q    Type
REMARK                         _______ _______ _______ _____ _____    ______ ____
ROOT
ATOM      1  C   UNL     1       1.632   7.637  19.474  0.00  0.00    +0.000 A 
ATOM      2  C   UNL     1       2.435   6.949  20.399  0.00  0.00    +0.000 A 
ATOM      3  C   UNL     1       3.462   6.076  19.990  0.00  0.00    +0.000 A 
ATOM      4  C   UNL     1       3.596   5.756  18.643  0.00  0.00    +0.000 A 
ATOM      5  C   UNL     1       2.451   6.004  17.919  0.00  0.00    +0.000 A 
ATOM      6  C   UNL     1       1.604   7.065  18.190  0.00  0.00    +0.000 A 
ATOM      7  N   UNL     1       2.012   4.735  17.477  0.00  0.00    +0.000 N 
ATOM      8  C   UNL     1       2.947   3.733  17.911  0.00  0.00    +0.000 C 
ATOM      9  O   UNL     1       2.761   2.540  18.010  0.00  0.00    +0.000 OA
ATOM     10  C   UNL     1       4.270   4.529  18.039  0.00  0.00    +0.000 C 
ATOM     11  C   UNL     1       5.541   4.143  18.799  0.00  0.00    +0.000 C 
ATOM     12  C   UNL     1       6.744   5.080  18.510  0.00  0.00    +0.000 C 
ATOM     13  S   UNL     1       7.112   5.480  16.803  0.00  0.00    +0.000 S 
ATOM     14  O   UNL     1       7.620   6.836  16.760  0.00  0.00    +0.000 OA
ATOM     15  O   UNL     1       7.874   4.382  16.244  0.00  0.00    +0.000 OA
ATOM     16  C   UNL     1       5.556   5.503  15.976  0.00  0.00    +0.000 C 
ATOM     17  C   UNL     1       4.641   4.445  16.508  0.00  0.00    +0.000 C 
ATOM     18  H   UNL     1       1.042   4.518  17.300  0.00  0.00    +0.000 HD
ENDROOT
BRANCH   1  25
ATOM     19  C   UNL     1       1.697   8.994  22.293  0.00  0.00    +0.000 C 
ATOM     20  C   UNL     1       0.900   9.499  21.112  0.00  0.00    +0.000 A 
ATOM     21  C   UNL     1       0.217  10.713  21.330  0.00  0.00    +0.000 A 
ATOM     22  C   UNL     1      -0.499  11.336  20.316  0.00  0.00    +0.000 A 
ATOM     23  C   UNL     1      -0.586  10.728  19.067  0.00  0.00    +0.000 A 
ATOM     24  C   UNL     1       0.062   9.500  18.845  0.00  0.00    +0.000 A 
ATOM     25  C   UNL     1       0.838   8.856  19.840  0.00  0.00    +0.000 A 
BRANCH  23  26
ATOM     26  C   UNL     1      -1.324  11.462  17.989  0.00  0.00    +0.000 C 
ATOM     27  O   UNL     1      -1.372  12.677  18.008  0.00  0.00    +0.000 OA
ATOM     28  N   UNL     1      -1.923  10.662  17.023  0.00  0.00    +0.000 N 
ATOM     29  H   UNL     1      -2.010   9.680  17.190  0.00  0.00    +0.000 HD
BRANCH  28  30
ATOM     30  C   UNL     1      -2.673  11.239  15.957  0.00  0.00    +0.000 C 
ATOM     31  C   UNL     1      -3.183  10.393  14.821  0.00  0.00    +0.000 C 
ATOM     32  C   UNL     1      -4.146  10.950  15.828  0.00  0.00    +0.000 C 
ENDBRANCH  28  30
ENDBRANCH  23  26
ENDBRANCH   1  25
TORSDOF 3
ENDMDL
MODEL 4
REMARK VINA RESULT:      -8.2      2.797      8.259
REMARK  Name = 
REMARK  4 active torsions:
REMARK  status: ('A' for Active; 'I' for Inactive)
REMARK    1  A    between atoms: C_1  and  C_2
REMARK    2  A    between atoms: C_5  and  C_6
REMARK    3  A    between atoms: N_8  and  C_9
REMARK    4  A    between atoms: C_13  and  C_14
REMARK                            x       y       z     vdW  Elec       q    Type
REMARK                         _______ _______ _______ _____ _____    ______ ____
ROOT
ATOM      1  C   UNL     1       1.565   8.181  19.495  0.00  0.00    +0.000 A 
ATOM      2  C   UNL     1       2.099   7.325  20.472  0.00  0.00    +0.000 A 
ATOM      3  C   UNL     1       3.078   6.361  20.163  0.00  0.00    +0.000 A 
ATOM      4  C   UNL     1       3.423   6.132  18.835  0.00  0.00    +0.000 A 
ATOM      5  C   UNL     1       2.468   6.582  17.951  0.00  0.00    +0.000 A 
ATOM      6  C   UNL     1       1.712   7.720  18.174  0.00  0.00    +0.000 A 
ATOM      7  N   UNL     1       1.978   5.419  17.314  0.00  0.00    +0.000 N 
ATOM      8  C   UNL     1       2.696   4.273  17.802  0.00  0.00    +0.000 C 
ATOM      9  O   UNL     1       2.362   3.110  17.747  0.00  0.00    +0.000 OA
ATOM     10  C   UNL     1       4.054   4.878  18.238  0.00  0.00    +0.000 C 
ATOM     11  C   UNL     1       5.109   4.273  19.167  0.00  0.00    +0.000 C 
ATOM     12  C   UNL     1       6.444   5.066  19.188  0.00  0.00    +0.000 C 
ATOM     13  S   UNL     1       7.165   5.547  17.620  0.00  0.00    +0.000 S 
ATOM     14  O   UNL     1       7.823   6.824  17.803  0.00  0.00    +0.000 OA
ATOM     15  O   UNL     1       7.889   4.406  17.095  0.00  0.00    +0.000 OA
ATOM     16  C   UNL     1       5.803   5.836  16.541  0.00  0.00    +0.000 C 
ATOM     17  C   UNL     1       4.691   4.867  16.795  0.00  0.00    +0.000 C 
ATOM     18  H   UNL     1       1.039   5.344  16.950  0.00  0.00    +0.000 HD
ENDROOT
BRANCH   1  25
ATOM     19  C   UNL     1      -0.518   8.474  21.811  0.00  0.00    +0.000 C 
ATOM     20  C   UNL     1      -0.058   9.604  20.919  0.00  0.00    +0.000 A 
ATOM     21  C   UNL     1      -0.578  10.873  21.247  0.00  0.00    +0.000 A 
ATOM     22  C   UNL     1      -0.191  12.017  20.561  0.00  0.00    +0.000 A 
ATOM     23  C   UNL     1       0.695  11.907  19.494  0.00  0.00    +0.000 A 
ATOM     24  C   UNL     1       1.197  10.644  19.134  0.00  0.00    +0.000 A 
ATOM     25  C   UNL     1       0.860   9.461  19.836  0.00  0.00    +0.000 A 
BRANCH  23  26
ATOM     26  C   UNL     1       1.127  13.173  18.819  0.00  0.00    +0.000 C 
ATOM     27  O   UNL     1       0.292  13.980  18.455  0.00  0.00    +0.000 OA
ATOM     28  N   UNL     1       2.497  13.323  18.647  0.00  0.00    +0.000 N 
ATOM     29  H   UNL     1       3.094  12.533  18.785  0.00  0.00    +0.000 HD
BRANCH  28  30
ATOM     30  C   UNL     1       3.034  14.473  17.997  0.00  0.00    +0.000 C 
ATOM     31  C   UNL     1       3.536  15.649  18.790  0.00  0.00    +0.000 C 
ATOM     32  C   UNL     1       4.510  14.763  18.071  0.00  0.00    +0.000 C 
ENDBRANCH  28  30
ENDBRANCH  23  26
ENDBRANCH   1  25
TORSDOF 3
ENDMDL
MODEL 5
REMARK VINA RESULT:      -8.1      3.143      4.486
REMARK  Name = 
REMARK  4 active torsions:
REMARK  status: ('A' for Active; 'I' for Inactive)
REMARK    1  A    between atoms: C_1  and  C_2
REMARK    2  A    between atoms: C_5  and  C_6
REMARK    3  A    between atoms: N_8  and  C_9
REMARK    4  A    between atoms: C_13  and  C_14
REMARK                            x       y       z     vdW  Elec       q    Type
REMARK                         _______ _______ _______ _____ _____    ______ ____
ROOT
ATOM      1  C   UNL     1       0.280   9.829  20.132  0.00  0.00    +0.000 A 
ATOM      2  C   UNL     1      -0.900  10.320  19.549  0.00  0.00    +0.000 A 
ATOM      3  C   UNL     1      -1.533  11.487  20.019  0.00  0.00    +0.000 A 
ATOM      4  C   UNL     1      -1.078  12.094  21.185  0.00  0.00    +0.000 A 
ATOM      5  C   UNL     1      -0.327  11.247  21.970  0.00  0.00    +0.000 A 
ATOM      6  C   UNL     1       0.514  10.281  21.443  0.00  0.00    +0.000 A 
ATOM      7  N   UNL     1      -1.076  11.081  23.156  0.00  0.00    +0.000 N 
ATOM      8  C   UNL     1      -2.266  11.887  23.082  0.00  0.00    +0.000 C 
ATOM      9  O   UNL     1      -3.282  11.769  23.731  0.00  0.00    +0.000 OA
ATOM     10  C   UNL     1      -1.851  13.024  22.115  0.00  0.00    +0.000 C 
ATOM     11  C   UNL     1      -2.753  13.987  21.339  0.00  0.00    +0.000 C 
ATOM     12  C   UNL     1      -1.977  15.142  20.651  0.00  0.00    +0.000 C 
ATOM     13  S   UNL     1      -0.761  16.036  21.616  0.00  0.00    +0.000 S 
ATOM     14  O   UNL     1       0.317  16.425  20.730  0.00  0.00    +0.000 OA
ATOM     15  O   UNL     1      -1.463  17.023  22.412  0.00  0.00    +0.000 OA
ATOM     16  C   UNL     1      -0.086  14.855  22.737  0.00  0.00    +0.000 C 
ATOM     17  C   UNL     1      -1.132  13.897  23.214  0.00  0.00    +0.000 C 
ATOM     18  H   UNL     1      -1.033  10.248  23.724  0.00  0.00    +0.000 HD
ENDROOT
BRANCH   1  25
ATOM     19  C   UNL     1       2.130  10.604  17.731  0.00  0.00    +0.000 C 
ATOM     20  C   UNL     1       2.066   9.232  18.360  0.00  0.00    +0.000 A 
ATOM     21  C   UNL     1       2.982   8.294  17.840  0.00  0.00    +0.000 A 
ATOM     22  C   UNL     1       3.088   7.014  18.366  0.00  0.00    +0.000 A 
ATOM     23  C   UNL     1       2.243   6.627  19.401  0.00  0.00    +0.000 A 
ATOM     24  C   UNL     1       1.302   7.540  19.908  0.00  0.00    +0.000 A 
ATOM     25  C   UNL     1       1.192   8.868  19.428  0.00  0.00    +0.000 A 
BRANCH  23  26
ATOM     26  C   UNL     1       2.430   5.255  19.974  0.00  0.00    +0.000 C 
ATOM     27  O   UNL     1       2.298   5.075  21.170  0.00  0.00    +0.000 OA
ATOM     28  N   UNL     1       2.763   4.264  19.058  0.00  0.00    +0.000 N 
ATOM     29  H   UNL     1       3.051   4.529  18.138  0.00  0.00    +0.000 HD
BRANCH  28  30
ATOM     30  C   UNL     1       2.991   2.922  19.480  0.00  0.00    +0.000 C 
ATOM     31  C   UNL     1       1.968   1.847  19.235  0.00  0.00    +0.000 C 
ATOM     32  C   UNL     1       3.254   1.844  18.461  0.00  0.00    +0.000 C 
ENDBRANCH  28  30
ENDBRANCH  23  26
ENDBRANCH   1  25
TORSDOF 3
ENDMDL
MODEL 6
REMARK VINA RESULT:      -8.0      2.884      8.649
REMARK  Name = 
REMARK  4 active torsions:
REMARK  status: ('A' for Active; 'I' for Inactive)
REMARK    1  A    between atoms: C_1  and  C_2
REMARK    2  A    between atoms: C_5  and  C_6
REMARK    3  A    between atoms: N_8  and  C_9
REMARK    4  A    between atoms: C_13  and  C_14
REMARK                            x       y       z     vdW  Elec       q    Type
REMARK                         _______ _______ _______ _____ _____    ______ ____
ROOT
ATOM      1  C   UNL     1       1.617   8.111  19.446  0.00  0.00    +0.000 A 
ATOM      2  C   UNL     1       2.226   7.297  20.416  0.00  0.00    +0.000 A 
ATOM      3  C   UNL     1       3.199   6.337  20.079  0.00  0.00    +0.000 A 
ATOM      4  C   UNL     1       3.464   6.067  18.741  0.00  0.00    +0.000 A 
ATOM      5  C   UNL     1       2.449   6.472  17.903  0.00  0.00    +0.000 A 
ATOM      6  C   UNL     1       1.689   7.606  18.136  0.00  0.00    +0.000 A 
ATOM      7  N   UNL     1       1.940   5.281  17.338  0.00  0.00    +0.000 N 
ATOM      8  C   UNL     1       2.706   4.163  17.819  0.00  0.00    +0.000 C 
ATOM      9  O   UNL     1       2.388   2.994  17.824  0.00  0.00    +0.000 OA
ATOM     10  C   UNL     1       4.078   4.803  18.148  0.00  0.00    +0.000 C 
ATOM     11  C   UNL     1       5.199   4.246  19.028  0.00  0.00    +0.000 C 
ATOM     12  C   UNL     1       6.519   5.058  18.939  0.00  0.00    +0.000 C 
ATOM     13  S   UNL     1       7.133   5.495  17.313  0.00  0.00    +0.000 S 
ATOM     14  O   UNL     1       7.780   6.788  17.410  0.00  0.00    +0.000 OA
ATOM     15  O   UNL     1       7.841   4.347  16.783  0.00  0.00    +0.000 OA
ATOM     16  C   UNL     1       5.701   5.726  16.312  0.00  0.00    +0.000 C 
ATOM     17  C   UNL     1       4.624   4.751  16.669  0.00  0.00    +0.000 C 
ATOM     18  H   UNL     1       0.982   5.179  17.037  0.00  0.00    +0.000 HD
ENDROOT
BRANCH   1  25
ATOM     19  C   UNL     1      -0.489   8.398  21.742  0.00  0.00    +0.000 C 
ATOM     20  C   UNL     1      -0.015   9.531  20.861  0.00  0.00    +0.000 A 
ATOM     21  C   UNL     1      -0.534  10.800  21.192  0.00  0.00    +0.000 A 
ATOM     22  C   UNL     1      -0.135  11.946  20.517  0.00  0.00    +0.000 A 
ATOM     23  C   UNL     1       0.762  11.839  19.459  0.00  0.00    +0.000 A 
ATOM     24  C   UNL     1       1.262  10.577  19.096  0.00  0.00    +0.000 A 
ATOM     25  C   UNL     1       0.914   9.391  19.788  0.00  0.00    +0.000 A 
BRANCH  23  26
ATOM     26  C   UNL     1       1.205  13.108  18.796  0.00  0.00    +0.000 C 
ATOM     27  O   UNL     1       2.114  13.083  17.987  0.00  0.00    +0.000 OA
ATOM     28  N   UNL     1       0.522  14.255  19.181  0.00  0.00    +0.000 N 
ATOM     29  H   UNL     1      -0.063  14.224  19.991  0.00  0.00    +0.000 HD
BRANCH  28  30
ATOM     30  C   UNL     1       0.864  15.529  18.640  0.00  0.00    +0.000 C 
ATOM     31  C   UNL     1      -0.176  16.601  18.461  0.00  0.00    +0.000 C 
ATOM     32  C   UNL     1       0.872  16.748  19.525  0.00  0.00    +0.000 C 
ENDBRANCH  28  30
ENDBRANCH  23  26
ENDBRANCH   1  25
TORSDOF 3
ENDMDL
MODEL 7
REMARK VINA RESULT:      -8.0      5.930      9.365
REMARK  Name = 
REMARK  4 active torsions:
REMARK  status: ('A' for Active; 'I' for Inactive)
REMARK    1  A    between atoms: C_1  and  C_2
REMARK    2  A    between atoms: C_5  and  C_6
REMARK    3  A    between atoms: N_8  and  C_9
REMARK    4  A    between atoms: C_13  and  C_14
REMARK                            x       y       z     vdW  Elec       q    Type
REMARK                         _______ _______ _______ _____ _____    ______ ____
ROOT
ATOM      1  C   UNL     1       4.484  14.771  19.029  0.00  0.00    +0.000 A 
ATOM      2  C   UNL     1       5.230  14.781  17.838  0.00  0.00    +0.000 A 
ATOM      3  C   UNL     1       6.615  14.528  17.824  0.00  0.00    +0.000 A 
ATOM      4  C   UNL     1       7.306  14.418  19.027  0.00  0.00    +0.000 A 
ATOM      5  C   UNL     1       6.628  14.982  20.085  0.00  0.00    +0.000 A 
ATOM      6  C   UNL     1       5.248  14.955  20.194  0.00  0.00    +0.000 A 
ATOM      7  N   UNL     1       7.435  16.063  20.505  0.00  0.00    +0.000 N 
ATOM      8  C   UNL     1       8.630  16.101  19.707  0.00  0.00    +0.000 C 
ATOM      9  O   UNL     1       9.384  17.036  19.546  0.00  0.00    +0.000 OA
ATOM     10  C   UNL     1       8.798  14.625  19.268  0.00  0.00    +0.000 C 
ATOM     11  C   UNL     1       9.644  14.065  18.122  0.00  0.00    +0.000 C 
ATOM     12  C   UNL     1       9.748  12.516  18.129  0.00  0.00    +0.000 C 
ATOM     13  S   UNL     1      10.140  11.702  19.677  0.00  0.00    +0.000 S 
ATOM     14  O   UNL     1       9.443  10.433  19.704  0.00  0.00    +0.000 OA
ATOM     15  O   UNL     1      11.575  11.768  19.862  0.00  0.00    +0.000 OA
ATOM     16  C   UNL     1       9.410  12.699  20.933  0.00  0.00    +0.000 C 
ATOM     17  C   UNL     1       9.504  14.155  20.597  0.00  0.00    +0.000 C 
ATOM     18  H   UNL     1       7.061  16.892  20.944  0.00  0.00    +0.000 HD
ENDROOT
BRANCH   1  25
ATOM     19  C   UNL     1       2.472  17.154  18.776  0.00  0.00    +0.000 C 
ATOM     20  C   UNL     1       2.075  15.701  18.892  0.00  0.00    +0.000 A 
ATOM     21  C   UNL     1       0.691  15.451  18.796  0.00  0.00    +0.000 A 
ATOM     22  C   UNL     1       0.182  14.159  18.814  0.00  0.00    +0.000 A 
ATOM     23  C   UNL     1       1.051  13.084  18.976  0.00  0.00    +0.000 A 
ATOM     24  C   UNL     1       2.431  13.319  19.106  0.00  0.00    +0.000 A 
ATOM     25  C   UNL     1       2.992  14.619  19.049  0.00  0.00    +0.000 A 
BRANCH  23  26
ATOM     26  C   UNL     1       0.464  11.706  18.935  0.00  0.00    +0.000 C 
ATOM     27  O   UNL     1       0.855  10.858  19.714  0.00  0.00    +0.000 OA
ATOM     28  N   UNL     1      -0.511  11.499  17.966  0.00  0.00    +0.000 N 
ATOM     29  H   UNL     1      -0.626  12.178  17.240  0.00  0.00    +0.000 HD
BRANCH  28  30
ATOM     30  C   UNL     1      -1.130  10.225  17.809  0.00  0.00    +0.000 C 
ATOM     31  C   UNL     1      -2.595  10.034  18.094  0.00  0.00    +0.000 C 
ATOM     32  C   UNL     1      -2.097   9.990  16.679  0.00  0.00    +0.000 C 
ENDBRANCH  28  30
ENDBRANCH  23  26
ENDBRANCH   1  25
TORSDOF 3
ENDMDL
MODEL 8
REMARK VINA RESULT:      -8.0      1.946      3.350
REMARK  Name = 
REMARK  4 active torsions:
REMARK  status: ('A' for Active; 'I' for Inactive)
REMARK    1  A    between atoms: C_1  and  C_2
REMARK    2  A    between atoms: C_5  and  C_6
REMARK    3  A    between atoms: N_8  and  C_9
REMARK    4  A    between atoms: C_13  and  C_14
REMARK                            x       y       z     vdW  Elec       q    Type
REMARK                         _______ _______ _______ _____ _____    ______ ____
ROOT
ATOM      1  C   UNL     1       2.512   7.608  18.503  0.00  0.00    +0.000 A 
ATOM      2  C   UNL     1       2.036   7.877  19.798  0.00  0.00    +0.000 A 
ATOM      3  C   UNL     1       1.099   8.897  20.050  0.00  0.00    +0.000 A 
ATOM      4  C   UNL     1       0.742   9.771  19.028  0.00  0.00    +0.000 A 
ATOM      5  C   UNL     1       1.660   9.794  18.001  0.00  0.00    +0.000 A 
ATOM      6  C   UNL     1       2.365   8.673  17.597  0.00  0.00    +0.000 A 
ATOM      7  N   UNL     1       2.193  11.103  18.012  0.00  0.00    +0.000 N 
ATOM      8  C   UNL     1       1.539  11.873  19.035  0.00  0.00    +0.000 C 
ATOM      9  O   UNL     1       1.927  12.896  19.555  0.00  0.00    +0.000 OA
ATOM     10  C   UNL     1       0.161  11.175  19.162  0.00  0.00    +0.000 C 
ATOM     11  C   UNL     1      -0.848  11.268  20.309  0.00  0.00    +0.000 C 
ATOM     12  C   UNL     1      -2.218  10.615  19.983  0.00  0.00    +0.000 C 
ATOM     13  S   UNL     1      -2.988  11.008  18.414  0.00  0.00    +0.000 S 
ATOM     14  O   UNL     1      -3.703   9.833  17.958  0.00  0.00    +0.000 OA
ATOM     15  O   UNL     1      -3.666  12.281  18.557  0.00  0.00    +0.000 OA
ATOM     16  C   UNL     1      -1.660  11.254  17.282  0.00  0.00    +0.000 C 
ATOM     17  C   UNL     1      -0.499  11.928  17.944  0.00  0.00    +0.000 C 
ATOM     18  H   UNL     1       3.128  11.320  17.698  0.00  0.00    +0.000 HD
ENDROOT
BRANCH   1  25
ATOM     19  C   UNL     1       1.731   4.842  19.739  0.00  0.00    +0.000 C 
ATOM     20  C   UNL     1       2.776   5.041  18.666  0.00  0.00    +0.000 A 
ATOM     21  C   UNL     1       3.353   3.855  18.168  0.00  0.00    +0.000 A 
ATOM     22  C   UNL     1       4.276   3.875  17.130  0.00  0.00    +0.000 A 
ATOM     23  C   UNL     1       4.678   5.096  16.597  0.00  0.00    +0.000 A 
ATOM     24  C   UNL     1       4.136   6.290  17.106  0.00  0.00    +0.000 A 
ATOM     25  C   UNL     1       3.161   6.307  18.132  0.00  0.00    +0.000 A 
BRANCH  23  26
ATOM     26  C   UNL     1       5.634   5.067  15.444  0.00  0.00    +0.000 C 
ATOM     27  O   UNL     1       6.568   5.846  15.412  0.00  0.00    +0.000 OA
ATOM     28  N   UNL     1       5.359   4.123  14.462  0.00  0.00    +0.000 N 
ATOM     29  H   UNL     1       4.469   3.668  14.460  0.00  0.00    +0.000 HD
BRANCH  28  30
ATOM     30  C   UNL     1       6.180   4.010  13.302  0.00  0.00    +0.000 C 
ATOM     31  C   UNL     1       6.325   2.699  12.578  0.00  0.00    +0.000 C 
ATOM     32  C   UNL     1       5.551   3.819  11.947  0.00  0.00    +0.000 C 
ENDBRANCH  28  30
ENDBRANCH  23  26
ENDBRANCH   1  25
TORSDOF 3
ENDMDL
MODEL 9
REMARK VINA RESULT:      -8.0      4.011      6.240
REMARK  Name = 
REMARK  4 active torsions:
REMARK  status: ('A' for Active; 'I' for Inactive)
REMARK    1  A    between atoms: C_1  and  C_2
REMARK    2  A    between atoms: C_5  and  C_6
REMARK    3  A    between atoms: N_8  and  C_9
REMARK    4  A    between atoms: C_13  and  C_14
REMARK                            x       y       z     vdW  Elec       q    Type
REMARK                         _______ _______ _______ _____ _____    ______ ____
ROOT
ATOM      1  C   UNL     1       0.008  10.992  21.063  0.00  0.00    +0.000 A 
ATOM      2  C   UNL     1      -0.330  10.525  22.344  0.00  0.00    +0.000 A 
ATOM      3  C   UNL     1      -1.309  11.158  23.134  0.00  0.00    +0.000 A 
ATOM      4  C   UNL     1      -1.854  12.368  22.714  0.00  0.00    +0.000 A 
ATOM      5  C   UNL     1      -1.071  13.011  21.782  0.00  0.00    +0.000 A 
ATOM      6  C   UNL     1      -0.332  12.336  20.826  0.00  0.00    +0.000 A 
ATOM      7  N   UNL     1      -0.647  14.202  22.415  0.00  0.00    +0.000 N 
ATOM      8  C   UNL     1      -1.234  14.277  23.725  0.00  0.00    +0.000 C 
ATOM      9  O   UNL     1      -0.870  14.951  24.664  0.00  0.00    +0.000 OA
ATOM     10  C   UNL     1      -2.526  13.435  23.572  0.00  0.00    +0.000 C 
ATOM     11  C   UNL     1      -3.395  12.820  24.672  0.00  0.00    +0.000 C 
ATOM     12  C   UNL     1      -4.737  12.242  24.149  0.00  0.00    +0.000 C 
ATOM     13  S   UNL     1      -5.719  13.252  23.042  0.00  0.00    +0.000 S 
ATOM     14  O   UNL     1      -6.386  12.372  22.104  0.00  0.00    +0.000 OA
ATOM     15  O   UNL     1      -6.474  14.190  23.848  0.00  0.00    +0.000 OA
ATOM     16  C   UNL     1      -4.559  14.192  22.106  0.00  0.00    +0.000 C 
ATOM     17  C   UNL     1      -3.385  14.598  22.942  0.00  0.00    +0.000 C 
ATOM     18  H   UNL     1       0.223  14.664  22.194  0.00  0.00    +0.000 HD
ENDROOT
BRANCH   1  25
ATOM     19  C   UNL     1       1.002  12.029  18.283  0.00  0.00    +0.000 C 
ATOM     20  C   UNL     1       1.200  10.622  18.798  0.00  0.00    +0.000 A 
ATOM     21  C   UNL     1       1.960   9.781  17.960  0.00  0.00    +0.000 A 
ATOM     22  C   UNL     1       2.284   8.483  18.333  0.00  0.00    +0.000 A 
ATOM     23  C   UNL     1       1.812   7.981  19.541  0.00  0.00    +0.000 A 
ATOM     24  C   UNL     1       1.025   8.797  20.374  0.00  0.00    +0.000 A 
ATOM     25  C   UNL     1       0.710  10.139  20.048  0.00  0.00    +0.000 A 
BRANCH  23  26
ATOM     26  C   UNL     1       2.232   6.596  19.928  0.00  0.00    +0.000 C 
ATOM     27  O   UNL     1       1.610   5.990  20.780  0.00  0.00    +0.000 OA
ATOM     28  N   UNL     1       3.346   6.101  19.262  0.00  0.00    +0.000 N 
ATOM     29  H   UNL     1       3.916   6.729  18.733  0.00  0.00    +0.000 HD
BRANCH  28  30
ATOM     30  C   UNL     1       3.860   4.804  19.555  0.00  0.00    +0.000 C 
ATOM     31  C   UNL     1       3.977   3.754  18.483  0.00  0.00    +0.000 C 
ATOM     32  C   UNL     1       5.215   4.394  19.041  0.00  0.00    +0.000 C 
ENDBRANCH  28  30
ENDBRANCH  23  26
ENDBRANCH   1  25
TORSDOF 3
ENDMDL
