MODEL 1
REMARK VINA RESULT:      -7.3      0.000      0.000
REMARK  Name = 
REMARK  9 active torsions:
REMARK  status: ('A' for Active; 'I' for Inactive)
REMARK    1  A    between atoms: C_1  and  C_2
REMARK    2  A    between atoms: C_2  and  C_3
REMARK    3  A    between atoms: C_3  and  N_4
REMARK    4  A    between atoms: N_4  and  C_5
REMARK    5  A    between atoms: N_4  and  C_8
REMARK    6  A    between atoms: C_5  and  C_6
REMARK    7  A    between atoms: C_6  and  C_7
REMARK    8  A    between atoms: C_12  and  O_13
REMARK    9  A    between atoms: C_18  and  C_19
REMARK                            x       y       z     vdW  Elec       q    Type
REMARK                         _______ _______ _______ _____ _____    ______ ____
ROOT
ATOM      1  C   UNL     1       3.400   4.805  18.695  0.00  0.00    +0.000 C 
ATOM      2  C   UNL     1       3.398   5.616  20.050  0.00  0.00    +0.000 C 
ATOM      3  C   UNL     1       2.834   6.923  19.574  0.00  0.00    +0.000 A 
ATOM      4  C   UNL     1       2.058   7.820  20.287  0.00  0.00    +0.000 A 
ATOM      5  C   UNL     1       1.308   8.730  19.549  0.00  0.00    +0.000 A 
ATOM      6  C   UNL     1       1.368   8.740  18.145  0.00  0.00    +0.000 A 
ATOM      7  F   UNL     1       0.524   9.514  17.445  0.00  0.00    +0.000 F 
ATOM      8  C   UNL     1       2.257   7.915  17.451  0.00  0.00    +0.000 A 
ATOM      9  C   UNL     1       3.030   7.034  18.188  0.00  0.00    +0.000 A 
ATOM     10  C   UNL     1       3.946   5.915  17.702  0.00  0.00    +0.000 C 
ENDROOT
BRANCH  10  11
ATOM     11  C   UNL     1       5.453   6.156  17.915  0.00  0.00    +0.000 A 
ATOM     12  C   UNL     1       6.174   5.386  18.848  0.00  0.00    +0.000 A 
ATOM     13  C   UNL     1       7.483   5.716  19.207  0.00  0.00    +0.000 A 
ATOM     14  C   UNL     1       8.122   6.784  18.585  0.00  0.00    +0.000 A 
ATOM     15  C   UNL     1       7.467   7.485  17.578  0.00  0.00    +0.000 A 
ATOM     16  C   UNL     1       6.146   7.171  17.237  0.00  0.00    +0.000 A 
ENDBRANCH  10  11
BRANCH   5  17
ATOM     17  O   UNL     1       0.448   9.586  20.184  0.00  0.00    +0.000 OA
ATOM     18  H   UNL     1       0.823   9.818  21.047  0.00  0.00    +0.000 HD
ENDBRANCH   5  17
BRANCH   1  19
ATOM     19  N   UNL     1       2.066   4.278  18.230  0.00  0.00    +0.000 NA
BRANCH  19  20
ATOM     20  C   UNL     1       2.206   3.041  17.439  0.00  0.00    +0.000 C 
BRANCH  20  22
ATOM     21  C   UNL     1       3.714   1.273  18.520  0.00  0.00    +0.000 C 
ATOM     22  C   UNL     1       3.589   2.370  17.470  0.00  0.00    +0.000 C 
ENDBRANCH  20  22
ENDBRANCH  19  20
BRANCH  19  23
ATOM     23  C   UNL     1       1.040   4.188  19.278  0.00  0.00    +0.000 C 
BRANCH  23  24
ATOM     24  C   UNL     1       0.854   2.806  19.914  0.00  0.00    +0.000 C 
ATOM     25  C   UNL     1       1.402   2.781  21.334  0.00  0.00    +0.000 C 
ENDBRANCH  23  24
ENDBRANCH  19  23
ENDBRANCH   1  19
TORSDOF 7
ENDMDL
MODEL 2
REMARK VINA RESULT:      -7.2      2.807      5.210
REMARK  Name = 
REMARK  9 active torsions:
REMARK  status: ('A' for Active; 'I' for Inactive)
REMARK    1  A    between atoms: C_1  and  C_2
REMARK    2  A    between atoms: C_2  and  C_3
REMARK    3  A    between atoms: C_3  and  N_4
REMARK    4  A    between atoms: N_4  and  C_5
REMARK    5  A    between atoms: N_4  and  C_8
REMARK    6  A    between atoms: C_5  and  C_6
REMARK    7  A    between atoms: C_6  and  C_7
REMARK    8  A    between atoms: C_12  and  O_13
REMARK    9  A    between atoms: C_18  and  C_19
REMARK                            x       y       z     vdW  Elec       q    Type
REMARK                         _______ _______ _______ _____ _____    ______ ____
ROOT
ATOM      1  C   UNL     1       4.367   6.151  18.092  0.00  0.00    +0.000 C 
ATOM      2  C   UNL     1       4.282   5.828  19.635  0.00  0.00    +0.000 C 
ATOM      3  C   UNL     1       3.089   4.919  19.649  0.00  0.00    +0.000 A 
ATOM      4  C   UNL     1       2.835   3.868  20.513  0.00  0.00    +0.000 A 
ATOM      5  C   UNL     1       1.909   2.917  20.095  0.00  0.00    +0.000 A 
ATOM      6  C   UNL     1       1.254   3.046  18.860  0.00  0.00    +0.000 A 
ATOM      7  F   UNL     1       0.487   2.046  18.402  0.00  0.00    +0.000 F 
ATOM      8  C   UNL     1       1.426   4.181  18.062  0.00  0.00    +0.000 A 
ATOM      9  C   UNL     1       2.320   5.145  18.495  0.00  0.00    +0.000 A 
ATOM     10  C   UNL     1       2.832   6.384  17.767  0.00  0.00    +0.000 C 
ENDROOT
BRANCH  10  11
ATOM     11  C   UNL     1       2.345   7.732  18.334  0.00  0.00    +0.000 A 
ATOM     12  C   UNL     1       1.789   7.804  19.625  0.00  0.00    +0.000 A 
ATOM     13  C   UNL     1       1.158   8.964  20.082  0.00  0.00    +0.000 A 
ATOM     14  C   UNL     1       1.134  10.100  19.279  0.00  0.00    +0.000 A 
ATOM     15  C   UNL     1       1.780  10.084  18.047  0.00  0.00    +0.000 A 
ATOM     16  C   UNL     1       2.389   8.914  17.578  0.00  0.00    +0.000 A 
ENDBRANCH  10  11
BRANCH   5  17
ATOM     17  O   UNL     1       1.677   1.803  20.858  0.00  0.00    +0.000 OA
ATOM     18  H   UNL     1       2.420   1.686  21.470  0.00  0.00    +0.000 HD
ENDBRANCH   5  17
BRANCH   1  19
ATOM     19  N   UNL     1       4.942   5.068  17.213  0.00  0.00    +0.000 NA
BRANCH  19  20
ATOM     20  C   UNL     1       5.284   5.571  15.869  0.00  0.00    +0.000 C 
BRANCH  20  22
ATOM     21  C   UNL     1       6.489   4.146  14.113  0.00  0.00    +0.000 C 
ATOM     22  C   UNL     1       5.153   4.563  14.715  0.00  0.00    +0.000 C 
ENDBRANCH  20  22
ENDBRANCH  19  20
BRANCH  19  23
ATOM     23  C   UNL     1       6.017   4.280  17.831  0.00  0.00    +0.000 C 
BRANCH  23  24
ATOM     24  C   UNL     1       7.435   4.838  17.668  0.00  0.00    +0.000 C 
ATOM     25  C   UNL     1       7.836   5.668  18.878  0.00  0.00    +0.000 C 
ENDBRANCH  23  24
ENDBRANCH  19  23
ENDBRANCH   1  19
TORSDOF 7
ENDMDL
MODEL 3
REMARK VINA RESULT:      -7.1      3.688      5.505
REMARK  Name = 
REMARK  9 active torsions:
REMARK  status: ('A' for Active; 'I' for Inactive)
REMARK    1  A    between atoms: C_1  and  C_2
REMARK    2  A    between atoms: C_2  and  C_3
REMARK    3  A    between atoms: C_3  and  N_4
REMARK    4  A    between atoms: N_4  and  C_5
REMARK    5  A    between atoms: N_4  and  C_8
REMARK    6  A    between atoms: C_5  and  C_6
REMARK    7  A    between atoms: C_6  and  C_7
REMARK    8  A    between atoms: C_12  and  O_13
REMARK    9  A    between atoms: C_18  and  C_19
REMARK                            x       y       z     vdW  Elec       q    Type
REMARK                         _______ _______ _______ _____ _____    ______ ____
ROOT
ATOM      1  C   UNL     1       4.300   4.996  16.661  0.00  0.00    +0.000 C 
ATOM      2  C   UNL     1       5.172   3.857  17.322  0.00  0.00    +0.000 C 
ATOM      3  C   UNL     1       6.382   4.650  17.720  0.00  0.00    +0.000 A 
ATOM      4  C   UNL     1       7.221   4.430  18.798  0.00  0.00    +0.000 A 
ATOM      5  C   UNL     1       8.005   5.501  19.216  0.00  0.00    +0.000 A 
ATOM      6  C   UNL     1       7.952   6.735  18.547  0.00  0.00    +0.000 A 
ATOM      7  F   UNL     1       8.591   7.800  19.055  0.00  0.00    +0.000 F 
ATOM      8  C   UNL     1       7.197   6.896  17.381  0.00  0.00    +0.000 A 
ATOM      9  C   UNL     1       6.445   5.819  16.944  0.00  0.00    +0.000 A 
ATOM     10  C   UNL     1       5.413   5.755  15.823  0.00  0.00    +0.000 C 
ENDROOT
BRANCH  10  11
ATOM     11  C   UNL     1       5.830   4.934  14.587  0.00  0.00    +0.000 A 
ATOM     12  C   UNL     1       7.136   5.034  14.071  0.00  0.00    +0.000 A 
ATOM     13  C   UNL     1       7.478   4.464  12.842  0.00  0.00    +0.000 A 
ATOM     14  C   UNL     1       6.536   3.721  12.139  0.00  0.00    +0.000 A 
ATOM     15  C   UNL     1       5.275   3.513  12.688  0.00  0.00    +0.000 A 
ATOM     16  C   UNL     1       4.923   4.106  13.906  0.00  0.00    +0.000 A 
ENDBRANCH  10  11
BRANCH   5  17
ATOM     17  O   UNL     1       8.790   5.383  20.332  0.00  0.00    +0.000 OA
ATOM     18  H   UNL     1       8.652   4.504  20.716  0.00  0.00    +0.000 HD
ENDBRANCH   5  17
BRANCH   1  19
ATOM     19  N   UNL     1       3.605   5.941  17.609  0.00  0.00    +0.000 NA
BRANCH  19  20
ATOM     20  C   UNL     1       3.389   7.270  17.006  0.00  0.00    +0.000 C 
BRANCH  20  22
ATOM     21  C   UNL     1       1.524   8.902  17.654  0.00  0.00    +0.000 C 
ATOM     22  C   UNL     1       2.921   8.380  17.961  0.00  0.00    +0.000 C 
ENDBRANCH  20  22
ENDBRANCH  19  20
BRANCH  19  23
ATOM     23  C   UNL     1       2.406   5.392  18.257  0.00  0.00    +0.000 C 
BRANCH  23  24
ATOM     24  C   UNL     1       2.494   5.203  19.775  0.00  0.00    +0.000 C 
ATOM     25  C   UNL     1       1.346   4.342  20.285  0.00  0.00    +0.000 C 
ENDBRANCH  23  24
ENDBRANCH  19  23
ENDBRANCH   1  19
TORSDOF 7
ENDMDL
MODEL 4
REMARK VINA RESULT:      -7.0      0.411      1.063
REMARK  Name = 
REMARK  9 active torsions:
REMARK  status: ('A' for Active; 'I' for Inactive)
REMARK    1  A    between atoms: C_1  and  C_2
REMARK    2  A    between atoms: C_2  and  C_3
REMARK    3  A    between atoms: C_3  and  N_4
REMARK    4  A    between atoms: N_4  and  C_5
REMARK    5  A    between atoms: N_4  and  C_8
REMARK    6  A    between atoms: C_5  and  C_6
REMARK    7  A    between atoms: C_6  and  C_7
REMARK    8  A    between atoms: C_12  and  O_13
REMARK    9  A    between atoms: C_18  and  C_19
REMARK                            x       y       z     vdW  Elec       q    Type
REMARK                         _______ _______ _______ _____ _____    ______ ____
ROOT
ATOM      1  C   UNL     1       3.077   4.942  19.070  0.00  0.00    +0.000 C 
ATOM      2  C   UNL     1       3.086   5.851  20.361  0.00  0.00    +0.000 C 
ATOM      3  C   UNL     1       2.550   7.130  19.787  0.00  0.00    +0.000 A 
ATOM      4  C   UNL     1       1.789   8.092  20.428  0.00  0.00    +0.000 A 
ATOM      5  C   UNL     1       1.060   8.960  19.621  0.00  0.00    +0.000 A 
ATOM      6  C   UNL     1       1.125   8.865  18.221  0.00  0.00    +0.000 A 
ATOM      7  F   UNL     1       0.299   9.601  17.461  0.00  0.00    +0.000 F 
ATOM      8  C   UNL     1       2.000   7.974  17.594  0.00  0.00    +0.000 A 
ATOM      9  C   UNL     1       2.753   7.135  18.397  0.00  0.00    +0.000 A 
ATOM     10  C   UNL     1       3.649   5.965  18.000  0.00  0.00    +0.000 C 
ENDROOT
BRANCH  10  11
ATOM     11  C   UNL     1       5.160   6.192  18.203  0.00  0.00    +0.000 A 
ATOM     12  C   UNL     1       5.853   7.129  17.415  0.00  0.00    +0.000 A 
ATOM     13  C   UNL     1       7.248   7.207  17.436  0.00  0.00    +0.000 A 
ATOM     14  C   UNL     1       7.973   6.395  18.303  0.00  0.00    +0.000 A 
ATOM     15  C   UNL     1       7.299   5.545  19.173  0.00  0.00    +0.000 A 
ATOM     16  C   UNL     1       5.903   5.447  19.133  0.00  0.00    +0.000 A 
ENDBRANCH  10  11
BRANCH   5  17
ATOM     17  O   UNL     1       0.214   9.876  20.186  0.00  0.00    +0.000 OA
ATOM     18  H   UNL     1      -0.358   9.419  20.822  0.00  0.00    +0.000 HD
ENDBRANCH   5  17
BRANCH   1  19
ATOM     19  N   UNL     1       1.735   4.409  18.638  0.00  0.00    +0.000 NA
BRANCH  19  20
ATOM     20  C   UNL     1       1.866   3.306  17.666  0.00  0.00    +0.000 C 
BRANCH  20  22
ATOM     21  C   UNL     1       3.541   1.473  18.299  0.00  0.00    +0.000 C 
ATOM     22  C   UNL     1       3.280   2.731  17.480  0.00  0.00    +0.000 C 
ENDBRANCH  20  22
ENDBRANCH  19  20
BRANCH  19  23
ATOM     23  C   UNL     1       0.807   4.111  19.737  0.00  0.00    +0.000 C 
BRANCH  23  24
ATOM     24  C   UNL     1       0.895   2.697  20.321  0.00  0.00    +0.000 C 
ATOM     25  C   UNL     1       1.662   2.696  21.636  0.00  0.00    +0.000 C 
ENDBRANCH  23  24
ENDBRANCH  19  23
ENDBRANCH   1  19
TORSDOF 7
ENDMDL
MODEL 5
REMARK VINA RESULT:      -6.9      2.785      5.303
REMARK  Name = 
REMARK  9 active torsions:
REMARK  status: ('A' for Active; 'I' for Inactive)
REMARK    1  A    between atoms: C_1  and  C_2
REMARK    2  A    between atoms: C_2  and  C_3
REMARK    3  A    between atoms: C_3  and  N_4
REMARK    4  A    between atoms: N_4  and  C_5
REMARK    5  A    between atoms: N_4  and  C_8
REMARK    6  A    between atoms: C_5  and  C_6
REMARK    7  A    between atoms: C_6  and  C_7
REMARK    8  A    between atoms: C_12  and  O_13
REMARK    9  A    between atoms: C_18  and  C_19
REMARK                            x       y       z     vdW  Elec       q    Type
REMARK                         _______ _______ _______ _____ _____    ______ ____
ROOT
ATOM      1  C   UNL     1       4.239   6.218  18.160  0.00  0.00    +0.000 C 
ATOM      2  C   UNL     1       4.114   5.953  19.711  0.00  0.00    +0.000 C 
ATOM      3  C   UNL     1       2.968   4.985  19.722  0.00  0.00    +0.000 A 
ATOM      4  C   UNL     1       2.735   3.958  20.620  0.00  0.00    +0.000 A 
ATOM      5  C   UNL     1       1.874   2.944  20.210  0.00  0.00    +0.000 A 
ATOM      6  C   UNL     1       1.259   2.990  18.948  0.00  0.00    +0.000 A 
ATOM      7  F   UNL     1       0.560   1.934  18.505  0.00  0.00    +0.000 F 
ATOM      8  C   UNL     1       1.404   4.100  18.110  0.00  0.00    +0.000 A 
ATOM      9  C   UNL     1       2.232   5.125  18.534  0.00  0.00    +0.000 A 
ATOM     10  C   UNL     1       2.707   6.359  17.772  0.00  0.00    +0.000 C 
ENDROOT
BRANCH  10  11
ATOM     11  C   UNL     1       2.133   7.702  18.266  0.00  0.00    +0.000 A 
ATOM     12  C   UNL     1       2.265   8.865  17.484  0.00  0.00    +0.000 A 
ATOM     13  C   UNL     1       1.938  10.124  17.993  0.00  0.00    +0.000 A 
ATOM     14  C   UNL     1       1.406  10.236  19.273  0.00  0.00    +0.000 A 
ATOM     15  C   UNL     1       1.160   9.087  20.018  0.00  0.00    +0.000 A 
ATOM     16  C   UNL     1       1.512   7.827  19.519  0.00  0.00    +0.000 A 
ENDBRANCH  10  11
BRANCH   5  17
ATOM     17  O   UNL     1       1.670   1.851  21.010  0.00  0.00    +0.000 OA
ATOM     18  H   UNL     1       2.066   2.024  21.878  0.00  0.00    +0.000 HD
ENDBRANCH   5  17
BRANCH   1  19
ATOM     19  N   UNL     1       4.900   5.133  17.347  0.00  0.00    +0.000 NA
BRANCH  19  20
ATOM     20  C   UNL     1       5.254   5.595  15.992  0.00  0.00    +0.000 C 
BRANCH  20  22
ATOM     21  C   UNL     1       6.606   4.438  14.148  0.00  0.00    +0.000 C 
ATOM     22  C   UNL     1       5.280   4.518  14.894  0.00  0.00    +0.000 C 
ENDBRANCH  20  22
ENDBRANCH  19  20
BRANCH  19  23
ATOM     23  C   UNL     1       5.996   4.433  18.030  0.00  0.00    +0.000 C 
BRANCH  23  24
ATOM     24  C   UNL     1       7.400   5.002  17.796  0.00  0.00    +0.000 C 
ATOM     25  C   UNL     1       7.785   5.976  18.900  0.00  0.00    +0.000 C 
ENDBRANCH  23  24
ENDBRANCH  19  23
ENDBRANCH   1  19
TORSDOF 7
ENDMDL
MODEL 6
REMARK VINA RESULT:      -6.9      2.905      5.072
REMARK  Name = 
REMARK  9 active torsions:
REMARK  status: ('A' for Active; 'I' for Inactive)
REMARK    1  A    between atoms: C_1  and  C_2
REMARK    2  A    between atoms: C_2  and  C_3
REMARK    3  A    between atoms: C_3  and  N_4
REMARK    4  A    between atoms: N_4  and  C_5
REMARK    5  A    between atoms: N_4  and  C_8
REMARK    6  A    between atoms: C_5  and  C_6
REMARK    7  A    between atoms: C_6  and  C_7
REMARK    8  A    between atoms: C_12  and  O_13
REMARK    9  A    between atoms: C_18  and  C_19
REMARK                            x       y       z     vdW  Elec       q    Type
REMARK                         _______ _______ _______ _____ _____    ______ ____
ROOT
ATOM      1  C   UNL     1       2.043   4.793  18.593  0.00  0.00    +0.000 C 
ATOM      2  C   UNL     1       2.502   5.219  17.143  0.00  0.00    +0.000 C 
ATOM      3  C   UNL     1       3.980   5.355  17.363  0.00  0.00    +0.000 A 
ATOM      4  C   UNL     1       4.996   5.133  16.451  0.00  0.00    +0.000 A 
ATOM      5  C   UNL     1       6.269   4.906  16.966  0.00  0.00    +0.000 A 
ATOM      6  C   UNL     1       6.497   4.931  18.352  0.00  0.00    +0.000 A 
ATOM      7  F   UNL     1       7.690   4.556  18.839  0.00  0.00    +0.000 F 
ATOM      8  C   UNL     1       5.486   5.287  19.248  0.00  0.00    +0.000 A 
ATOM      9  C   UNL     1       4.228   5.547  18.732  0.00  0.00    +0.000 A 
ATOM     10  C   UNL     1       2.914   5.788  19.469  0.00  0.00    +0.000 C 
ENDROOT
BRANCH  10  11
ATOM     11  C   UNL     1       2.363   7.225  19.385  0.00  0.00    +0.000 A 
ATOM     12  C   UNL     1       1.663   7.786  20.470  0.00  0.00    +0.000 A 
ATOM     13  C   UNL     1       0.982   8.999  20.348  0.00  0.00    +0.000 A 
ATOM     14  C   UNL     1       1.048   9.711  19.155  0.00  0.00    +0.000 A 
ATOM     15  C   UNL     1       1.830   9.231  18.109  0.00  0.00    +0.000 A 
ATOM     16  C   UNL     1       2.491   8.002  18.222  0.00  0.00    +0.000 A 
ENDBRANCH  10  11
BRANCH   5  17
ATOM     17  O   UNL     1       7.303   4.589  16.126  0.00  0.00    +0.000 OA
ATOM     18  H   UNL     1       7.513   5.366  15.586  0.00  0.00    +0.000 HD
ENDBRANCH   5  17
BRANCH   1  19
ATOM     19  N   UNL     1       2.309   3.361  18.984  0.00  0.00    +0.000 NA
BRANCH  19  20
ATOM     20  C   UNL     1       1.160   2.756  19.683  0.00  0.00    +0.000 C 
BRANCH  20  22
ATOM     21  C   UNL     1       2.390   3.106  21.904  0.00  0.00    +0.000 C 
ATOM     22  C   UNL     1       1.047   3.057  21.187  0.00  0.00    +0.000 C 
ENDBRANCH  20  22
ENDBRANCH  19  20
BRANCH  19  23
ATOM     23  C   UNL     1       2.847   2.518  17.907  0.00  0.00    +0.000 C 
BRANCH  23  24
ATOM     24  C   UNL     1       3.816   1.414  18.343  0.00  0.00    +0.000 C 
ATOM     25  C   UNL     1       4.593   1.830  19.584  0.00  0.00    +0.000 C 
ENDBRANCH  23  24
ENDBRANCH  19  23
ENDBRANCH   1  19
TORSDOF 7
ENDMDL
MODEL 7
REMARK VINA RESULT:      -6.8      3.682      5.507
REMARK  Name = 
REMARK  9 active torsions:
REMARK  status: ('A' for Active; 'I' for Inactive)
REMARK    1  A    between atoms: C_1  and  C_2
REMARK    2  A    between atoms: C_2  and  C_3
REMARK    3  A    between atoms: C_3  and  N_4
REMARK    4  A    between atoms: N_4  and  C_5
REMARK    5  A    between atoms: N_4  and  C_8
REMARK    6  A    between atoms: C_5  and  C_6
REMARK    7  A    between atoms: C_6  and  C_7
REMARK    8  A    between atoms: C_12  and  O_13
REMARK    9  A    between atoms: C_18  and  C_19
REMARK                            x       y       z     vdW  Elec       q    Type
REMARK                         _______ _______ _______ _____ _____    ______ ____
ROOT
ATOM      1  C   UNL     1       4.300   5.058  16.670  0.00  0.00    +0.000 C 
ATOM      2  C   UNL     1       5.219   3.900  17.227  0.00  0.00    +0.000 C 
ATOM      3  C   UNL     1       6.422   4.696  17.641  0.00  0.00    +0.000 A 
ATOM      4  C   UNL     1       7.299   4.426  18.677  0.00  0.00    +0.000 A 
ATOM      5  C   UNL     1       8.070   5.487  19.144  0.00  0.00    +0.000 A 
ATOM      6  C   UNL     1       7.966   6.761  18.561  0.00  0.00    +0.000 A 
ATOM      7  F   UNL     1       8.595   7.806  19.121  0.00  0.00    +0.000 F 
ATOM      8  C   UNL     1       7.172   6.980  17.432  0.00  0.00    +0.000 A 
ATOM      9  C   UNL     1       6.433   5.916  16.945  0.00  0.00    +0.000 A 
ATOM     10  C   UNL     1       5.368   5.899  15.853  0.00  0.00    +0.000 C 
ENDROOT
BRANCH  10  11
ATOM     11  C   UNL     1       5.766   5.174  14.552  0.00  0.00    +0.000 A 
ATOM     12  C   UNL     1       4.835   4.368  13.871  0.00  0.00    +0.000 A 
ATOM     13  C   UNL     1       5.224   3.543  12.812  0.00  0.00    +0.000 A 
ATOM     14  C   UNL     1       6.542   3.563  12.369  0.00  0.00    +0.000 A 
ATOM     15  C   UNL     1       7.451   4.439  12.954  0.00  0.00    +0.000 A 
ATOM     16  C   UNL     1       7.068   5.246  14.032  0.00  0.00    +0.000 A 
ENDBRANCH  10  11
BRANCH   5  17
ATOM     17  O   UNL     1       8.891   5.315  20.225  0.00  0.00    +0.000 OA
ATOM     18  H   UNL     1       8.342   5.207  21.017  0.00  0.00    +0.000 HD
ENDBRANCH   5  17
BRANCH   1  19
ATOM     19  N   UNL     1       3.613   5.919  17.700  0.00  0.00    +0.000 NA
BRANCH  19  20
ATOM     20  C   UNL     1       3.339   7.277  17.191  0.00  0.00    +0.000 C 
BRANCH  20  22
ATOM     21  C   UNL     1       2.219   9.503  17.788  0.00  0.00    +0.000 C 
ATOM     22  C   UNL     1       2.105   7.983  17.775  0.00  0.00    +0.000 C 
ENDBRANCH  20  22
ENDBRANCH  19  20
BRANCH  19  23
ATOM     23  C   UNL     1       2.452   5.295  18.350  0.00  0.00    +0.000 C 
BRANCH  23  24
ATOM     24  C   UNL     1       2.660   4.846  19.800  0.00  0.00    +0.000 C 
ATOM     25  C   UNL     1       1.671   5.534  20.730  0.00  0.00    +0.000 C 
ENDBRANCH  23  24
ENDBRANCH  19  23
ENDBRANCH   1  19
TORSDOF 7
ENDMDL
MODEL 8
REMARK VINA RESULT:      -6.8      3.654      5.066
REMARK  Name = 
REMARK  9 active torsions:
REMARK  status: ('A' for Active; 'I' for Inactive)
REMARK    1  A    between atoms: C_1  and  C_2
REMARK    2  A    between atoms: C_2  and  C_3
REMARK    3  A    between atoms: C_3  and  N_4
REMARK    4  A    between atoms: N_4  and  C_5
REMARK    5  A    between atoms: N_4  and  C_8
REMARK    6  A    between atoms: C_5  and  C_6
REMARK    7  A    between atoms: C_6  and  C_7
REMARK    8  A    between atoms: C_12  and  O_13
REMARK    9  A    between atoms: C_18  and  C_19
REMARK                            x       y       z     vdW  Elec       q    Type
REMARK                         _______ _______ _______ _____ _____    ______ ____
ROOT
ATOM      1  C   UNL     1       4.688   3.968  16.385  0.00  0.00    +0.000 C 
ATOM      2  C   UNL     1       6.107   3.566  16.949  0.00  0.00    +0.000 C 
ATOM      3  C   UNL     1       6.725   4.925  17.100  0.00  0.00    +0.000 A 
ATOM      4  C   UNL     1       7.662   5.329  18.034  0.00  0.00    +0.000 A 
ATOM      5  C   UNL     1       7.776   6.697  18.263  0.00  0.00    +0.000 A 
ATOM      6  C   UNL     1       6.984   7.613  17.551  0.00  0.00    +0.000 A 
ATOM      7  F   UNL     1       6.991   8.911  17.893  0.00  0.00    +0.000 F 
ATOM      8  C   UNL     1       6.139   7.194  16.520  0.00  0.00    +0.000 A 
ATOM      9  C   UNL     1       6.053   5.835  16.268  0.00  0.00    +0.000 A 
ATOM     10  C   UNL     1       5.105   5.084  15.338  0.00  0.00    +0.000 C 
ENDROOT
BRANCH  10  11
ATOM     11  C   UNL     1       5.760   4.457  14.092  0.00  0.00    +0.000 A 
ATOM     12  C   UNL     1       7.043   4.864  13.679  0.00  0.00    +0.000 A 
ATOM     13  C   UNL     1       7.572   4.464  12.449  0.00  0.00    +0.000 A 
ATOM     14  C   UNL     1       6.855   3.591  11.639  0.00  0.00    +0.000 A 
ATOM     15  C   UNL     1       5.636   3.086  12.082  0.00  0.00    +0.000 A 
ATOM     16  C   UNL     1       5.094   3.507  13.302  0.00  0.00    +0.000 A 
ENDBRANCH  10  11
BRANCH   5  17
ATOM     17  O   UNL     1       8.617   7.163  19.238  0.00  0.00    +0.000 OA
ATOM     18  H   UNL     1       9.331   6.519  19.366  0.00  0.00    +0.000 HD
ENDBRANCH   5  17
BRANCH   1  19
ATOM     19  N   UNL     1       3.702   4.514  17.387  0.00  0.00    +0.000 NA
BRANCH  19  20
ATOM     20  C   UNL     1       2.360   3.925  17.219  0.00  0.00    +0.000 C 
BRANCH  20  22
ATOM     21  C   UNL     1       0.920   2.434  18.727  0.00  0.00    +0.000 C 
ATOM     22  C   UNL     1       2.150   2.531  17.832  0.00  0.00    +0.000 C 
ENDBRANCH  20  22
ENDBRANCH  19  20
BRANCH  19  23
ATOM     23  C   UNL     1       4.171   4.508  18.779  0.00  0.00    +0.000 C 
BRANCH  23  24
ATOM     24  C   UNL     1       3.616   5.621  19.676  0.00  0.00    +0.000 C 
ATOM     25  C   UNL     1       2.539   5.084  20.607  0.00  0.00    +0.000 C 
ENDBRANCH  23  24
ENDBRANCH  19  23
ENDBRANCH   1  19
TORSDOF 7
ENDMDL
MODEL 9
REMARK VINA RESULT:      -6.8      3.010      5.650
REMARK  Name = 
REMARK  9 active torsions:
REMARK  status: ('A' for Active; 'I' for Inactive)
REMARK    1  A    between atoms: C_1  and  C_2
REMARK    2  A    between atoms: C_2  and  C_3
REMARK    3  A    between atoms: C_3  and  N_4
REMARK    4  A    between atoms: N_4  and  C_5
REMARK    5  A    between atoms: N_4  and  C_8
REMARK    6  A    between atoms: C_5  and  C_6
REMARK    7  A    between atoms: C_6  and  C_7
REMARK    8  A    between atoms: C_12  and  O_13
REMARK    9  A    between atoms: C_18  and  C_19
REMARK                            x       y       z     vdW  Elec       q    Type
REMARK                         _______ _______ _______ _____ _____    ______ ____
ROOT
ATOM      1  C   UNL     1       5.058   6.228  18.097  0.00  0.00    +0.000 C 
ATOM      2  C   UNL     1       4.874   5.519  19.496  0.00  0.00    +0.000 C 
ATOM      3  C   UNL     1       3.879   4.458  19.125  0.00  0.00    +0.000 A 
ATOM      4  C   UNL     1       3.739   3.198  19.680  0.00  0.00    +0.000 A 
ATOM      5  C   UNL     1       3.059   2.248  18.924  0.00  0.00    +0.000 A 
ATOM      6  C   UNL     1       2.525   2.578  17.667  0.00  0.00    +0.000 A 
ATOM      7  F   UNL     1       2.013   1.616  16.884  0.00  0.00    +0.000 F 
ATOM      8  C   UNL     1       2.563   3.889  17.184  0.00  0.00    +0.000 A 
ATOM      9  C   UNL     1       3.207   4.842  17.953  0.00  0.00    +0.000 A 
ATOM     10  C   UNL     1       3.549   6.289  17.610  0.00  0.00    +0.000 C 
ENDROOT
BRANCH  10  11
ATOM     11  C   UNL     1       2.759   7.358  18.392  0.00  0.00    +0.000 A 
ATOM     12  C   UNL     1       2.346   7.114  19.715  0.00  0.00    +0.000 A 
ATOM     13  C   UNL     1       1.461   7.974  20.371  0.00  0.00    +0.000 A 
ATOM     14  C   UNL     1       1.027   9.134  19.737  0.00  0.00    +0.000 A 
ATOM     15  C   UNL     1       1.516   9.451  18.474  0.00  0.00    +0.000 A 
ATOM     16  C   UNL     1       2.382   8.576  17.806  0.00  0.00    +0.000 A 
ENDBRANCH  10  11
BRANCH   5  17
ATOM     17  O   UNL     1       2.963   0.957  19.369  0.00  0.00    +0.000 OA
ATOM     18  H   UNL     1       2.417   0.945  20.170  0.00  0.00    +0.000 HD
ENDBRANCH   5  17
BRANCH   1  19
ATOM     19  N   UNL     1       5.917   5.505  17.090  0.00  0.00    +0.000 NA
BRANCH  19  20
ATOM     20  C   UNL     1       5.480   5.764  15.704  0.00  0.00    +0.000 C 
BRANCH  20  22
ATOM     21  C   UNL     1       6.553   4.344  13.861  0.00  0.00    +0.000 C 
ATOM     22  C   UNL     1       5.361   4.534  14.790  0.00  0.00    +0.000 C 
ENDBRANCH  20  22
ENDBRANCH  19  20
BRANCH  19  23
ATOM     23  C   UNL     1       7.364   5.666  17.286  0.00  0.00    +0.000 C 
BRANCH  23  24
ATOM     24  C   UNL     1       7.787   6.766  18.265  0.00  0.00    +0.000 C 
ATOM     25  C   UNL     1       7.854   8.119  17.570  0.00  0.00    +0.000 C 
ENDBRANCH  23  24
ENDBRANCH  19  23
ENDBRANCH   1  19
TORSDOF 7
ENDMDL
