MODEL 1
REMARK VINA RESULT:      -7.8      0.000      0.000
REMARK  Name = 
REMARK  3 active torsions:
REMARK  status: ('A' for Active; 'I' for Inactive)
REMARK    1  A    between atoms: C_1  and  O_2
REMARK    2  A    between atoms: O_2  and  C_3
REMARK    3  A    between atoms: C_14  and  C_15
REMARK                            x       y       z     vdW  Elec       q    Type
REMARK                         _______ _______ _______ _____ _____    ______ ____
ROOT
ATOM      1  C   UNL     1       2.681   8.151  17.991  0.00  0.00    +0.000 A 
ATOM      2  C   UNL     1       2.111   7.034  18.570  0.00  0.00    +0.000 A 
ATOM      3  C   UNL     1       2.660   5.773  18.342  0.00  0.00    +0.000 A 
ATOM      4  C   UNL     1       3.794   5.560  17.553  0.00  0.00    +0.000 A 
ATOM      5  C   UNL     1       4.382   6.704  16.973  0.00  0.00    +0.000 A 
ATOM      6  C   UNL     1       3.813   7.981  17.192  0.00  0.00    +0.000 A 
ATOM      7  C   UNL     1       5.564   6.604  16.038  0.00  0.00    +0.000 C 
ATOM      8  C   UNL     1       6.388   5.342  16.223  0.00  0.00    +0.000 C 
ATOM      9  C   UNL     1       5.498   4.128  16.277  0.00  0.00    +0.000 C 
ATOM     10  O   UNL     1       5.754   3.115  15.627  0.00  0.00    +0.000 OA
ATOM     11  C   UNL     1       4.351   4.204  17.259  0.00  0.00    +0.000 C 
ATOM     12  C   UNL     1       4.038   3.000  17.797  0.00  0.00    +0.000 C 
ENDROOT
BRANCH  12  13
ATOM     13  C   UNL     1       3.058   2.758  18.858  0.00  0.00    +0.000 A 
ATOM     14  C   UNL     1       1.695   2.643  18.547  0.00  0.00    +0.000 A 
ATOM     15  C   UNL     1       0.743   2.715  19.567  0.00  0.00    +0.000 A 
ATOM     16  C   UNL     1       1.149   2.862  20.894  0.00  0.00    +0.000 A 
ATOM     17  C   UNL     1       2.507   2.894  21.212  0.00  0.00    +0.000 A 
ATOM     18  C   UNL     1       3.462   2.835  20.197  0.00  0.00    +0.000 A 
ENDBRANCH  12  13
BRANCH   1  20
ATOM     19  C   UNL     1       0.793   9.571  18.119  0.00  0.00    +0.000 C 
ATOM     20  O   UNL     1       2.212   9.428  18.126  0.00  0.00    +0.000 OA
ENDBRANCH   1  20
TORSDOF 2
ENDMDL
MODEL 2
REMARK VINA RESULT:      -7.6      2.008      5.688
REMARK  Name = 
REMARK  3 active torsions:
REMARK  status: ('A' for Active; 'I' for Inactive)
REMARK    1  A    between atoms: C_1  and  O_2
REMARK    2  A    between atoms: O_2  and  C_3
REMARK    3  A    between atoms: C_14  and  C_15
REMARK                            x       y       z     vdW  Elec       q    Type
REMARK                         _______ _______ _______ _____ _____    ______ ____
ROOT
ATOM      1  C   UNL     1       2.887   3.597  20.585  0.00  0.00    +0.000 A 
ATOM      2  C   UNL     1       3.795   3.605  19.544  0.00  0.00    +0.000 A 
ATOM      3  C   UNL     1       3.928   4.737  18.743  0.00  0.00    +0.000 A 
ATOM      4  C   UNL     1       3.188   5.908  18.938  0.00  0.00    +0.000 A 
ATOM      5  C   UNL     1       2.270   5.902  20.010  0.00  0.00    +0.000 A 
ATOM      6  C   UNL     1       2.125   4.744  20.812  0.00  0.00    +0.000 A 
ATOM      7  C   UNL     1       1.356   7.072  20.282  0.00  0.00    +0.000 C 
ATOM      8  C   UNL     1       1.871   8.392  19.735  0.00  0.00    +0.000 C 
ATOM      9  C   UNL     1       2.321   8.238  18.307  0.00  0.00    +0.000 C 
ATOM     10  O   UNL     1       1.990   9.045  17.439  0.00  0.00    +0.000 OA
ATOM     11  C   UNL     1       3.285   7.103  18.046  0.00  0.00    +0.000 C 
ATOM     12  C   UNL     1       4.170   7.380  17.057  0.00  0.00    +0.000 C 
ENDROOT
BRANCH  12  13
ATOM     13  C   UNL     1       5.296   6.540  16.647  0.00  0.00    +0.000 A 
ATOM     14  C   UNL     1       5.154   5.639  15.581  0.00  0.00    +0.000 A 
ATOM     15  C   UNL     1       6.109   4.639  15.386  0.00  0.00    +0.000 A 
ATOM     16  C   UNL     1       7.221   4.560  16.225  0.00  0.00    +0.000 A 
ATOM     17  C   UNL     1       7.406   5.506  17.234  0.00  0.00    +0.000 A 
ATOM     18  C   UNL     1       6.449   6.500  17.441  0.00  0.00    +0.000 A 
ENDBRANCH  12  13
BRANCH   1  20
ATOM     19  C   UNL     1       1.336   2.435  21.944  0.00  0.00    +0.000 C 
ATOM     20  O   UNL     1       2.658   2.535  21.415  0.00  0.00    +0.000 OA
ENDBRANCH   1  20
TORSDOF 2
ENDMDL
MODEL 3
REMARK VINA RESULT:      -7.5      1.756      4.553
REMARK  Name = 
REMARK  3 active torsions:
REMARK  status: ('A' for Active; 'I' for Inactive)
REMARK    1  A    between atoms: C_1  and  O_2
REMARK    2  A    between atoms: O_2  and  C_3
REMARK    3  A    between atoms: C_14  and  C_15
REMARK                            x       y       z     vdW  Elec       q    Type
REMARK                         _______ _______ _______ _____ _____    ______ ____
ROOT
ATOM      1  C   UNL     1       2.159   7.679  19.186  0.00  0.00    +0.000 A 
ATOM      2  C   UNL     1       3.136   7.476  18.230  0.00  0.00    +0.000 A 
ATOM      3  C   UNL     1       3.811   6.258  18.172  0.00  0.00    +0.000 A 
ATOM      4  C   UNL     1       3.547   5.190  19.035  0.00  0.00    +0.000 A 
ATOM      5  C   UNL     1       2.539   5.396  20.001  0.00  0.00    +0.000 A 
ATOM      6  C   UNL     1       1.866   6.639  20.070  0.00  0.00    +0.000 A 
ATOM      7  C   UNL     1       2.209   4.352  21.041  0.00  0.00    +0.000 C 
ATOM      8  C   UNL     1       2.590   2.939  20.635  0.00  0.00    +0.000 C 
ATOM      9  C   UNL     1       3.997   2.900  20.099  0.00  0.00    +0.000 C 
ATOM     10  O   UNL     1       4.799   2.042  20.464  0.00  0.00    +0.000 OA
ATOM     11  C   UNL     1       4.309   3.904  19.013  0.00  0.00    +0.000 C 
ATOM     12  C   UNL     1       5.209   3.443  18.111  0.00  0.00    +0.000 C 
ENDROOT
BRANCH  12  13
ATOM     13  C   UNL     1       5.630   4.125  16.886  0.00  0.00    +0.000 A 
ATOM     14  C   UNL     1       4.870   4.005  15.714  0.00  0.00    +0.000 A 
ATOM     15  C   UNL     1       5.417   4.396  14.489  0.00  0.00    +0.000 A 
ATOM     16  C   UNL     1       6.702   4.940  14.438  0.00  0.00    +0.000 A 
ATOM     17  C   UNL     1       7.427   5.135  15.614  0.00  0.00    +0.000 A 
ATOM     18  C   UNL     1       6.890   4.736  16.838  0.00  0.00    +0.000 A 
ENDBRANCH  12  13
BRANCH   1  20
ATOM     19  C   UNL     1       1.343   9.665  18.192  0.00  0.00    +0.000 C 
ATOM     20  O   UNL     1       1.454   8.839  19.349  0.00  0.00    +0.000 OA
ENDBRANCH   1  20
TORSDOF 2
ENDMDL
MODEL 4
REMARK VINA RESULT:      -7.4      2.767      4.427
REMARK  Name = 
REMARK  3 active torsions:
REMARK  status: ('A' for Active; 'I' for Inactive)
REMARK    1  A    between atoms: C_1  and  O_2
REMARK    2  A    between atoms: O_2  and  C_3
REMARK    3  A    between atoms: C_14  and  C_15
REMARK                            x       y       z     vdW  Elec       q    Type
REMARK                         _______ _______ _______ _____ _____    ______ ____
ROOT
ATOM      1  C   UNL     1       6.152   4.132  14.033  0.00  0.00    +0.000 A 
ATOM      2  C   UNL     1       5.134   3.522  14.741  0.00  0.00    +0.000 A 
ATOM      3  C   UNL     1       5.001   3.751  16.108  0.00  0.00    +0.000 A 
ATOM      4  C   UNL     1       5.849   4.595  16.833  0.00  0.00    +0.000 A 
ATOM      5  C   UNL     1       6.880   5.227  16.106  0.00  0.00    +0.000 A 
ATOM      6  C   UNL     1       7.023   4.979  14.719  0.00  0.00    +0.000 A 
ATOM      7  C   UNL     1       7.909   6.101  16.781  0.00  0.00    +0.000 C 
ATOM      8  C   UNL     1       7.442   6.693  18.098  0.00  0.00    +0.000 C 
ATOM      9  C   UNL     1       6.820   5.633  18.968  0.00  0.00    +0.000 C 
ATOM     10  O   UNL     1       7.112   5.526  20.158  0.00  0.00    +0.000 OA
ATOM     11  C   UNL     1       5.745   4.798  18.310  0.00  0.00    +0.000 C 
ATOM     12  C   UNL     1       4.778   4.408  19.175  0.00  0.00    +0.000 C 
ENDROOT
BRANCH  12  13
ATOM     13  C   UNL     1       3.548   3.691  18.829  0.00  0.00    +0.000 A 
ATOM     14  C   UNL     1       2.430   4.395  18.360  0.00  0.00    +0.000 A 
ATOM     15  C   UNL     1       1.183   3.767  18.318  0.00  0.00    +0.000 A 
ATOM     16  C   UNL     1       1.058   2.432  18.706  0.00  0.00    +0.000 A 
ATOM     17  C   UNL     1       2.185   1.708  19.095  0.00  0.00    +0.000 A 
ATOM     18  C   UNL     1       3.431   2.333  19.150  0.00  0.00    +0.000 A 
ENDBRANCH  12  13
BRANCH   1  20
ATOM     19  C   UNL     1       5.449   3.144  12.002  0.00  0.00    +0.000 C 
ATOM     20  O   UNL     1       6.390   3.958  12.698  0.00  0.00    +0.000 OA
ENDBRANCH   1  20
TORSDOF 2
ENDMDL
MODEL 5
REMARK VINA RESULT:      -7.3      1.951      4.740
REMARK  Name = 
REMARK  3 active torsions:
REMARK  status: ('A' for Active; 'I' for Inactive)
REMARK    1  A    between atoms: C_1  and  O_2
REMARK    2  A    between atoms: O_2  and  C_3
REMARK    3  A    between atoms: C_14  and  C_15
REMARK                            x       y       z     vdW  Elec       q    Type
REMARK                         _______ _______ _______ _____ _____    ______ ____
ROOT
ATOM      1  C   UNL     1       1.593   6.656  20.550  0.00  0.00    +0.000 A 
ATOM      2  C   UNL     1       2.801   6.869  19.913  0.00  0.00    +0.000 A 
ATOM      3  C   UNL     1       3.434   5.819  19.250  0.00  0.00    +0.000 A 
ATOM      4  C   UNL     1       2.903   4.528  19.172  0.00  0.00    +0.000 A 
ATOM      5  C   UNL     1       1.664   4.317  19.812  0.00  0.00    +0.000 A 
ATOM      6  C   UNL     1       1.030   5.380  20.499  0.00  0.00    +0.000 A 
ATOM      7  C   UNL     1       1.019   2.952  19.868  0.00  0.00    +0.000 C 
ATOM      8  C   UNL     1       1.467   2.016  18.759  0.00  0.00    +0.000 C 
ATOM      9  C   UNL     1       2.967   2.021  18.632  0.00  0.00    +0.000 C 
ATOM     10  O   UNL     1       3.607   0.974  18.539  0.00  0.00    +0.000 OA
ATOM     11  C   UNL     1       3.607   3.386  18.513  0.00  0.00    +0.000 C 
ATOM     12  C   UNL     1       4.720   3.380  17.739  0.00  0.00    +0.000 C 
ENDROOT
BRANCH  12  13
ATOM     13  C   UNL     1       5.497   4.555  17.337  0.00  0.00    +0.000 A 
ATOM     14  C   UNL     1       6.657   4.908  18.040  0.00  0.00    +0.000 A 
ATOM     15  C   UNL     1       7.222   6.172  17.857  0.00  0.00    +0.000 A 
ATOM     16  C   UNL     1       6.655   7.066  16.948  0.00  0.00    +0.000 A 
ATOM     17  C   UNL     1       5.548   6.686  16.188  0.00  0.00    +0.000 A 
ATOM     18  C   UNL     1       4.973   5.428  16.375  0.00  0.00    +0.000 A 
ENDBRANCH  12  13
BRANCH   1  20
ATOM     19  C   UNL     1       1.033   8.944  20.775  0.00  0.00    +0.000 C 
ATOM     20  O   UNL     1       0.900   7.605  21.248  0.00  0.00    +0.000 OA
ENDBRANCH   1  20
TORSDOF 2
ENDMDL
MODEL 6
REMARK VINA RESULT:      -7.2      1.742      4.505
REMARK  Name = 
REMARK  3 active torsions:
REMARK  status: ('A' for Active; 'I' for Inactive)
REMARK    1  A    between atoms: C_1  and  O_2
REMARK    2  A    between atoms: O_2  and  C_3
REMARK    3  A    between atoms: C_14  and  C_15
REMARK                            x       y       z     vdW  Elec       q    Type
REMARK                         _______ _______ _______ _____ _____    ______ ____
ROOT
ATOM      1  C   UNL     1       2.528   8.453  18.159  0.00  0.00    +0.000 A 
ATOM      2  C   UNL     1       3.573   7.883  17.457  0.00  0.00    +0.000 A 
ATOM      3  C   UNL     1       3.960   6.572  17.725  0.00  0.00    +0.000 A 
ATOM      4  C   UNL     1       3.331   5.764  18.678  0.00  0.00    +0.000 A 
ATOM      5  C   UNL     1       2.256   6.344  19.384  0.00  0.00    +0.000 A 
ATOM      6  C   UNL     1       1.875   7.682  19.122  0.00  0.00    +0.000 A 
ATOM      7  C   UNL     1       1.541   5.607  20.492  0.00  0.00    +0.000 C 
ATOM      8  C   UNL     1       1.656   4.096  20.396  0.00  0.00    +0.000 C 
ATOM      9  C   UNL     1       3.084   3.684  20.159  0.00  0.00    +0.000 C 
ATOM     10  O   UNL     1       3.607   2.777  20.806  0.00  0.00    +0.000 OA
ATOM     11  C   UNL     1       3.780   4.378  19.010  0.00  0.00    +0.000 C 
ATOM     12  C   UNL     1       4.685   3.584  18.387  0.00  0.00    +0.000 C 
ENDROOT
BRANCH  12  13
ATOM     13  C   UNL     1       5.437   3.920  17.175  0.00  0.00    +0.000 A 
ATOM     14  C   UNL     1       6.696   4.529  17.272  0.00  0.00    +0.000 A 
ATOM     15  C   UNL     1       7.271   5.116  16.142  0.00  0.00    +0.000 A 
ATOM     16  C   UNL     1       6.611   5.062  14.913  0.00  0.00    +0.000 A 
ATOM     17  C   UNL     1       5.397   4.385  14.799  0.00  0.00    +0.000 A 
ATOM     18  C   UNL     1       4.812   3.807  15.926  0.00  0.00    +0.000 A 
ENDBRANCH  12  13
BRANCH   1  20
ATOM     19  C   UNL     1       0.814  10.029  18.575  0.00  0.00    +0.000 C 
ATOM     20  O   UNL     1       2.083   9.735  17.995  0.00  0.00    +0.000 OA
ENDBRANCH   1  20
TORSDOF 2
ENDMDL
MODEL 7
REMARK VINA RESULT:      -7.2      1.325      4.372
REMARK  Name = 
REMARK  3 active torsions:
REMARK  status: ('A' for Active; 'I' for Inactive)
REMARK    1  A    between atoms: C_1  and  O_2
REMARK    2  A    between atoms: O_2  and  C_3
REMARK    3  A    between atoms: C_14  and  C_15
REMARK                            x       y       z     vdW  Elec       q    Type
REMARK                         _______ _______ _______ _____ _____    ______ ____
ROOT
ATOM      1  C   UNL     1       5.243   5.324  16.666  0.00  0.00    +0.000 A 
ATOM      2  C   UNL     1       4.722   4.461  17.612  0.00  0.00    +0.000 A 
ATOM      3  C   UNL     1       3.748   4.907  18.502  0.00  0.00    +0.000 A 
ATOM      4  C   UNL     1       3.237   6.209  18.494  0.00  0.00    +0.000 A 
ATOM      5  C   UNL     1       3.761   7.085  17.520  0.00  0.00    +0.000 A 
ATOM      6  C   UNL     1       4.762   6.634  16.626  0.00  0.00    +0.000 A 
ATOM      7  C   UNL     1       3.351   8.537  17.452  0.00  0.00    +0.000 C 
ATOM      8  C   UNL     1       1.994   8.820  18.073  0.00  0.00    +0.000 C 
ATOM      9  C   UNL     1       1.884   8.177  19.430  0.00  0.00    +0.000 C 
ATOM     10  O   UNL     1       1.449   8.796  20.400  0.00  0.00    +0.000 OA
ATOM     11  C   UNL     1       2.235   6.708  19.485  0.00  0.00    +0.000 C 
ATOM     12  C   UNL     1       1.511   6.028  20.407  0.00  0.00    +0.000 C 
ENDROOT
BRANCH  12  13
ATOM     13  C   UNL     1       1.533   4.579  20.624  0.00  0.00    +0.000 A 
ATOM     14  C   UNL     1       2.400   4.021  21.574  0.00  0.00    +0.000 A 
ATOM     15  C   UNL     1       2.638   2.644  21.570  0.00  0.00    +0.000 A 
ATOM     16  C   UNL     1       1.986   1.824  20.648  0.00  0.00    +0.000 A 
ATOM     17  C   UNL     1       1.062   2.368  19.756  0.00  0.00    +0.000 A 
ATOM     18  C   UNL     1       0.828   3.743  19.748  0.00  0.00    +0.000 A 
ENDBRANCH  12  13
BRANCH   1  20
ATOM     19  C   UNL     1       5.763   4.387  14.558  0.00  0.00    +0.000 C 
ATOM     20  O   UNL     1       6.216   5.000  15.763  0.00  0.00    +0.000 OA
ENDBRANCH   1  20
TORSDOF 2
ENDMDL
MODEL 8
REMARK VINA RESULT:      -7.2      2.085      4.738
REMARK  Name = 
REMARK  3 active torsions:
REMARK  status: ('A' for Active; 'I' for Inactive)
REMARK    1  A    between atoms: C_1  and  O_2
REMARK    2  A    between atoms: O_2  and  C_3
REMARK    3  A    between atoms: C_14  and  C_15
REMARK                            x       y       z     vdW  Elec       q    Type
REMARK                         _______ _______ _______ _____ _____    ______ ____
ROOT
ATOM      1  C   UNL     1       1.832   7.311  20.137  0.00  0.00    +0.000 A 
ATOM      2  C   UNL     1       2.793   7.282  19.144  0.00  0.00    +0.000 A 
ATOM      3  C   UNL     1       3.530   6.121  18.921  0.00  0.00    +0.000 A 
ATOM      4  C   UNL     1       3.346   4.941  19.650  0.00  0.00    +0.000 A 
ATOM      5  C   UNL     1       2.355   4.969  20.654  0.00  0.00    +0.000 A 
ATOM      6  C   UNL     1       1.619   6.155  20.890  0.00  0.00    +0.000 A 
ATOM      7  C   UNL     1       2.109   3.788  21.562  0.00  0.00    +0.000 C 
ATOM      8  C   UNL     1       2.553   2.460  20.975  0.00  0.00    +0.000 C 
ATOM      9  C   UNL     1       3.946   2.566  20.412  0.00  0.00    +0.000 C 
ATOM     10  O   UNL     1       4.802   1.717  20.652  0.00  0.00    +0.000 OA
ATOM     11  C   UNL     1       4.175   3.713  19.453  0.00  0.00    +0.000 C 
ATOM     12  C   UNL     1       5.075   3.417  18.484  0.00  0.00    +0.000 C 
ENDROOT
BRANCH  12  13
ATOM     13  C   UNL     1       5.427   4.268  17.345  0.00  0.00    +0.000 A 
ATOM     14  C   UNL     1       4.834   4.053  16.093  0.00  0.00    +0.000 A 
ATOM     15  C   UNL     1       5.379   4.652  14.955  0.00  0.00    +0.000 A 
ATOM     16  C   UNL     1       6.487   5.492  15.069  0.00  0.00    +0.000 A 
ATOM     17  C   UNL     1       7.028   5.772  16.325  0.00  0.00    +0.000 A 
ATOM     18  C   UNL     1       6.494   5.167  17.464  0.00  0.00    +0.000 A 
ENDBRANCH  12  13
BRANCH   1  20
ATOM     19  C   UNL     1       1.201   8.876  21.795  0.00  0.00    +0.000 C 
ATOM     20  O   UNL     1       1.070   8.400  20.457  0.00  0.00    +0.000 OA
ENDBRANCH   1  20
TORSDOF 2
ENDMDL
MODEL 9
REMARK VINA RESULT:      -7.1      2.757      4.389
REMARK  Name = 
REMARK  3 active torsions:
REMARK  status: ('A' for Active; 'I' for Inactive)
REMARK    1  A    between atoms: C_1  and  O_2
REMARK    2  A    between atoms: O_2  and  C_3
REMARK    3  A    between atoms: C_14  and  C_15
REMARK                            x       y       z     vdW  Elec       q    Type
REMARK                         _______ _______ _______ _____ _____    ______ ____
ROOT
ATOM      1  C   UNL     1       5.664   4.152  14.285  0.00  0.00    +0.000 A 
ATOM      2  C   UNL     1       4.722   3.585  15.123  0.00  0.00    +0.000 A 
ATOM      3  C   UNL     1       4.770   3.832  16.493  0.00  0.00    +0.000 A 
ATOM      4  C   UNL     1       5.731   4.650  17.094  0.00  0.00    +0.000 A 
ATOM      5  C   UNL     1       6.684   5.238  16.236  0.00  0.00    +0.000 A 
ATOM      6  C   UNL     1       6.643   4.973  14.846  0.00  0.00    +0.000 A 
ATOM      7  C   UNL     1       7.820   6.080  16.765  0.00  0.00    +0.000 C 
ATOM      8  C   UNL     1       7.542   6.700  18.123  0.00  0.00    +0.000 C 
ATOM      9  C   UNL     1       6.999   5.671  19.077  0.00  0.00    +0.000 C 
ATOM     10  O   UNL     1       7.435   5.564  20.223  0.00  0.00    +0.000 OA
ATOM     11  C   UNL     1       5.821   4.870  18.571  0.00  0.00    +0.000 C 
ATOM     12  C   UNL     1       4.958   4.522  19.555  0.00  0.00    +0.000 C 
ENDROOT
BRANCH  12  13
ATOM     13  C   UNL     1       3.670   3.847  19.375  0.00  0.00    +0.000 A 
ATOM     14  C   UNL     1       3.600   2.447  19.382  0.00  0.00    +0.000 A 
ATOM     15  C   UNL     1       2.448   1.808  18.917  0.00  0.00    +0.000 A 
ATOM     16  C   UNL     1       1.356   2.562  18.483  0.00  0.00    +0.000 A 
ATOM     17  C   UNL     1       1.395   3.955  18.554  0.00  0.00    +0.000 A 
ATOM     18  C   UNL     1       2.547   4.598  19.006  0.00  0.00    +0.000 A 
ENDBRANCH  12  13
BRANCH   1  20
ATOM     19  C   UNL     1       7.032   3.994  12.361  0.00  0.00    +0.000 C 
ATOM     20  O   UNL     1       5.725   3.959  12.934  0.00  0.00    +0.000 OA
ENDBRANCH   1  20
TORSDOF 2
ENDMDL
