MODEL 1
REMARK VINA RESULT:      -7.9      0.000      0.000
REMARK  Name = 
REMARK  12 active torsions:
REMARK  status: ('A' for Active; 'I' for Inactive)
REMARK    1  A    between atoms: C_1  and  C_2
REMARK    2  A    between atoms: C_2  and  C_3
REMARK    3  A    between atoms: C_3  and  C_4
REMARK    4  A    between atoms: C_7  and  O_8
REMARK    5  A    between atoms: O_8  and  C_9
REMARK    6  A    between atoms: C_9  and  C_10
REMARK    7  A    between atoms: N_12  and  C_13
REMARK    8  A    between atoms: N_12  and  C_24
REMARK    9  A    between atoms: C_13  and  C_14
REMARK   10  A    between atoms: N_16  and  C_17
REMARK   11  A    between atoms: C_24  and  C_25
REMARK   12  A    between atoms: C_24  and  C_26
REMARK                            x       y       z     vdW  Elec       q    Type
REMARK                         _______ _______ _______ _____ _____    ______ ____
ROOT
ATOM      1  C   UNL     1       3.349   3.127  17.952  0.00  0.00    +0.000 C 
ATOM      2  O   UNL     1       3.056   1.960  17.671  0.00  0.00    +0.000 OA
ATOM      3  N   UNL     1       3.091   3.681  19.214  0.00  0.00    +0.000 N 
ENDROOT
BRANCH   3   4
ATOM      4  C   UNL     1       2.225   2.879  20.113  0.00  0.00    +0.000 C 
ATOM      5  C   UNL     1       2.567   3.005  21.596  0.00  0.00    +0.000 C 
ATOM      6  C   UNL     1       0.731   3.121  19.883  0.00  0.00    +0.000 C 
ENDBRANCH   3   4
BRANCH   1   7
ATOM      7  C   UNL     1       4.061   3.978  16.894  0.00  0.00    +0.000 C 
BRANCH   7   8
ATOM      8  O   UNL     1       5.477   3.879  16.918  0.00  0.00    +0.000 OA
BRANCH   8  12
ATOM      9  C   UNL     1       7.729   7.133  18.280  0.00  0.00    +0.000 A 
ATOM     10  C   UNL     1       7.835   5.858  18.847  0.00  0.00    +0.000 A 
ATOM     11  C   UNL     1       7.066   4.799  18.355  0.00  0.00    +0.000 A 
ATOM     12  C   UNL     1       6.157   5.000  17.318  0.00  0.00    +0.000 A 
ATOM     13  C   UNL     1       6.024   6.276  16.769  0.00  0.00    +0.000 A 
ATOM     14  C   UNL     1       6.801   7.335  17.253  0.00  0.00    +0.000 A 
BRANCH   9  15
ATOM     15  C   UNL     1       8.608   8.270  18.740  0.00  0.00    +0.000 C 
BRANCH  15  17
ATOM     16  C   UNL     1       9.128  10.760  18.525  0.00  0.00    +0.000 C 
ATOM     17  C   UNL     1       8.475   9.540  17.889  0.00  0.00    +0.000 C 
ENDBRANCH  15  17
ENDBRANCH   9  15
ENDBRANCH   8  12
ENDBRANCH   7   8
ENDBRANCH   1   7
BRANCH   3  18
ATOM     18  C   UNL     1       3.495   5.054  19.598  0.00  0.00    +0.000 C 
BRANCH  18  19
ATOM     19  C   UNL     1       2.520   6.213  19.303  0.00  0.00    +0.000 C 
ATOM     20  O   UNL     1       1.942   6.349  18.222  0.00  0.00    +0.000 OA
ATOM     21  N   UNL     1       2.361   7.104  20.354  0.00  0.00    +0.000 N 
ATOM     22  H   UNL     1       3.146   7.197  20.986  0.00  0.00    +0.000 HD
BRANCH  21  23
ATOM     23  C   UNL     1       1.509   8.229  20.240  0.00  0.00    +0.000 A 
ATOM     24  C   UNL     1       1.580   9.112  19.151  0.00  0.00    +0.000 A 
ATOM     25  C   UNL     1       0.743  10.228  19.095  0.00  0.00    +0.000 A 
ATOM     26  C   UNL     1      -0.145  10.470  20.136  0.00  0.00    +0.000 A 
ATOM     27  F   UNL     1      -0.930  11.555  20.098  0.00  0.00    +0.000 F 
ATOM     28  C   UNL     1      -0.228   9.602  21.218  0.00  0.00    +0.000 A 
ATOM     29  C   UNL     1       0.582   8.465  21.259  0.00  0.00    +0.000 A 
ENDBRANCH  21  23
ENDBRANCH  18  19
ENDBRANCH   3  18
TORSDOF 9
ENDMDL
MODEL 2
REMARK VINA RESULT:      -7.5      3.041      6.578
REMARK  Name = 
REMARK  12 active torsions:
REMARK  status: ('A' for Active; 'I' for Inactive)
REMARK    1  A    between atoms: C_1  and  C_2
REMARK    2  A    between atoms: C_2  and  C_3
REMARK    3  A    between atoms: C_3  and  C_4
REMARK    4  A    between atoms: C_7  and  O_8
REMARK    5  A    between atoms: O_8  and  C_9
REMARK    6  A    between atoms: C_9  and  C_10
REMARK    7  A    between atoms: N_12  and  C_13
REMARK    8  A    between atoms: N_12  and  C_24
REMARK    9  A    between atoms: C_13  and  C_14
REMARK   10  A    between atoms: N_16  and  C_17
REMARK   11  A    between atoms: C_24  and  C_25
REMARK   12  A    between atoms: C_24  and  C_26
REMARK                            x       y       z     vdW  Elec       q    Type
REMARK                         _______ _______ _______ _____ _____    ______ ____
ROOT
ATOM      1  C   UNL     1       5.482   6.205  15.967  0.00  0.00    +0.000 C 
ATOM      2  O   UNL     1       5.167   6.650  14.859  0.00  0.00    +0.000 OA
ATOM      3  N   UNL     1       6.418   5.172  16.121  0.00  0.00    +0.000 N 
ENDROOT
BRANCH   3   4
ATOM      4  C   UNL     1       6.826   4.471  14.877  0.00  0.00    +0.000 C 
ATOM      5  C   UNL     1       5.682   3.778  14.140  0.00  0.00    +0.000 C 
ATOM      6  C   UNL     1       7.624   5.360  13.921  0.00  0.00    +0.000 C 
ENDBRANCH   3   4
BRANCH   1   7
ATOM      7  C   UNL     1       4.859   6.839  17.216  0.00  0.00    +0.000 C 
BRANCH   7   8
ATOM      8  O   UNL     1       3.516   6.451  17.462  0.00  0.00    +0.000 OA
BRANCH   8  12
ATOM      9  C   UNL     1       1.291   8.971  19.954  0.00  0.00    +0.000 A 
ATOM     10  C   UNL     1       1.802   7.744  20.392  0.00  0.00    +0.000 A 
ATOM     11  C   UNL     1       2.545   6.938  19.525  0.00  0.00    +0.000 A 
ATOM     12  C   UNL     1       2.759   7.322  18.203  0.00  0.00    +0.000 A 
ATOM     13  C   UNL     1       2.226   8.528  17.751  0.00  0.00    +0.000 A 
ATOM     14  C   UNL     1       1.491   9.343  18.621  0.00  0.00    +0.000 A 
BRANCH   9  15
ATOM     15  C   UNL     1       0.557   9.895  20.895  0.00  0.00    +0.000 C 
BRANCH  15  17
ATOM     16  C   UNL     1      -0.188   9.660  23.326  0.00  0.00    +0.000 C 
ATOM     17  C   UNL     1      -0.352   9.167  21.894  0.00  0.00    +0.000 C 
ENDBRANCH  15  17
ENDBRANCH   9  15
ENDBRANCH   8  12
ENDBRANCH   7   8
ENDBRANCH   1   7
BRANCH   3  18
ATOM     18  C   UNL     1       6.865   4.668  17.441  0.00  0.00    +0.000 C 
BRANCH  18  19
ATOM     19  C   UNL     1       5.802   4.449  18.538  0.00  0.00    +0.000 C 
ATOM     20  O   UNL     1       5.869   4.967  19.655  0.00  0.00    +0.000 OA
ATOM     21  N   UNL     1       4.769   3.601  18.166  0.00  0.00    +0.000 N 
ATOM     22  H   UNL     1       4.992   2.898  17.472  0.00  0.00    +0.000 HD
BRANCH  21  23
ATOM     23  C   UNL     1       3.719   3.286  19.063  0.00  0.00    +0.000 A 
ATOM     24  C   UNL     1       2.377   3.575  18.770  0.00  0.00    +0.000 A 
ATOM     25  C   UNL     1       1.376   3.277  19.699  0.00  0.00    +0.000 A 
ATOM     26  C   UNL     1       1.722   2.714  20.921  0.00  0.00    +0.000 A 
ATOM     27  F   UNL     1       0.767   2.452  21.823  0.00  0.00    +0.000 F 
ATOM     28  C   UNL     1       3.046   2.420  21.221  0.00  0.00    +0.000 A 
ATOM     29  C   UNL     1       4.045   2.682  20.281  0.00  0.00    +0.000 A 
ENDBRANCH  21  23
ENDBRANCH  18  19
ENDBRANCH   3  18
TORSDOF 9
ENDMDL
MODEL 3
REMARK VINA RESULT:      -7.4      3.755      7.774
REMARK  Name = 
REMARK  12 active torsions:
REMARK  status: ('A' for Active; 'I' for Inactive)
REMARK    1  A    between atoms: C_1  and  C_2
REMARK    2  A    between atoms: C_2  and  C_3
REMARK    3  A    between atoms: C_3  and  C_4
REMARK    4  A    between atoms: C_7  and  O_8
REMARK    5  A    between atoms: O_8  and  C_9
REMARK    6  A    between atoms: C_9  and  C_10
REMARK    7  A    between atoms: N_12  and  C_13
REMARK    8  A    between atoms: N_12  and  C_24
REMARK    9  A    between atoms: C_13  and  C_14
REMARK   10  A    between atoms: N_16  and  C_17
REMARK   11  A    between atoms: C_24  and  C_25
REMARK   12  A    between atoms: C_24  and  C_26
REMARK                            x       y       z     vdW  Elec       q    Type
REMARK                         _______ _______ _______ _____ _____    ______ ____
ROOT
ATOM      1  C   UNL     1       2.430   5.118  19.641  0.00  0.00    +0.000 C 
ATOM      2  O   UNL     1       1.309   4.689  19.929  0.00  0.00    +0.000 OA
ATOM      3  N   UNL     1       3.488   4.270  19.284  0.00  0.00    +0.000 N 
ENDROOT
BRANCH   3   4
ATOM      4  C   UNL     1       3.266   2.820  19.509  0.00  0.00    +0.000 C 
ATOM      5  C   UNL     1       2.847   2.045  18.262  0.00  0.00    +0.000 C 
ATOM      6  C   UNL     1       4.445   2.132  20.200  0.00  0.00    +0.000 C 
ENDBRANCH   3   4
BRANCH   1   7
ATOM      7  C   UNL     1       2.654   6.635  19.632  0.00  0.00    +0.000 C 
BRANCH   7   8
ATOM      8  O   UNL     1       1.926   7.341  20.626  0.00  0.00    +0.000 OA
BRANCH   8  12
ATOM      9  C   UNL     1      -0.091  10.660  19.066  0.00  0.00    +0.000 A 
ATOM     10  C   UNL     1       0.885   9.967  18.342  0.00  0.00    +0.000 A 
ATOM     11  C   UNL     1       1.529   8.860  18.902  0.00  0.00    +0.000 A 
ATOM     12  C   UNL     1       1.238   8.448  20.201  0.00  0.00    +0.000 A 
ATOM     13  C   UNL     1       0.289   9.154  20.941  0.00  0.00    +0.000 A 
ATOM     14  C   UNL     1      -0.365  10.256  20.377  0.00  0.00    +0.000 A 
BRANCH   9  15
ATOM     15  C   UNL     1      -0.856  11.806  18.452  0.00  0.00    +0.000 C 
BRANCH  15  17
ATOM     16  C   UNL     1      -2.412  10.663  16.781  0.00  0.00    +0.000 C 
ATOM     17  C   UNL     1      -2.302  11.456  18.078  0.00  0.00    +0.000 C 
ENDBRANCH  15  17
ENDBRANCH   9  15
ENDBRANCH   8  12
ENDBRANCH   7   8
ENDBRANCH   1   7
BRANCH   3  18
ATOM     18  C   UNL     1       4.822   4.764  18.867  0.00  0.00    +0.000 C 
BRANCH  18  19
ATOM     19  C   UNL     1       5.065   5.036  17.368  0.00  0.00    +0.000 C 
ATOM     20  O   UNL     1       4.523   5.958  16.754  0.00  0.00    +0.000 OA
ATOM     21  N   UNL     1       5.933   4.140  16.761  0.00  0.00    +0.000 N 
ATOM     22  H   UNL     1       5.973   3.212  17.162  0.00  0.00    +0.000 HD
BRANCH  21  23
ATOM     23  C   UNL     1       6.252   4.244  15.385  0.00  0.00    +0.000 A 
ATOM     24  C   UNL     1       5.535   3.549  14.399  0.00  0.00    +0.000 A 
ATOM     25  C   UNL     1       5.905   3.656  13.056  0.00  0.00    +0.000 A 
ATOM     26  C   UNL     1       7.000   4.437  12.708  0.00  0.00    +0.000 A 
ATOM     27  F   UNL     1       7.374   4.519  11.423  0.00  0.00    +0.000 F 
ATOM     28  C   UNL     1       7.715   5.133  13.674  0.00  0.00    +0.000 A 
ATOM     29  C   UNL     1       7.326   5.058  15.013  0.00  0.00    +0.000 A 
ENDBRANCH  21  23
ENDBRANCH  18  19
ENDBRANCH   3  18
TORSDOF 9
ENDMDL
MODEL 4
REMARK VINA RESULT:      -7.3      1.432      1.853
REMARK  Name = 
REMARK  12 active torsions:
REMARK  status: ('A' for Active; 'I' for Inactive)
REMARK    1  A    between atoms: C_1  and  C_2
REMARK    2  A    between atoms: C_2  and  C_3
REMARK    3  A    between atoms: C_3  and  C_4
REMARK    4  A    between atoms: C_7  and  O_8
REMARK    5  A    between atoms: O_8  and  C_9
REMARK    6  A    between atoms: C_9  and  C_10
REMARK    7  A    between atoms: N_12  and  C_13
REMARK    8  A    between atoms: N_12  and  C_24
REMARK    9  A    between atoms: C_13  and  C_14
REMARK   10  A    between atoms: N_16  and  C_17
REMARK   11  A    between atoms: C_24  and  C_25
REMARK   12  A    between atoms: C_24  and  C_26
REMARK                            x       y       z     vdW  Elec       q    Type
REMARK                         _______ _______ _______ _____ _____    ______ ____
ROOT
ATOM      1  C   UNL     1       4.127   3.377  18.881  0.00  0.00    +0.000 C 
ATOM      2  O   UNL     1       4.394   2.476  19.682  0.00  0.00    +0.000 OA
ATOM      3  N   UNL     1       2.858   3.968  18.813  0.00  0.00    +0.000 N 
ENDROOT
BRANCH   3   4
ATOM      4  C   UNL     1       1.781   3.290  19.579  0.00  0.00    +0.000 C 
ATOM      5  C   UNL     1       1.063   4.187  20.585  0.00  0.00    +0.000 C 
ATOM      6  C   UNL     1       0.771   2.567  18.685  0.00  0.00    +0.000 C 
ENDBRANCH   3   4
BRANCH   1   7
ATOM      7  C   UNL     1       5.240   3.893  17.961  0.00  0.00    +0.000 C 
BRANCH   7   8
ATOM      8  O   UNL     1       6.461   4.186  18.625  0.00  0.00    +0.000 OA
BRANCH   8  12
ATOM      9  C   UNL     1       7.783   8.086  17.880  0.00  0.00    +0.000 A 
ATOM     10  C   UNL     1       6.736   7.499  17.161  0.00  0.00    +0.000 A 
ATOM     11  C   UNL     1       6.324   6.195  17.449  0.00  0.00    +0.000 A 
ATOM     12  C   UNL     1       6.970   5.444  18.429  0.00  0.00    +0.000 A 
ATOM     13  C   UNL     1       8.035   6.011  19.128  0.00  0.00    +0.000 A 
ATOM     14  C   UNL     1       8.442   7.322  18.849  0.00  0.00    +0.000 A 
BRANCH   9  15
ATOM     15  C   UNL     1       8.189   9.520  17.642  0.00  0.00    +0.000 C 
BRANCH  15  17
ATOM     16  C   UNL     1      10.104  11.024  18.411  0.00  0.00    +0.000 C 
ATOM     17  C   UNL     1       8.919  10.162  18.830  0.00  0.00    +0.000 C 
ENDBRANCH  15  17
ENDBRANCH   9  15
ENDBRANCH   8  12
ENDBRANCH   7   8
ENDBRANCH   1   7
BRANCH   3  18
ATOM     18  C   UNL     1       2.531   5.097  17.910  0.00  0.00    +0.000 C 
BRANCH  18  19
ATOM     19  C   UNL     1       2.618   6.531  18.473  0.00  0.00    +0.000 C 
ATOM     20  O   UNL     1       3.474   6.886  19.286  0.00  0.00    +0.000 OA
ATOM     21  N   UNL     1       1.636   7.388  17.998  0.00  0.00    +0.000 N 
ATOM     22  H   UNL     1       0.761   6.960  17.724  0.00  0.00    +0.000 HD
BRANCH  21  23
ATOM     23  C   UNL     1       1.569   8.736  18.426  0.00  0.00    +0.000 A 
ATOM     24  C   UNL     1       2.201   9.774  17.724  0.00  0.00    +0.000 A 
ATOM     25  C   UNL     1       2.136  11.086  18.200  0.00  0.00    +0.000 A 
ATOM     26  C   UNL     1       1.460  11.351  19.385  0.00  0.00    +0.000 A 
ATOM     27  F   UNL     1       1.419  12.604  19.858  0.00  0.00    +0.000 F 
ATOM     28  C   UNL     1       0.826  10.333  20.087  0.00  0.00    +0.000 A 
ATOM     29  C   UNL     1       0.858   9.027  19.594  0.00  0.00    +0.000 A 
ENDBRANCH  21  23
ENDBRANCH  18  19
ENDBRANCH   3  18
TORSDOF 9
ENDMDL
MODEL 5
REMARK VINA RESULT:      -7.3      2.474      3.924
REMARK  Name = 
REMARK  12 active torsions:
REMARK  status: ('A' for Active; 'I' for Inactive)
REMARK    1  A    between atoms: C_1  and  C_2
REMARK    2  A    between atoms: C_2  and  C_3
REMARK    3  A    between atoms: C_3  and  C_4
REMARK    4  A    between atoms: C_7  and  O_8
REMARK    5  A    between atoms: O_8  and  C_9
REMARK    6  A    between atoms: C_9  and  C_10
REMARK    7  A    between atoms: N_12  and  C_13
REMARK    8  A    between atoms: N_12  and  C_24
REMARK    9  A    between atoms: C_13  and  C_14
REMARK   10  A    between atoms: N_16  and  C_17
REMARK   11  A    between atoms: C_24  and  C_25
REMARK   12  A    between atoms: C_24  and  C_26
REMARK                            x       y       z     vdW  Elec       q    Type
REMARK                         _______ _______ _______ _____ _____    ______ ____
ROOT
ATOM      1  C   UNL     1       4.054   4.708  19.371  0.00  0.00    +0.000 C 
ATOM      2  O   UNL     1       3.952   3.572  19.844  0.00  0.00    +0.000 OA
ATOM      3  N   UNL     1       2.935   5.497  19.071  0.00  0.00    +0.000 N 
ENDROOT
BRANCH   3   4
ATOM      4  C   UNL     1       1.620   4.809  19.117  0.00  0.00    +0.000 C 
ATOM      5  C   UNL     1       1.484   3.643  18.140  0.00  0.00    +0.000 C 
ATOM      6  C   UNL     1       1.216   4.379  20.529  0.00  0.00    +0.000 C 
ENDBRANCH   3   4
BRANCH   1   7
ATOM      7  C   UNL     1       5.456   5.286  19.148  0.00  0.00    +0.000 C 
BRANCH   7   8
ATOM      8  O   UNL     1       6.360   4.401  18.504  0.00  0.00    +0.000 OA
BRANCH   8  12
ATOM      9  C   UNL     1       6.397   4.296  14.321  0.00  0.00    +0.000 A 
ATOM     10  C   UNL     1       7.417   4.899  15.065  0.00  0.00    +0.000 A 
ATOM     11  C   UNL     1       7.365   4.905  16.461  0.00  0.00    +0.000 A 
ATOM     12  C   UNL     1       6.282   4.344  17.136  0.00  0.00    +0.000 A 
ATOM     13  C   UNL     1       5.247   3.770  16.400  0.00  0.00    +0.000 A 
ATOM     14  C   UNL     1       5.303   3.752  15.001  0.00  0.00    +0.000 A 
BRANCH   9  15
ATOM     15  C   UNL     1       6.474   4.206  12.816  0.00  0.00    +0.000 C 
BRANCH  15  17
ATOM     16  C   UNL     1       4.438   3.389  11.510  0.00  0.00    +0.000 C 
ATOM     17  C   UNL     1       5.724   3.003  12.229  0.00  0.00    +0.000 C 
ENDBRANCH  15  17
ENDBRANCH   9  15
ENDBRANCH   8  12
ENDBRANCH   7   8
ENDBRANCH   1   7
BRANCH   3  18
ATOM     18  C   UNL     1       3.030   6.888  18.568  0.00  0.00    +0.000 C 
BRANCH  18  19
ATOM     19  C   UNL     1       2.005   7.922  19.081  0.00  0.00    +0.000 C 
ATOM     20  O   UNL     1       1.297   8.599  18.331  0.00  0.00    +0.000 OA
ATOM     21  N   UNL     1       1.961   8.041  20.462  0.00  0.00    +0.000 N 
ATOM     22  H   UNL     1       2.816   7.825  20.959  0.00  0.00    +0.000 HD
BRANCH  21  23
ATOM     23  C   UNL     1       1.082   8.956  21.092  0.00  0.00    +0.000 A 
ATOM     24  C   UNL     1       1.067  10.321  20.767  0.00  0.00    +0.000 A 
ATOM     25  C   UNL     1       0.206  11.193  21.438  0.00  0.00    +0.000 A 
ATOM     26  C   UNL     1      -0.618  10.702  22.442  0.00  0.00    +0.000 A 
ATOM     27  F   UNL     1      -1.426  11.542  23.106  0.00  0.00    +0.000 F 
ATOM     28  C   UNL     1      -0.616   9.352  22.770  0.00  0.00    +0.000 A 
ATOM     29  C   UNL     1       0.216   8.471  22.077  0.00  0.00    +0.000 A 
ENDBRANCH  21  23
ENDBRANCH  18  19
ENDBRANCH   3  18
TORSDOF 9
ENDMDL
MODEL 6
REMARK VINA RESULT:      -7.2      1.100      1.490
REMARK  Name = 
REMARK  12 active torsions:
REMARK  status: ('A' for Active; 'I' for Inactive)
REMARK    1  A    between atoms: C_1  and  C_2
REMARK    2  A    between atoms: C_2  and  C_3
REMARK    3  A    between atoms: C_3  and  C_4
REMARK    4  A    between atoms: C_7  and  O_8
REMARK    5  A    between atoms: O_8  and  C_9
REMARK    6  A    between atoms: C_9  and  C_10
REMARK    7  A    between atoms: N_12  and  C_13
REMARK    8  A    between atoms: N_12  and  C_24
REMARK    9  A    between atoms: C_13  and  C_14
REMARK   10  A    between atoms: N_16  and  C_17
REMARK   11  A    between atoms: C_24  and  C_25
REMARK   12  A    between atoms: C_24  and  C_26
REMARK                            x       y       z     vdW  Elec       q    Type
REMARK                         _______ _______ _______ _____ _____    ______ ____
ROOT
ATOM      1  C   UNL     1       4.094   2.806  19.217  0.00  0.00    +0.000 C 
ATOM      2  O   UNL     1       4.060   1.669  18.737  0.00  0.00    +0.000 OA
ATOM      3  N   UNL     1       3.009   3.359  19.912  0.00  0.00    +0.000 N 
ENDROOT
BRANCH   3   4
ATOM      4  C   UNL     1       1.731   2.609  19.829  0.00  0.00    +0.000 C 
ATOM      5  C   UNL     1       0.780   2.851  20.998  0.00  0.00    +0.000 C 
ATOM      6  C   UNL     1       1.005   2.804  18.495  0.00  0.00    +0.000 C 
ENDBRANCH   3   4
BRANCH   1   7
ATOM      7  C   UNL     1       5.387   3.620  19.084  0.00  0.00    +0.000 C 
BRANCH   7   8
ATOM      8  O   UNL     1       5.624   4.136  17.783  0.00  0.00    +0.000 OA
BRANCH   8  12
ATOM      9  C   UNL     1       7.460   7.895  17.695  0.00  0.00    +0.000 A 
ATOM     10  C   UNL     1       7.974   6.827  18.439  0.00  0.00    +0.000 A 
ATOM     11  C   UNL     1       7.329   5.587  18.433  0.00  0.00    +0.000 A 
ATOM     12  C   UNL     1       6.147   5.401  17.719  0.00  0.00    +0.000 A 
ATOM     13  C   UNL     1       5.613   6.470  17.001  0.00  0.00    +0.000 A 
ATOM     14  C   UNL     1       6.263   7.711  16.995  0.00  0.00    +0.000 A 
BRANCH   9  15
ATOM     15  C   UNL     1       8.184   9.217  17.620  0.00  0.00    +0.000 C 
BRANCH  15  17
ATOM     16  C   UNL     1       9.513  10.993  18.884  0.00  0.00    +0.000 C 
ATOM     17  C   UNL     1       8.949   9.578  18.900  0.00  0.00    +0.000 C 
ENDBRANCH  15  17
ENDBRANCH   9  15
ENDBRANCH   8  12
ENDBRANCH   7   8
ENDBRANCH   1   7
BRANCH   3  18
ATOM     18  C   UNL     1       3.049   4.693  20.558  0.00  0.00    +0.000 C 
BRANCH  18  19
ATOM     19  C   UNL     1       2.524   5.906  19.762  0.00  0.00    +0.000 C 
ATOM     20  O   UNL     1       2.467   5.930  18.530  0.00  0.00    +0.000 OA
ATOM     21  N   UNL     1       2.136   6.978  20.551  0.00  0.00    +0.000 N 
ATOM     22  H   UNL     1       2.604   7.071  21.444  0.00  0.00    +0.000 HD
BRANCH  21  23
ATOM     23  C   UNL     1       1.642   8.174  19.974  0.00  0.00    +0.000 A 
ATOM     24  C   UNL     1       0.849   9.078  20.696  0.00  0.00    +0.000 A 
ATOM     25  C   UNL     1       0.355  10.229  20.076  0.00  0.00    +0.000 A 
ATOM     26  C   UNL     1       0.638  10.460  18.736  0.00  0.00    +0.000 A 
ATOM     27  F   UNL     1       0.144  11.549  18.133  0.00  0.00    +0.000 F 
ATOM     28  C   UNL     1       1.427   9.574  18.011  0.00  0.00    +0.000 A 
ATOM     29  C   UNL     1       1.952   8.442  18.637  0.00  0.00    +0.000 A 
ENDBRANCH  21  23
ENDBRANCH  18  19
ENDBRANCH   3  18
TORSDOF 9
ENDMDL
MODEL 7
REMARK VINA RESULT:      -7.2      2.914      6.739
REMARK  Name = 
REMARK  12 active torsions:
REMARK  status: ('A' for Active; 'I' for Inactive)
REMARK    1  A    between atoms: C_1  and  C_2
REMARK    2  A    between atoms: C_2  and  C_3
REMARK    3  A    between atoms: C_3  and  C_4
REMARK    4  A    between atoms: C_7  and  O_8
REMARK    5  A    between atoms: O_8  and  C_9
REMARK    6  A    between atoms: C_9  and  C_10
REMARK    7  A    between atoms: N_12  and  C_13
REMARK    8  A    between atoms: N_12  and  C_24
REMARK    9  A    between atoms: C_13  and  C_14
REMARK   10  A    between atoms: N_16  and  C_17
REMARK   11  A    between atoms: C_24  and  C_25
REMARK   12  A    between atoms: C_24  and  C_26
REMARK                            x       y       z     vdW  Elec       q    Type
REMARK                         _______ _______ _______ _____ _____    ______ ____
ROOT
ATOM      1  C   UNL     1       5.078   6.653  17.077  0.00  0.00    +0.000 C 
ATOM      2  O   UNL     1       5.887   7.484  17.499  0.00  0.00    +0.000 OA
ATOM      3  N   UNL     1       5.478   5.415  16.555  0.00  0.00    +0.000 N 
ENDROOT
BRANCH   3   4
ATOM      4  C   UNL     1       6.932   5.253  16.304  0.00  0.00    +0.000 C 
ATOM      5  C   UNL     1       7.681   4.501  17.402  0.00  0.00    +0.000 C 
ATOM      6  C   UNL     1       7.242   4.651  14.932  0.00  0.00    +0.000 C 
ENDBRANCH   3   4
BRANCH   1   7
ATOM      7  C   UNL     1       3.581   6.974  17.172  0.00  0.00    +0.000 C 
BRANCH   7   8
ATOM      8  O   UNL     1       3.061   6.961  18.493  0.00  0.00    +0.000 OA
BRANCH   8  12
ATOM      9  C   UNL     1       0.692  10.313  19.308  0.00  0.00    +0.000 A 
ATOM     10  C   UNL     1       1.425  10.183  18.123  0.00  0.00    +0.000 A 
ATOM     11  C   UNL     1       2.199   9.042  17.892  0.00  0.00    +0.000 A 
ATOM     12  C   UNL     1       2.283   8.032  18.848  0.00  0.00    +0.000 A 
ATOM     13  C   UNL     1       1.580   8.170  20.045  0.00  0.00    +0.000 A 
ATOM     14  C   UNL     1       0.795   9.307  20.274  0.00  0.00    +0.000 A 
BRANCH   9  15
ATOM     15  C   UNL     1      -0.214  11.497  19.542  0.00  0.00    +0.000 C 
BRANCH  15  17
ATOM     16  C   UNL     1      -2.048  10.660  17.976  0.00  0.00    +0.000 C 
ATOM     17  C   UNL     1      -1.705  11.181  19.367  0.00  0.00    +0.000 C 
ENDBRANCH  15  17
ENDBRANCH   9  15
ENDBRANCH   8  12
ENDBRANCH   7   8
ENDBRANCH   1   7
BRANCH   3  18
ATOM     18  C   UNL     1       4.524   4.373  16.107  0.00  0.00    +0.000 C 
BRANCH  18  19
ATOM     19  C   UNL     1       3.494   3.839  17.125  0.00  0.00    +0.000 C 
ATOM     20  O   UNL     1       2.400   3.375  16.796  0.00  0.00    +0.000 OA
ATOM     21  N   UNL     1       3.896   3.944  18.448  0.00  0.00    +0.000 N 
ATOM     22  H   UNL     1       4.540   4.695  18.664  0.00  0.00    +0.000 HD
BRANCH  21  23
ATOM     23  C   UNL     1       3.060   3.510  19.506  0.00  0.00    +0.000 A 
ATOM     24  C   UNL     1       1.751   3.990  19.666  0.00  0.00    +0.000 A 
ATOM     25  C   UNL     1       0.972   3.559  20.744  0.00  0.00    +0.000 A 
ATOM     26  C   UNL     1       1.511   2.671  21.665  0.00  0.00    +0.000 A 
ATOM     27  F   UNL     1       0.776   2.277  22.714  0.00  0.00    +0.000 F 
ATOM     28  C   UNL     1       2.805   2.186  21.515  0.00  0.00    +0.000 A 
ATOM     29  C   UNL     1       3.573   2.585  20.420  0.00  0.00    +0.000 A 
ENDBRANCH  21  23
ENDBRANCH  18  19
ENDBRANCH   3  18
TORSDOF 9
ENDMDL
MODEL 8
REMARK VINA RESULT:      -7.2      2.820      6.636
REMARK  Name = 
REMARK  12 active torsions:
REMARK  status: ('A' for Active; 'I' for Inactive)
REMARK    1  A    between atoms: C_1  and  C_2
REMARK    2  A    between atoms: C_2  and  C_3
REMARK    3  A    between atoms: C_3  and  C_4
REMARK    4  A    between atoms: C_7  and  O_8
REMARK    5  A    between atoms: O_8  and  C_9
REMARK    6  A    between atoms: C_9  and  C_10
REMARK    7  A    between atoms: N_12  and  C_13
REMARK    8  A    between atoms: N_12  and  C_24
REMARK    9  A    between atoms: C_13  and  C_14
REMARK   10  A    between atoms: N_16  and  C_17
REMARK   11  A    between atoms: C_24  and  C_25
REMARK   12  A    between atoms: C_24  and  C_26
REMARK                            x       y       z     vdW  Elec       q    Type
REMARK                         _______ _______ _______ _____ _____    ______ ____
ROOT
ATOM      1  C   UNL     1       5.331   6.941  17.110  0.00  0.00    +0.000 C 
ATOM      2  O   UNL     1       6.227   7.651  17.575  0.00  0.00    +0.000 OA
ATOM      3  N   UNL     1       5.580   5.660  16.596  0.00  0.00    +0.000 N 
ENDROOT
BRANCH   3   4
ATOM      4  C   UNL     1       7.008   5.299  16.411  0.00  0.00    +0.000 C 
ATOM      5  C   UNL     1       7.585   4.422  17.519  0.00  0.00    +0.000 C 
ATOM      6  C   UNL     1       7.301   4.692  15.037  0.00  0.00    +0.000 C 
ENDBRANCH   3   4
BRANCH   1   7
ATOM      7  C   UNL     1       3.890   7.465  17.139  0.00  0.00    +0.000 C 
BRANCH   7   8
ATOM      8  O   UNL     1       3.188   7.184  18.341  0.00  0.00    +0.000 OA
BRANCH   8  12
ATOM      9  C   UNL     1       0.326   9.896  19.741  0.00  0.00    +0.000 A 
ATOM     10  C   UNL     1       0.872   8.897  20.554  0.00  0.00    +0.000 A 
ATOM     11  C   UNL     1       1.830   8.016  20.043  0.00  0.00    +0.000 A 
ATOM     12  C   UNL     1       2.232   8.094  18.711  0.00  0.00    +0.000 A 
ATOM     13  C   UNL     1       1.668   9.067  17.887  0.00  0.00    +0.000 A 
ATOM     14  C   UNL     1       0.716   9.958  18.399  0.00  0.00    +0.000 A 
BRANCH   9  15
ATOM     15  C   UNL     1      -0.648  10.909  20.292  0.00  0.00    +0.000 C 
BRANCH  15  17
ATOM     16  C   UNL     1      -0.910  13.192  19.180  0.00  0.00    +0.000 C 
ATOM     17  C   UNL     1      -0.152  12.358  20.205  0.00  0.00    +0.000 C 
ENDBRANCH  15  17
ENDBRANCH   9  15
ENDBRANCH   8  12
ENDBRANCH   7   8
ENDBRANCH   1   7
BRANCH   3  18
ATOM     18  C   UNL     1       4.514   4.761  16.097  0.00  0.00    +0.000 C 
BRANCH  18  19
ATOM     19  C   UNL     1       3.645   4.013  17.131  0.00  0.00    +0.000 C 
ATOM     20  O   UNL     1       2.819   3.152  16.820  0.00  0.00    +0.000 OA
ATOM     21  N   UNL     1       3.859   4.407  18.443  0.00  0.00    +0.000 N 
ATOM     22  H   UNL     1       4.175   5.359  18.581  0.00  0.00    +0.000 HD
BRANCH  21  23
ATOM     23  C   UNL     1       3.132   3.827  19.511  0.00  0.00    +0.000 A 
ATOM     24  C   UNL     1       3.613   2.718  20.225  0.00  0.00    +0.000 A 
ATOM     25  C   UNL     1       2.847   2.157  21.250  0.00  0.00    +0.000 A 
ATOM     26  C   UNL     1       1.599   2.691  21.543  0.00  0.00    +0.000 A 
ATOM     27  F   UNL     1       0.852   2.138  22.508  0.00  0.00    +0.000 F 
ATOM     28  C   UNL     1       1.114   3.791  20.847  0.00  0.00    +0.000 A 
ATOM     29  C   UNL     1       1.892   4.377  19.846  0.00  0.00    +0.000 A 
ENDBRANCH  21  23
ENDBRANCH  18  19
ENDBRANCH   3  18
TORSDOF 9
ENDMDL
MODEL 9
REMARK VINA RESULT:      -7.1      3.730      7.634
REMARK  Name = 
REMARK  12 active torsions:
REMARK  status: ('A' for Active; 'I' for Inactive)
REMARK    1  A    between atoms: C_1  and  C_2
REMARK    2  A    between atoms: C_2  and  C_3
REMARK    3  A    between atoms: C_3  and  C_4
REMARK    4  A    between atoms: C_7  and  O_8
REMARK    5  A    between atoms: O_8  and  C_9
REMARK    6  A    between atoms: C_9  and  C_10
REMARK    7  A    between atoms: N_12  and  C_13
REMARK    8  A    between atoms: N_12  and  C_24
REMARK    9  A    between atoms: C_13  and  C_14
REMARK   10  A    between atoms: N_16  and  C_17
REMARK   11  A    between atoms: C_24  and  C_25
REMARK   12  A    between atoms: C_24  and  C_26
REMARK                            x       y       z     vdW  Elec       q    Type
REMARK                         _______ _______ _______ _____ _____    ______ ____
ROOT
ATOM      1  C   UNL     1       2.432   4.937  19.687  0.00  0.00    +0.000 C 
ATOM      2  O   UNL     1       1.322   4.456  19.935  0.00  0.00    +0.000 OA
ATOM      3  N   UNL     1       3.514   4.148  19.271  0.00  0.00    +0.000 N 
ENDROOT
BRANCH   3   4
ATOM      4  C   UNL     1       3.331   2.679  19.384  0.00  0.00    +0.000 C 
ATOM      5  C   UNL     1       3.003   1.981  18.066  0.00  0.00    +0.000 C 
ATOM      6  C   UNL     1       4.498   1.980  20.087  0.00  0.00    +0.000 C 
ENDBRANCH   3   4
BRANCH   1   7
ATOM      7  C   UNL     1       2.614   6.455  19.794  0.00  0.00    +0.000 C 
BRANCH   7   8
ATOM      8  O   UNL     1       1.683   7.098  20.652  0.00  0.00    +0.000 OA
BRANCH   8  12
ATOM      9  C   UNL     1       0.402  10.986  19.780  0.00  0.00    +0.000 A 
ATOM     10  C   UNL     1       0.133  10.364  21.005  0.00  0.00    +0.000 A 
ATOM     11  C   UNL     1       0.586   9.066  21.254  0.00  0.00    +0.000 A 
ATOM     12  C   UNL     1       1.280   8.354  20.277  0.00  0.00    +0.000 A 
ATOM     13  C   UNL     1       1.524   8.955  19.043  0.00  0.00    +0.000 A 
ATOM     14  C   UNL     1       1.081  10.261  18.796  0.00  0.00    +0.000 A 
BRANCH   9  15
ATOM     15  C   UNL     1      -0.005  12.415  19.521  0.00  0.00    +0.000 C 
BRANCH  15  17
ATOM     16  C   UNL     1      -2.266  11.862  18.471  0.00  0.00    +0.000 C 
ATOM     17  C   UNL     1      -0.934  12.585  18.312  0.00  0.00    +0.000 C 
ENDBRANCH  15  17
ENDBRANCH   9  15
ENDBRANCH   8  12
ENDBRANCH   7   8
ENDBRANCH   1   7
BRANCH   3  18
ATOM     18  C   UNL     1       4.835   4.707  18.899  0.00  0.00    +0.000 C 
BRANCH  18  19
ATOM     19  C   UNL     1       5.117   4.985  17.408  0.00  0.00    +0.000 C 
ATOM     20  O   UNL     1       4.567   5.888  16.774  0.00  0.00    +0.000 OA
ATOM     21  N   UNL     1       6.033   4.117  16.832  0.00  0.00    +0.000 N 
ATOM     22  H   UNL     1       6.090   3.191  17.236  0.00  0.00    +0.000 HD
BRANCH  21  23
ATOM     23  C   UNL     1       6.393   4.230  15.467  0.00  0.00    +0.000 A 
ATOM     24  C   UNL     1       7.410   5.093  15.032  0.00  0.00    +0.000 A 
ATOM     25  C   UNL     1       7.710   5.197  13.671  0.00  0.00    +0.000 A 
ATOM     26  C   UNL     1       6.979   4.456  12.751  0.00  0.00    +0.000 A 
ATOM     27  F   UNL     1       7.246   4.574  11.444  0.00  0.00    +0.000 F 
ATOM     28  C   UNL     1       5.972   3.594  13.169  0.00  0.00    +0.000 A 
ATOM     29  C   UNL     1       5.695   3.460  14.531  0.00  0.00    +0.000 A 
ENDBRANCH  21  23
ENDBRANCH  18  19
ENDBRANCH   3  18
TORSDOF 9
ENDMDL
