MODEL 1
REMARK VINA RESULT:      -8.1      0.000      0.000
REMARK  Name = 
REMARK  8 active torsions:
REMARK  status: ('A' for Active; 'I' for Inactive)
REMARK    1  A    between atoms: C_1  and  N_2
REMARK    2  A    between atoms: N_2  and  C_3
REMARK    3  A    between atoms: C_4  and  C_6
REMARK    4  A    between atoms: C_6  and  N_7
REMARK    5  A    between atoms: C_6  and  C_22
REMARK    6  A    between atoms: C_8  and  C_10
REMARK    7  A    between atoms: C_13  and  O_14
REMARK    8  A    between atoms: O_14  and  C_15
REMARK                            x       y       z     vdW  Elec       q    Type
REMARK                         _______ _______ _______ _____ _____    ______ ____
ROOT
ATOM      1  N   UNL     1       2.518   6.986  18.822  0.00  0.00    +0.000 N 
ATOM      2  C   UNL     1       2.269   8.176  18.166  0.00  0.00    +0.000 C 
ATOM      3  O   UNL     1       2.768   8.448  17.081  0.00  0.00    +0.000 OA
ATOM      4  H   UNL     1       2.021   6.811  19.684  0.00  0.00    +0.000 HD
ENDROOT
BRANCH   2   5
ATOM      5  C   UNL     1       1.398   9.075  18.887  0.00  0.00    +0.000 A 
ATOM      6  C   UNL     1       1.025   9.102  20.217  0.00  0.00    +0.000 A 
ATOM      7  C   UNL     1       0.123  10.183  20.364  0.00  0.00    +0.000 A 
ATOM      8  C   UNL     1      -0.026  10.736  19.110  0.00  0.00    +0.000 A 
ATOM      9  O   UNL     1       0.776  10.095  18.215  0.00  0.00    +0.000 OA
BRANCH   8  10
ATOM     10  O   UNL     1      -0.751  11.711  18.573  0.00  0.00    +0.000 OA
BRANCH  10  11
ATOM     11  C   UNL     1      -2.037  11.485  18.144  0.00  0.00    +0.000 A 
ATOM     12  C   UNL     1      -3.066  11.917  18.982  0.00  0.00    +0.000 A 
ATOM     13  C   UNL     1      -4.396  11.761  18.590  0.00  0.00    +0.000 A 
ATOM     14  C   UNL     1      -4.699  11.175  17.360  0.00  0.00    +0.000 A 
ATOM     15  C   UNL     1      -3.672  10.762  16.513  0.00  0.00    +0.000 A 
ATOM     16  C   UNL     1      -2.342  10.931  16.896  0.00  0.00    +0.000 A 
ENDBRANCH  10  11
ENDBRANCH   8  10
ENDBRANCH   2   5
BRANCH   1  17
ATOM     17  C   UNL     1       3.232   5.891  18.180  0.00  0.00    +0.000 C 
BRANCH  17  18
ATOM     18  C   UNL     1       2.561   4.548  18.473  0.00  0.00    +0.000 A 
ATOM     19  C   UNL     1       1.625   4.470  19.520  0.00  0.00    +0.000 A 
ATOM     20  C   UNL     1       0.928   3.288  19.773  0.00  0.00    +0.000 A 
ATOM     21  C   UNL     1       1.161   2.162  18.989  0.00  0.00    +0.000 A 
ATOM     22  C   UNL     1       2.092   2.215  17.955  0.00  0.00    +0.000 A 
ATOM     23  C   UNL     1       2.783   3.401  17.692  0.00  0.00    +0.000 A 
ENDBRANCH  17  18
BRANCH  17  27
ATOM     24  C   UNL     1       7.091   5.831  17.811  0.00  0.00    +0.000 C 
ATOM     25  N   UNL     1       5.689   6.033  17.482  0.00  0.00    +0.000 N 
ATOM     26  C   UNL     1       5.360   6.358  16.105  0.00  0.00    +0.000 C 
ATOM     27  C   UNL     1       4.763   5.854  18.513  0.00  0.00    +0.000 C 
ATOM     28  O   UNL     1       5.166   5.543  19.640  0.00  0.00    +0.000 OA
ENDBRANCH  17  27
ENDBRANCH   1  17
TORSDOF 6
ENDMDL
MODEL 2
REMARK VINA RESULT:      -8.1      1.809      3.681
REMARK  Name = 
REMARK  8 active torsions:
REMARK  status: ('A' for Active; 'I' for Inactive)
REMARK    1  A    between atoms: C_1  and  N_2
REMARK    2  A    between atoms: N_2  and  C_3
REMARK    3  A    between atoms: C_4  and  C_6
REMARK    4  A    between atoms: C_6  and  N_7
REMARK    5  A    between atoms: C_6  and  C_22
REMARK    6  A    between atoms: C_8  and  C_10
REMARK    7  A    between atoms: C_13  and  O_14
REMARK    8  A    between atoms: O_14  and  C_15
REMARK                            x       y       z     vdW  Elec       q    Type
REMARK                         _______ _______ _______ _____ _____    ______ ____
ROOT
ATOM      1  N   UNL     1       2.991   6.675  19.543  0.00  0.00    +0.000 N 
ATOM      2  C   UNL     1       1.969   6.733  20.470  0.00  0.00    +0.000 C 
ATOM      3  O   UNL     1       1.548   5.740  21.051  0.00  0.00    +0.000 OA
ATOM      4  H   UNL     1       3.322   7.547  19.152  0.00  0.00    +0.000 HD
ENDROOT
BRANCH   2   5
ATOM      5  C   UNL     1       1.425   8.058  20.666  0.00  0.00    +0.000 A 
ATOM      6  C   UNL     1       1.082   8.733  21.821  0.00  0.00    +0.000 A 
ATOM      7  C   UNL     1       0.565   9.989  21.418  0.00  0.00    +0.000 A 
ATOM      8  C   UNL     1       0.595   9.995  20.040  0.00  0.00    +0.000 A 
ATOM      9  O   UNL     1       1.154   8.843  19.575  0.00  0.00    +0.000 OA
BRANCH   8  10
ATOM     10  O   UNL     1       0.212  10.827  19.077  0.00  0.00    +0.000 OA
BRANCH  10  11
ATOM     11  C   UNL     1      -1.052  10.757  18.541  0.00  0.00    +0.000 A 
ATOM     12  C   UNL     1      -2.009  11.624  19.070  0.00  0.00    +0.000 A 
ATOM     13  C   UNL     1      -3.302  11.640  18.544  0.00  0.00    +0.000 A 
ATOM     14  C   UNL     1      -3.637  10.792  17.488  0.00  0.00    +0.000 A 
ATOM     15  C   UNL     1      -2.677   9.940  16.945  0.00  0.00    +0.000 A 
ATOM     16  C   UNL     1      -1.381   9.934  17.460  0.00  0.00    +0.000 A 
ENDBRANCH  10  11
ENDBRANCH   8  10
ENDBRANCH   2   5
BRANCH   1  17
ATOM     17  C   UNL     1       3.772   5.464  19.338  0.00  0.00    +0.000 C 
BRANCH  17  18
ATOM     18  C   UNL     1       5.135   5.785  18.720  0.00  0.00    +0.000 A 
ATOM     19  C   UNL     1       5.185   6.571  17.554  0.00  0.00    +0.000 A 
ATOM     20  C   UNL     1       6.406   6.957  17.001  0.00  0.00    +0.000 A 
ATOM     21  C   UNL     1       7.598   6.556  17.598  0.00  0.00    +0.000 A 
ATOM     22  C   UNL     1       7.570   5.768  18.746  0.00  0.00    +0.000 A 
ATOM     23  C   UNL     1       6.348   5.389  19.308  0.00  0.00    +0.000 A 
ENDBRANCH  17  18
BRANCH  17  27
ATOM     24  C   UNL     1       2.654   2.023  17.944  0.00  0.00    +0.000 C 
ATOM     25  N   UNL     1       3.251   3.012  18.828  0.00  0.00    +0.000 N 
ATOM     26  C   UNL     1       4.073   2.528  19.923  0.00  0.00    +0.000 C 
ATOM     27  C   UNL     1       3.019   4.356  18.524  0.00  0.00    +0.000 C 
ATOM     28  O   UNL     1       2.326   4.643  17.541  0.00  0.00    +0.000 OA
ENDBRANCH  17  27
ENDBRANCH   1  17
TORSDOF 6
ENDMDL
MODEL 3
REMARK VINA RESULT:      -8.0      0.478      1.096
REMARK  Name = 
REMARK  8 active torsions:
REMARK  status: ('A' for Active; 'I' for Inactive)
REMARK    1  A    between atoms: C_1  and  N_2
REMARK    2  A    between atoms: N_2  and  C_3
REMARK    3  A    between atoms: C_4  and  C_6
REMARK    4  A    between atoms: C_6  and  N_7
REMARK    5  A    between atoms: C_6  and  C_22
REMARK    6  A    between atoms: C_8  and  C_10
REMARK    7  A    between atoms: C_13  and  O_14
REMARK    8  A    between atoms: O_14  and  C_15
REMARK                            x       y       z     vdW  Elec       q    Type
REMARK                         _______ _______ _______ _____ _____    ______ ____
ROOT
ATOM      1  N   UNL     1       2.426   7.057  18.889  0.00  0.00    +0.000 N 
ATOM      2  C   UNL     1       2.178   8.284  18.305  0.00  0.00    +0.000 C 
ATOM      3  O   UNL     1       2.636   8.600  17.214  0.00  0.00    +0.000 OA
ATOM      4  H   UNL     1       1.962   6.850  19.763  0.00  0.00    +0.000 HD
ENDROOT
BRANCH   2   5
ATOM      5  C   UNL     1       1.360   9.165  19.108  0.00  0.00    +0.000 A 
ATOM      6  C   UNL     1       0.994   9.098  20.438  0.00  0.00    +0.000 A 
ATOM      7  C   UNL     1       0.154  10.210  20.685  0.00  0.00    +0.000 A 
ATOM      8  C   UNL     1       0.032  10.876  19.484  0.00  0.00    +0.000 A 
ATOM      9  O   UNL     1       0.794  10.272  18.530  0.00  0.00    +0.000 OA
BRANCH   8  10
ATOM     10  O   UNL     1      -0.640  11.932  19.038  0.00  0.00    +0.000 OA
BRANCH  10  11
ATOM     11  C   UNL     1      -2.000  11.878  18.846  0.00  0.00    +0.000 A 
ATOM     12  C   UNL     1      -2.801  12.410  19.858  0.00  0.00    +0.000 A 
ATOM     13  C   UNL     1      -4.188  12.430  19.711  0.00  0.00    +0.000 A 
ATOM     14  C   UNL     1      -4.776  11.921  18.552  0.00  0.00    +0.000 A 
ATOM     15  C   UNL     1      -3.977  11.409  17.531  0.00  0.00    +0.000 A 
ATOM     16  C   UNL     1      -2.589  11.402  17.671  0.00  0.00    +0.000 A 
ENDBRANCH  10  11
ENDBRANCH   8  10
ENDBRANCH   2   5
BRANCH   1  17
ATOM     17  C   UNL     1       3.085   5.981  18.163  0.00  0.00    +0.000 C 
BRANCH  17  18
ATOM     18  C   UNL     1       2.398   4.639  18.424  0.00  0.00    +0.000 A 
ATOM     19  C   UNL     1       2.735   3.536  17.617  0.00  0.00    +0.000 A 
ATOM     20  C   UNL     1       2.196   2.274  17.868  0.00  0.00    +0.000 A 
ATOM     21  C   UNL     1       1.306   2.094  18.923  0.00  0.00    +0.000 A 
ATOM     22  C   UNL     1       0.953   3.176  19.726  0.00  0.00    +0.000 A 
ATOM     23  C   UNL     1       1.499   4.439  19.484  0.00  0.00    +0.000 A 
ENDBRANCH  17  18
BRANCH  17  27
ATOM     24  C   UNL     1       6.921   5.864  17.610  0.00  0.00    +0.000 C 
ATOM     25  N   UNL     1       5.509   6.110  17.357  0.00  0.00    +0.000 N 
ATOM     26  C   UNL     1       5.124   6.510  16.016  0.00  0.00    +0.000 C 
ATOM     27  C   UNL     1       4.628   5.897  18.421  0.00  0.00    +0.000 C 
ATOM     28  O   UNL     1       5.076   5.522  19.511  0.00  0.00    +0.000 OA
ENDBRANCH  17  27
ENDBRANCH   1  17
TORSDOF 6
ENDMDL
MODEL 4
REMARK VINA RESULT:      -8.0      1.866      3.592
REMARK  Name = 
REMARK  8 active torsions:
REMARK  status: ('A' for Active; 'I' for Inactive)
REMARK    1  A    between atoms: C_1  and  N_2
REMARK    2  A    between atoms: N_2  and  C_3
REMARK    3  A    between atoms: C_4  and  C_6
REMARK    4  A    between atoms: C_6  and  N_7
REMARK    5  A    between atoms: C_6  and  C_22
REMARK    6  A    between atoms: C_8  and  C_10
REMARK    7  A    between atoms: C_13  and  O_14
REMARK    8  A    between atoms: O_14  and  C_15
REMARK                            x       y       z     vdW  Elec       q    Type
REMARK                         _______ _______ _______ _____ _____    ______ ____
ROOT
ATOM      1  N   UNL     1       2.385   6.492  18.959  0.00  0.00    +0.000 N 
ATOM      2  C   UNL     1       1.898   6.759  20.223  0.00  0.00    +0.000 C 
ATOM      3  O   UNL     1       1.814   5.901  21.093  0.00  0.00    +0.000 OA
ATOM      4  H   UNL     1       2.479   7.267  18.317  0.00  0.00    +0.000 HD
ENDROOT
BRANCH   2   5
ATOM      5  C   UNL     1       1.471   8.127  20.413  0.00  0.00    +0.000 A 
ATOM      6  C   UNL     1       1.333   8.880  21.563  0.00  0.00    +0.000 A 
ATOM      7  C   UNL     1       0.846  10.148  21.161  0.00  0.00    +0.000 A 
ATOM      8  C   UNL     1       0.688  10.085  19.793  0.00  0.00    +0.000 A 
ATOM      9  O   UNL     1       1.104   8.876  19.325  0.00  0.00    +0.000 OA
BRANCH   8  10
ATOM     10  O   UNL     1       0.231  10.895  18.844  0.00  0.00    +0.000 OA
BRANCH  10  11
ATOM     11  C   UNL     1      -1.071  10.812  18.408  0.00  0.00    +0.000 A 
ATOM     12  C   UNL     1      -1.984  11.698  18.980  0.00  0.00    +0.000 A 
ATOM     13  C   UNL     1      -3.313  11.701  18.554  0.00  0.00    +0.000 A 
ATOM     14  C   UNL     1      -3.728  10.821  17.553  0.00  0.00    +0.000 A 
ATOM     15  C   UNL     1      -2.812   9.950  16.965  0.00  0.00    +0.000 A 
ATOM     16  C   UNL     1      -1.481   9.956  17.380  0.00  0.00    +0.000 A 
ENDBRANCH  10  11
ENDBRANCH   8  10
ENDBRANCH   2   5
BRANCH   1  17
ATOM     17  C   UNL     1       3.016   5.220  18.633  0.00  0.00    +0.000 C 
BRANCH  17  18
ATOM     18  C   UNL     1       3.985   5.370  17.459  0.00  0.00    +0.000 A 
ATOM     19  C   UNL     1       4.470   4.211  16.826  0.00  0.00    +0.000 A 
ATOM     20  C   UNL     1       5.291   4.299  15.701  0.00  0.00    +0.000 A 
ATOM     21  C   UNL     1       5.649   5.545  15.196  0.00  0.00    +0.000 A 
ATOM     22  C   UNL     1       5.188   6.705  15.815  0.00  0.00    +0.000 A 
ATOM     23  C   UNL     1       4.356   6.620  16.935  0.00  0.00    +0.000 A 
ENDBRANCH  17  18
BRANCH  17  27
ATOM     24  C   UNL     1       1.232   1.782  18.802  0.00  0.00    +0.000 C 
ATOM     25  N   UNL     1       2.093   2.896  19.170  0.00  0.00    +0.000 N 
ATOM     26  C   UNL     1       3.009   2.702  20.279  0.00  0.00    +0.000 C 
ATOM     27  C   UNL     1       1.998   4.053  18.392  0.00  0.00    +0.000 C 
ATOM     28  O   UNL     1       1.199   4.084  17.449  0.00  0.00    +0.000 OA
ENDBRANCH  17  27
ENDBRANCH   1  17
TORSDOF 6
ENDMDL
MODEL 5
REMARK VINA RESULT:      -8.0      1.889      3.649
REMARK  Name = 
REMARK  8 active torsions:
REMARK  status: ('A' for Active; 'I' for Inactive)
REMARK    1  A    between atoms: C_1  and  N_2
REMARK    2  A    between atoms: N_2  and  C_3
REMARK    3  A    between atoms: C_4  and  C_6
REMARK    4  A    between atoms: C_6  and  N_7
REMARK    5  A    between atoms: C_6  and  C_22
REMARK    6  A    between atoms: C_8  and  C_10
REMARK    7  A    between atoms: C_13  and  O_14
REMARK    8  A    between atoms: O_14  and  C_15
REMARK                            x       y       z     vdW  Elec       q    Type
REMARK                         _______ _______ _______ _____ _____    ______ ____
ROOT
ATOM      1  N   UNL     1       2.432   6.414  18.926  0.00  0.00    +0.000 N 
ATOM      2  C   UNL     1       1.949   6.694  20.190  0.00  0.00    +0.000 C 
ATOM      3  O   UNL     1       1.878   5.847  21.072  0.00  0.00    +0.000 OA
ATOM      4  H   UNL     1       2.514   7.181  18.273  0.00  0.00    +0.000 HD
ENDROOT
BRANCH   2   5
ATOM      5  C   UNL     1       1.509   8.060  20.363  0.00  0.00    +0.000 A 
ATOM      6  C   UNL     1       1.316   8.810  21.507  0.00  0.00    +0.000 A 
ATOM      7  C   UNL     1       0.844  10.077  21.086  0.00  0.00    +0.000 A 
ATOM      8  C   UNL     1       0.749  10.017  19.712  0.00  0.00    +0.000 A 
ATOM      9  O   UNL     1       1.189   8.810  19.261  0.00  0.00    +0.000 OA
BRANCH   8  10
ATOM     10  O   UNL     1       0.332  10.827  18.745  0.00  0.00    +0.000 OA
BRANCH  10  11
ATOM     11  C   UNL     1      -0.996  10.883  18.390  0.00  0.00    +0.000 A 
ATOM     12  C   UNL     1      -1.428   9.974  17.424  0.00  0.00    +0.000 A 
ATOM     13  C   UNL     1      -2.771   9.944  17.047  0.00  0.00    +0.000 A 
ATOM     14  C   UNL     1      -3.683  10.819  17.638  0.00  0.00    +0.000 A 
ATOM     15  C   UNL     1      -3.257  11.713  18.619  0.00  0.00    +0.000 A 
ATOM     16  C   UNL     1      -1.918  11.734  19.007  0.00  0.00    +0.000 A 
ENDBRANCH  10  11
ENDBRANCH   8  10
ENDBRANCH   2   5
BRANCH   1  17
ATOM     17  C   UNL     1       3.073   5.145  18.615  0.00  0.00    +0.000 C 
BRANCH  17  18
ATOM     18  C   UNL     1       3.970   5.268  17.381  0.00  0.00    +0.000 A 
ATOM     19  C   UNL     1       4.367   6.549  16.955  0.00  0.00    +0.000 A 
ATOM     20  C   UNL     1       5.249   6.708  15.885  0.00  0.00    +0.000 A 
ATOM     21  C   UNL     1       5.742   5.590  15.219  0.00  0.00    +0.000 A 
ATOM     22  C   UNL     1       5.353   4.314  15.619  0.00  0.00    +0.000 A 
ATOM     23  C   UNL     1       4.479   4.151  16.697  0.00  0.00    +0.000 A 
ENDBRANCH  17  18
BRANCH  17  27
ATOM     24  C   UNL     1       1.396   1.671  19.008  0.00  0.00    +0.000 C 
ATOM     25  N   UNL     1       2.250   2.817  19.282  0.00  0.00    +0.000 N 
ATOM     26  C   UNL     1       3.245   2.680  20.330  0.00  0.00    +0.000 C 
ATOM     27  C   UNL     1       2.072   3.946  18.479  0.00  0.00    +0.000 C 
ATOM     28  O   UNL     1       1.211   3.929  17.593  0.00  0.00    +0.000 OA
ENDBRANCH  17  27
ENDBRANCH   1  17
TORSDOF 6
ENDMDL
MODEL 6
REMARK VINA RESULT:      -7.9      2.212      8.256
REMARK  Name = 
REMARK  8 active torsions:
REMARK  status: ('A' for Active; 'I' for Inactive)
REMARK    1  A    between atoms: C_1  and  N_2
REMARK    2  A    between atoms: N_2  and  C_3
REMARK    3  A    between atoms: C_4  and  C_6
REMARK    4  A    between atoms: C_6  and  N_7
REMARK    5  A    between atoms: C_6  and  C_22
REMARK    6  A    between atoms: C_8  and  C_10
REMARK    7  A    between atoms: C_13  and  O_14
REMARK    8  A    between atoms: O_14  and  C_15
REMARK                            x       y       z     vdW  Elec       q    Type
REMARK                         _______ _______ _______ _____ _____    ______ ____
ROOT
ATOM      1  N   UNL     1       0.073  10.159  18.564  0.00  0.00    +0.000 N 
ATOM      2  C   UNL     1       0.845   9.521  19.514  0.00  0.00    +0.000 C 
ATOM      3  O   UNL     1       0.723   9.732  20.715  0.00  0.00    +0.000 OA
ATOM      4  H   UNL     1       0.193   9.885  17.599  0.00  0.00    +0.000 HD
ENDROOT
BRANCH   2   5
ATOM      5  C   UNL     1       1.824   8.610  18.964  0.00  0.00    +0.000 A 
ATOM      6  C   UNL     1       2.505   8.632  17.763  0.00  0.00    +0.000 A 
ATOM      7  C   UNL     1       3.314   7.471  17.734  0.00  0.00    +0.000 A 
ATOM      8  C   UNL     1       3.057   6.792  18.907  0.00  0.00    +0.000 A 
ATOM      9  O   UNL     1       2.185   7.497  19.678  0.00  0.00    +0.000 OA
BRANCH   8  10
ATOM     10  O   UNL     1       3.438   5.640  19.449  0.00  0.00    +0.000 OA
BRANCH  10  11
ATOM     11  C   UNL     1       2.551   4.601  19.602  0.00  0.00    +0.000 A 
ATOM     12  C   UNL     1       2.080   3.999  18.434  0.00  0.00    +0.000 A 
ATOM     13  C   UNL     1       1.212   2.909  18.513  0.00  0.00    +0.000 A 
ATOM     14  C   UNL     1       0.817   2.419  19.759  0.00  0.00    +0.000 A 
ATOM     15  C   UNL     1       1.303   3.005  20.925  0.00  0.00    +0.000 A 
ATOM     16  C   UNL     1       2.182   4.085  20.848  0.00  0.00    +0.000 A 
ENDBRANCH  10  11
ENDBRANCH   8  10
ENDBRANCH   2   5
BRANCH   1  17
ATOM     17  C   UNL     1      -1.072  10.980  18.932  0.00  0.00    +0.000 C 
BRANCH  17  18
ATOM     18  C   UNL     1      -2.163  10.917  17.860  0.00  0.00    +0.000 A 
ATOM     19  C   UNL     1      -2.006  10.026  16.783  0.00  0.00    +0.000 A 
ATOM     20  C   UNL     1      -3.010   9.874  15.826  0.00  0.00    +0.000 A 
ATOM     21  C   UNL     1      -4.184  10.616  15.925  0.00  0.00    +0.000 A 
ATOM     22  C   UNL     1      -4.353  11.511  16.978  0.00  0.00    +0.000 A 
ATOM     23  C   UNL     1      -3.354  11.657  17.944  0.00  0.00    +0.000 A 
ENDBRANCH  17  18
BRANCH  17  27
ATOM     24  C   UNL     1      -0.859  14.402  20.743  0.00  0.00    +0.000 C 
ATOM     25  N   UNL     1      -1.085  12.981  20.526  0.00  0.00    +0.000 N 
ATOM     26  C   UNL     1      -1.729  12.230  21.588  0.00  0.00    +0.000 C 
ATOM     27  C   UNL     1      -0.701  12.461  19.286  0.00  0.00    +0.000 C 
ATOM     28  O   UNL     1      -0.191  13.212  18.447  0.00  0.00    +0.000 OA
ENDBRANCH  17  27
ENDBRANCH   1  17
TORSDOF 6
ENDMDL
MODEL 7
REMARK VINA RESULT:      -7.9      2.251      8.213
REMARK  Name = 
REMARK  8 active torsions:
REMARK  status: ('A' for Active; 'I' for Inactive)
REMARK    1  A    between atoms: C_1  and  N_2
REMARK    2  A    between atoms: N_2  and  C_3
REMARK    3  A    between atoms: C_4  and  C_6
REMARK    4  A    between atoms: C_6  and  N_7
REMARK    5  A    between atoms: C_6  and  C_22
REMARK    6  A    between atoms: C_8  and  C_10
REMARK    7  A    between atoms: C_13  and  O_14
REMARK    8  A    between atoms: O_14  and  C_15
REMARK                            x       y       z     vdW  Elec       q    Type
REMARK                         _______ _______ _______ _____ _____    ______ ____
ROOT
ATOM      1  N   UNL     1      -0.051  10.162  18.483  0.00  0.00    +0.000 N 
ATOM      2  C   UNL     1       0.769   9.642  19.466  0.00  0.00    +0.000 C 
ATOM      3  O   UNL     1       0.685   9.976  20.641  0.00  0.00    +0.000 OA
ATOM      4  H   UNL     1       0.042   9.791  17.548  0.00  0.00    +0.000 HD
ENDROOT
BRANCH   2   5
ATOM      5  C   UNL     1       1.749   8.698  18.977  0.00  0.00    +0.000 A 
ATOM      6  C   UNL     1       2.422   8.635  17.773  0.00  0.00    +0.000 A 
ATOM      7  C   UNL     1       3.237   7.478  17.825  0.00  0.00    +0.000 A 
ATOM      8  C   UNL     1       2.992   6.887  19.046  0.00  0.00    +0.000 A 
ATOM      9  O   UNL     1       2.121   7.643  19.769  0.00  0.00    +0.000 OA
BRANCH   8  10
ATOM     10  O   UNL     1       3.383   5.780  19.669  0.00  0.00    +0.000 OA
BRANCH  10  11
ATOM     11  C   UNL     1       2.585   4.661  19.694  0.00  0.00    +0.000 A 
ATOM     12  C   UNL     1       2.212   4.181  20.950  0.00  0.00    +0.000 A 
ATOM     13  C   UNL     1       1.366   3.076  21.050  0.00  0.00    +0.000 A 
ATOM     14  C   UNL     1       0.891   2.452  19.896  0.00  0.00    +0.000 A 
ATOM     15  C   UNL     1       1.246   2.942  18.641  0.00  0.00    +0.000 A 
ATOM     16  C   UNL     1       2.079   4.056  18.539  0.00  0.00    +0.000 A 
ENDBRANCH  10  11
ENDBRANCH   8  10
ENDBRANCH   2   5
BRANCH   1  17
ATOM     17  C   UNL     1      -1.201  10.994  18.806  0.00  0.00    +0.000 C 
BRANCH  17  18
ATOM     18  C   UNL     1      -2.289  10.870  17.737  0.00  0.00    +0.000 A 
ATOM     19  C   UNL     1      -3.478  11.607  17.888  0.00  0.00    +0.000 A 
ATOM     20  C   UNL     1      -4.463  11.589  16.901  0.00  0.00    +0.000 A 
ATOM     21  C   UNL     1      -4.281  10.828  15.750  0.00  0.00    +0.000 A 
ATOM     22  C   UNL     1      -3.116  10.083  15.586  0.00  0.00    +0.000 A 
ATOM     23  C   UNL     1      -2.122  10.108  16.569  0.00  0.00    +0.000 A 
ENDBRANCH  17  18
BRANCH  17  27
ATOM     24  C   UNL     1      -0.959  14.486  20.473  0.00  0.00    +0.000 C 
ATOM     25  N   UNL     1      -1.170  13.055  20.321  0.00  0.00    +0.000 N 
ATOM     26  C   UNL     1      -1.748  12.336  21.442  0.00  0.00    +0.000 C 
ATOM     27  C   UNL     1      -0.838  12.493  19.085  0.00  0.00    +0.000 C 
ATOM     28  O   UNL     1      -0.384  13.219  18.194  0.00  0.00    +0.000 OA
ENDBRANCH  17  27
ENDBRANCH   1  17
TORSDOF 6
ENDMDL
MODEL 8
REMARK VINA RESULT:      -7.9      1.786      3.734
REMARK  Name = 
REMARK  8 active torsions:
REMARK  status: ('A' for Active; 'I' for Inactive)
REMARK    1  A    between atoms: C_1  and  N_2
REMARK    2  A    between atoms: N_2  and  C_3
REMARK    3  A    between atoms: C_4  and  C_6
REMARK    4  A    between atoms: C_6  and  N_7
REMARK    5  A    between atoms: C_6  and  C_22
REMARK    6  A    between atoms: C_8  and  C_10
REMARK    7  A    between atoms: C_13  and  O_14
REMARK    8  A    between atoms: O_14  and  C_15
REMARK                            x       y       z     vdW  Elec       q    Type
REMARK                         _______ _______ _______ _____ _____    ______ ____
ROOT
ATOM      1  N   UNL     1       2.846   6.712  19.508  0.00  0.00    +0.000 N 
ATOM      2  C   UNL     1       1.866   6.795  20.478  0.00  0.00    +0.000 C 
ATOM      3  O   UNL     1       1.483   5.820  21.113  0.00  0.00    +0.000 OA
ATOM      4  H   UNL     1       3.149   7.572  19.071  0.00  0.00    +0.000 HD
ENDROOT
BRANCH   2   5
ATOM      5  C   UNL     1       1.319   8.121  20.652  0.00  0.00    +0.000 A 
ATOM      6  C   UNL     1       0.938   8.801  21.793  0.00  0.00    +0.000 A 
ATOM      7  C   UNL     1       0.438  10.056  21.369  0.00  0.00    +0.000 A 
ATOM      8  C   UNL     1       0.516  10.058  19.993  0.00  0.00    +0.000 A 
ATOM      9  O   UNL     1       1.087   8.904  19.551  0.00  0.00    +0.000 OA
BRANCH   8  10
ATOM     10  O   UNL     1       0.168  10.889  19.015  0.00  0.00    +0.000 OA
BRANCH  10  11
ATOM     11  C   UNL     1      -1.115  10.905  18.521  0.00  0.00    +0.000 A 
ATOM     12  C   UNL     1      -1.402  10.013  17.487  0.00  0.00    +0.000 A 
ATOM     13  C   UNL     1      -2.695   9.942  16.967  0.00  0.00    +0.000 A 
ATOM     14  C   UNL     1      -3.702  10.760  17.483  0.00  0.00    +0.000 A 
ATOM     15  C   UNL     1      -3.422  11.636  18.530  0.00  0.00    +0.000 A 
ATOM     16  C   UNL     1      -2.134  11.697  19.060  0.00  0.00    +0.000 A 
ENDBRANCH  10  11
ENDBRANCH   8  10
ENDBRANCH   2   5
BRANCH   1  17
ATOM     17  C   UNL     1       3.629   5.501  19.310  0.00  0.00    +0.000 C 
BRANCH  17  18
ATOM     18  C   UNL     1       4.961   5.811  18.625  0.00  0.00    +0.000 A 
ATOM     19  C   UNL     1       6.143   5.267  19.159  0.00  0.00    +0.000 A 
ATOM     20  C   UNL     1       7.371   5.455  18.524  0.00  0.00    +0.000 A 
ATOM     21  C   UNL     1       7.439   6.197  17.348  0.00  0.00    +0.000 A 
ATOM     22  C   UNL     1       6.282   6.752  16.809  0.00  0.00    +0.000 A 
ATOM     23  C   UNL     1       5.049   6.557  17.437  0.00  0.00    +0.000 A 
ENDBRANCH  17  18
BRANCH  17  27
ATOM     24  C   UNL     1       2.394   2.004  18.176  0.00  0.00    +0.000 C 
ATOM     25  N   UNL     1       3.007   3.040  18.994  0.00  0.00    +0.000 N 
ATOM     26  C   UNL     1       3.765   2.618  20.158  0.00  0.00    +0.000 C 
ATOM     27  C   UNL     1       2.852   4.361  18.566  0.00  0.00    +0.000 C 
ATOM     28  O   UNL     1       2.209   4.591  17.535  0.00  0.00    +0.000 OA
ENDBRANCH  17  27
ENDBRANCH   1  17
TORSDOF 6
ENDMDL
MODEL 9
REMARK VINA RESULT:      -7.9      1.962      2.598
REMARK  Name = 
REMARK  8 active torsions:
REMARK  status: ('A' for Active; 'I' for Inactive)
REMARK    1  A    between atoms: C_1  and  N_2
REMARK    2  A    between atoms: N_2  and  C_3
REMARK    3  A    between atoms: C_4  and  C_6
REMARK    4  A    between atoms: C_6  and  N_7
REMARK    5  A    between atoms: C_6  and  C_22
REMARK    6  A    between atoms: C_8  and  C_10
REMARK    7  A    between atoms: C_13  and  O_14
REMARK    8  A    between atoms: O_14  and  C_15
REMARK                            x       y       z     vdW  Elec       q    Type
REMARK                         _______ _______ _______ _____ _____    ______ ____
ROOT
ATOM      1  N   UNL     1       2.655   6.857  19.719  0.00  0.00    +0.000 N 
ATOM      2  C   UNL     1       1.963   8.008  19.399  0.00  0.00    +0.000 C 
ATOM      3  O   UNL     1       1.882   8.432  18.253  0.00  0.00    +0.000 OA
ATOM      4  H   UNL     1       2.624   6.540  20.678  0.00  0.00    +0.000 HD
ENDROOT
BRANCH   2   5
ATOM      5  C   UNL     1       1.373   8.677  20.536  0.00  0.00    +0.000 A 
ATOM      6  C   UNL     1       0.963   8.188  21.761  0.00  0.00    +0.000 A 
ATOM      7  C   UNL     1       0.427   9.285  22.477  0.00  0.00    +0.000 A 
ATOM      8  C   UNL     1       0.514  10.374  21.637  0.00  0.00    +0.000 A 
ATOM      9  O   UNL     1       1.124  10.024  20.472  0.00  0.00    +0.000 OA
BRANCH   8  10
ATOM     10  O   UNL     1       0.146  11.651  21.683  0.00  0.00    +0.000 OA
BRANCH  10  11
ATOM     11  C   UNL     1      -1.181  12.004  21.752  0.00  0.00    +0.000 A 
ATOM     12  C   UNL     1      -1.754  12.052  23.023  0.00  0.00    +0.000 A 
ATOM     13  C   UNL     1      -3.084  12.446  23.174  0.00  0.00    +0.000 A 
ATOM     14  C   UNL     1      -3.840  12.797  22.055  0.00  0.00    +0.000 A 
ATOM     15  C   UNL     1      -3.263  12.771  20.787  0.00  0.00    +0.000 A 
ATOM     16  C   UNL     1      -1.930  12.391  20.636  0.00  0.00    +0.000 A 
ENDBRANCH  10  11
ENDBRANCH   8  10
ENDBRANCH   2   5
BRANCH   1  17
ATOM     17  C   UNL     1       3.171   5.962  18.693  0.00  0.00    +0.000 C 
BRANCH  17  18
ATOM     18  C   UNL     1       2.444   4.616  18.719  0.00  0.00    +0.000 A 
ATOM     19  C   UNL     1       2.788   3.639  17.767  0.00  0.00    +0.000 A 
ATOM     20  C   UNL     1       2.211   2.369  17.802  0.00  0.00    +0.000 A 
ATOM     21  C   UNL     1       1.274   2.057  18.783  0.00  0.00    +0.000 A 
ATOM     22  C   UNL     1       0.912   3.014  19.728  0.00  0.00    +0.000 A 
ATOM     23  C   UNL     1       1.497   4.283  19.702  0.00  0.00    +0.000 A 
ENDBRANCH  17  18
BRANCH  17  27
ATOM     24  C   UNL     1       6.895   5.719  17.641  0.00  0.00    +0.000 C 
ATOM     25  N   UNL     1       5.481   6.059  17.598  0.00  0.00    +0.000 N 
ATOM     26  C   UNL     1       4.959   6.619  16.365  0.00  0.00    +0.000 C 
ATOM     27  C   UNL     1       4.727   5.775  18.740  0.00  0.00    +0.000 C 
ATOM     28  O   UNL     1       5.281   5.264  19.720  0.00  0.00    +0.000 OA
ENDBRANCH  17  27
ENDBRANCH   1  17
TORSDOF 6
ENDMDL
