MODEL 1
REMARK VINA RESULT:      -8.5      0.000      0.000
REMARK  Name = 
REMARK  7 active torsions:
REMARK  status: ('A' for Active; 'I' for Inactive)
REMARK    1  A    between atoms: C_2  and  C_3
REMARK    2  A    between atoms: C_3  and  N_4
REMARK    3  A    between atoms: N_4  and  C_5
REMARK    4  A    between atoms: C_12  and  C_13
REMARK    5  A    between atoms: N_19  and  C_20
REMARK    6  A    between atoms: N_22  and  C_23
REMARK    7  A    between atoms: C_26  and  N_27
REMARK                            x       y       z     vdW  Elec       q    Type
REMARK                         _______ _______ _______ _____ _____    ______ ____
ROOT
ATOM      1  O   UNL     1       7.164   7.779  17.420  0.00  0.00    +0.000 OA
ATOM      2  C   UNL     1       7.918   7.382  18.308  0.00  0.00    +0.000 C 
ATOM      3  N   UNL     1       8.660   8.237  19.100  0.00  0.00    +0.000 N 
ATOM      4  H   UNL     1       9.404   7.795  19.635  0.00  0.00    +0.000 HD
ENDROOT
BRANCH   3   5
ATOM      5  C   UNL     1       8.696   9.703  18.846  0.00  0.00    +0.000 C 
ATOM      6  C   UNL     1       9.342  10.576  19.936  0.00  0.00    +0.000 C 
ATOM      7  N   UNL     1      10.117  11.327  18.901  0.00  0.00    +0.000 NA
ATOM      8  C   UNL     1       9.847  10.203  17.954  0.00  0.00    +0.000 C 
BRANCH   7   9
ATOM      9  C   UNL     1       9.421  12.571  18.467  0.00  0.00    +0.000 C 
ATOM     10  C   UNL     1       9.172  13.542  19.649  0.00  0.00    +0.000 C 
ATOM     11  C   UNL     1      10.377  14.360  20.099  0.00  0.00    +0.000 C 
ATOM     12  C   UNL     1      11.126  15.061  18.967  0.00  0.00    +0.000 C 
ATOM     13  C   UNL     1      11.421  14.108  17.807  0.00  0.00    +0.000 C 
ATOM     14  C   UNL     1      10.226  13.276  17.344  0.00  0.00    +0.000 C 
BRANCH  12  15
ATOM     15  N   UNL     1      10.522  16.339  18.551  0.00  0.00    +0.000 N 
ATOM     16  C   UNL     1       9.146  16.638  18.880  0.00  0.00    +0.000 C 
ATOM     17  C   UNL     1       8.836  17.872  18.058  0.00  0.00    +0.000 C 
ATOM     18  C   UNL     1      10.167  18.594  18.011  0.00  0.00    +0.000 C 
ATOM     19  C   UNL     1      11.154  17.455  18.005  0.00  0.00    +0.000 C 
ATOM     20  O   UNL     1      12.307  17.572  17.630  0.00  0.00    +0.000 OA
ENDBRANCH  12  15
ENDBRANCH   7   9
ENDBRANCH   3   5
BRANCH   2  21
ATOM     21  C   UNL     1       8.122   5.881  18.582  0.00  0.00    +0.000 C 
BRANCH  21  22
ATOM     22  N   UNL     1       6.872   5.211  18.993  0.00  0.00    +0.000 N 
ATOM     23  H   UNL     1       6.323   5.816  19.603  0.00  0.00    +0.000 HD
BRANCH  22  24
ATOM     24  C   UNL     1       6.067   4.709  17.953  0.00  0.00    +0.000 A 
ATOM     25  N   UNL     1       6.683   4.358  16.805  0.00  0.00    +0.000 NA
ATOM     26  C   UNL     1       5.909   3.857  15.840  0.00  0.00    +0.000 A 
ATOM     27  N   UNL     1       4.588   3.704  15.887  0.00  0.00    +0.000 NA
ATOM     28  C   UNL     1       3.985   4.040  17.024  0.00  0.00    +0.000 A 
ATOM     29  C   UNL     1       2.611   3.863  17.092  0.00  0.00    +0.000 A 
ATOM     30  C   UNL     1       1.881   4.136  18.249  0.00  0.00    +0.000 A 
ATOM     31  C   UNL     1       2.532   4.592  19.398  0.00  0.00    +0.000 A 
ATOM     32  C   UNL     1       3.925   4.799  19.335  0.00  0.00    +0.000 A 
ATOM     33  C   UNL     1       4.670   4.540  18.144  0.00  0.00    +0.000 A 
BRANCH  31  34
ATOM     34  C   UNL     1       1.747   4.832  20.668  0.00  0.00    +0.000 C 
ATOM     35  F   UNL     1       1.535   6.154  20.933  0.00  0.00    +0.000 F 
ATOM     36  F   UNL     1       0.512   4.259  20.632  0.00  0.00    +0.000 F 
ATOM     37  F   UNL     1       2.367   4.327  21.769  0.00  0.00    +0.000 F 
ENDBRANCH  31  34
ENDBRANCH  22  24
ENDBRANCH  21  22
ENDBRANCH   2  21
TORSDOF 7
ENDMDL
MODEL 2
REMARK VINA RESULT:      -8.5      7.493      9.288
REMARK  Name = 
REMARK  7 active torsions:
REMARK  status: ('A' for Active; 'I' for Inactive)
REMARK    1  A    between atoms: C_2  and  C_3
REMARK    2  A    between atoms: C_3  and  N_4
REMARK    3  A    between atoms: N_4  and  C_5
REMARK    4  A    between atoms: C_12  and  C_13
REMARK    5  A    between atoms: N_19  and  C_20
REMARK    6  A    between atoms: N_22  and  C_23
REMARK    7  A    between atoms: C_26  and  N_27
REMARK                            x       y       z     vdW  Elec       q    Type
REMARK                         _______ _______ _______ _____ _____    ______ ____
ROOT
ATOM      1  O   UNL     1       1.253   3.669  18.881  0.00  0.00    +0.000 OA
ATOM      2  C   UNL     1       2.424   3.949  19.134  0.00  0.00    +0.000 C 
ATOM      3  N   UNL     1       2.815   5.192  19.595  0.00  0.00    +0.000 N 
ATOM      4  H   UNL     1       3.815   5.374  19.552  0.00  0.00    +0.000 HD
ENDROOT
BRANCH   3   5
ATOM      5  C   UNL     1       1.855   6.325  19.695  0.00  0.00    +0.000 C 
ATOM      6  C   UNL     1       1.764   7.033  21.059  0.00  0.00    +0.000 C 
ATOM      7  N   UNL     1       1.822   8.369  20.389  0.00  0.00    +0.000 NA
ATOM      8  C   UNL     1       2.363   7.683  19.176  0.00  0.00    +0.000 C 
BRANCH   7   9
ATOM      9  C   UNL     1       0.466   8.928  20.128  0.00  0.00    +0.000 C 
ATOM     10  C   UNL     1      -0.418   8.931  21.401  0.00  0.00    +0.000 C 
ATOM     11  C   UNL     1      -0.138  10.049  22.399  0.00  0.00    +0.000 C 
ATOM     12  C   UNL     1      -0.065  11.445  21.783  0.00  0.00    +0.000 C 
ATOM     13  C   UNL     1       0.839  11.473  20.549  0.00  0.00    +0.000 C 
ATOM     14  C   UNL     1       0.576  10.358  19.538  0.00  0.00    +0.000 C 
BRANCH  12  15
ATOM     15  N   UNL     1      -1.379  12.077  21.575  0.00  0.00    +0.000 N 
ATOM     16  C   UNL     1      -1.756  12.567  20.266  0.00  0.00    +0.000 C 
ATOM     17  C   UNL     1      -3.013  13.370  20.526  0.00  0.00    +0.000 C 
ATOM     18  C   UNL     1      -3.656  12.632  21.683  0.00  0.00    +0.000 C 
ATOM     19  C   UNL     1      -2.461  12.129  22.452  0.00  0.00    +0.000 C 
ATOM     20  O   UNL     1      -2.514  11.787  23.619  0.00  0.00    +0.000 OA
ENDBRANCH  12  15
ENDBRANCH   7   9
ENDBRANCH   3   5
BRANCH   2  21
ATOM     21  C   UNL     1       3.561   2.935  18.918  0.00  0.00    +0.000 C 
BRANCH  21  22
ATOM     22  N   UNL     1       4.165   3.047  17.574  0.00  0.00    +0.000 N 
ATOM     23  H   UNL     1       3.465   3.325  16.887  0.00  0.00    +0.000 HD
BRANCH  22  24
ATOM     24  C   UNL     1       5.301   3.871  17.473  0.00  0.00    +0.000 A 
ATOM     25  N   UNL     1       5.830   4.345  18.620  0.00  0.00    +0.000 NA
ATOM     26  C   UNL     1       6.923   5.102  18.507  0.00  0.00    +0.000 A 
ATOM     27  N   UNL     1       7.520   5.462  17.374  0.00  0.00    +0.000 NA
ATOM     28  C   UNL     1       7.004   4.984  16.245  0.00  0.00    +0.000 A 
ATOM     29  C   UNL     1       7.632   5.335  15.059  0.00  0.00    +0.000 A 
ATOM     30  C   UNL     1       7.208   4.854  13.821  0.00  0.00    +0.000 A 
ATOM     31  C   UNL     1       6.123   3.977  13.743  0.00  0.00    +0.000 A 
ATOM     32  C   UNL     1       5.460   3.631  14.938  0.00  0.00    +0.000 A 
ATOM     33  C   UNL     1       5.881   4.141  16.205  0.00  0.00    +0.000 A 
BRANCH  31  34
ATOM     34  C   UNL     1       5.701   3.412  12.405  0.00  0.00    +0.000 C 
ATOM     35  F   UNL     1       6.444   3.878  11.360  0.00  0.00    +0.000 F 
ATOM     36  F   UNL     1       5.807   2.055  12.358  0.00  0.00    +0.000 F 
ATOM     37  F   UNL     1       4.407   3.702  12.100  0.00  0.00    +0.000 F 
ENDBRANCH  31  34
ENDBRANCH  22  24
ENDBRANCH  21  22
ENDBRANCH   2  21
TORSDOF 7
ENDMDL
MODEL 3
REMARK VINA RESULT:      -8.3      8.088     10.255
REMARK  Name = 
REMARK  7 active torsions:
REMARK  status: ('A' for Active; 'I' for Inactive)
REMARK    1  A    between atoms: C_2  and  C_3
REMARK    2  A    between atoms: C_3  and  N_4
REMARK    3  A    between atoms: N_4  and  C_5
REMARK    4  A    between atoms: C_12  and  C_13
REMARK    5  A    between atoms: N_19  and  C_20
REMARK    6  A    between atoms: N_22  and  C_23
REMARK    7  A    between atoms: C_26  and  N_27
REMARK                            x       y       z     vdW  Elec       q    Type
REMARK                         _______ _______ _______ _____ _____    ______ ____
ROOT
ATOM      1  O   UNL     1      -0.072   9.716  17.751  0.00  0.00    +0.000 OA
ATOM      2  C   UNL     1       0.991   9.801  18.364  0.00  0.00    +0.000 C 
ATOM      3  N   UNL     1       1.140  10.566  19.506  0.00  0.00    +0.000 N 
ATOM      4  H   UNL     1       2.102  10.738  19.789  0.00  0.00    +0.000 HD
ENDROOT
BRANCH   3   5
ATOM      5  C   UNL     1       0.049  11.449  20.000  0.00  0.00    +0.000 C 
ATOM      6  C   UNL     1      -0.385  11.253  21.464  0.00  0.00    +0.000 C 
ATOM      7  N   UNL     1      -0.363  12.732  21.688  0.00  0.00    +0.000 NA
ATOM      8  C   UNL     1       0.478  12.855  20.458  0.00  0.00    +0.000 C 
BRANCH   7   9
ATOM      9  C   UNL     1      -1.702  13.353  21.485  0.00  0.00    +0.000 C 
ATOM     10  C   UNL     1      -2.855  12.396  21.881  0.00  0.00    +0.000 C 
ATOM     11  C   UNL     1      -3.127  12.271  23.375  0.00  0.00    +0.000 C 
ATOM     12  C   UNL     1      -3.249  13.604  24.112  0.00  0.00    +0.000 C 
ATOM     13  C   UNL     1      -2.096  14.548  23.768  0.00  0.00    +0.000 C 
ATOM     14  C   UNL     1      -1.805  14.684  22.274  0.00  0.00    +0.000 C 
BRANCH  12  15
ATOM     15  N   UNL     1      -4.581  14.226  24.008  0.00  0.00    +0.000 N 
ATOM     16  C   UNL     1      -4.708  15.658  23.845  0.00  0.00    +0.000 C 
ATOM     17  C   UNL     1      -6.184  15.918  24.058  0.00  0.00    +0.000 C 
ATOM     18  C   UNL     1      -6.834  14.660  23.520  0.00  0.00    +0.000 C 
ATOM     19  C   UNL     1      -5.816  13.600  23.857  0.00  0.00    +0.000 C 
ATOM     20  O   UNL     1      -6.082  12.412  23.912  0.00  0.00    +0.000 OA
ENDBRANCH  12  15
ENDBRANCH   7   9
ENDBRANCH   3   5
BRANCH   2  21
ATOM     21  C   UNL     1       2.263   9.081  17.879  0.00  0.00    +0.000 C 
BRANCH  21  22
ATOM     22  N   UNL     1       2.354   7.698  18.392  0.00  0.00    +0.000 N 
ATOM     23  H   UNL     1       1.441   7.246  18.372  0.00  0.00    +0.000 HD
BRANCH  22  24
ATOM     24  C   UNL     1       3.318   6.874  17.781  0.00  0.00    +0.000 A 
ATOM     25  N   UNL     1       4.361   7.480  17.177  0.00  0.00    +0.000 NA
ATOM     26  C   UNL     1       5.280   6.683  16.628  0.00  0.00    +0.000 A 
ATOM     27  N   UNL     1       5.250   5.354  16.589  0.00  0.00    +0.000 NA
ATOM     28  C   UNL     1       4.227   4.758  17.196  0.00  0.00    +0.000 A 
ATOM     29  C   UNL     1       4.198   3.372  17.181  0.00  0.00    +0.000 A 
ATOM     30  C   UNL     1       3.200   2.641  17.826  0.00  0.00    +0.000 A 
ATOM     31  C   UNL     1       2.190   3.301  18.530  0.00  0.00    +0.000 A 
ATOM     32  C   UNL     1       2.194   4.711  18.533  0.00  0.00    +0.000 A 
ATOM     33  C   UNL     1       3.204   5.461  17.854  0.00  0.00    +0.000 A 
BRANCH  31  34
ATOM     34  C   UNL     1       1.142   2.506  19.276  0.00  0.00    +0.000 C 
ATOM     35  F   UNL     1       1.579   1.278  19.680  0.00  0.00    +0.000 F 
ATOM     36  F   UNL     1       0.718   3.137  20.406  0.00  0.00    +0.000 F 
ATOM     37  F   UNL     1       0.029   2.277  18.529  0.00  0.00    +0.000 F 
ENDBRANCH  31  34
ENDBRANCH  22  24
ENDBRANCH  21  22
ENDBRANCH   2  21
TORSDOF 7
ENDMDL
MODEL 4
REMARK VINA RESULT:      -8.2      7.400      9.229
REMARK  Name = 
REMARK  7 active torsions:
REMARK  status: ('A' for Active; 'I' for Inactive)
REMARK    1  A    between atoms: C_2  and  C_3
REMARK    2  A    between atoms: C_3  and  N_4
REMARK    3  A    between atoms: N_4  and  C_5
REMARK    4  A    between atoms: C_12  and  C_13
REMARK    5  A    between atoms: N_19  and  C_20
REMARK    6  A    between atoms: N_22  and  C_23
REMARK    7  A    between atoms: C_26  and  N_27
REMARK                            x       y       z     vdW  Elec       q    Type
REMARK                         _______ _______ _______ _____ _____    ______ ____
ROOT
ATOM      1  O   UNL     1       2.245  10.585  17.614  0.00  0.00    +0.000 OA
ATOM      2  C   UNL     1       1.953   9.459  18.016  0.00  0.00    +0.000 C 
ATOM      3  N   UNL     1       1.154   9.242  19.122  0.00  0.00    +0.000 N 
ATOM      4  H   UNL     1       1.170   8.292  19.487  0.00  0.00    +0.000 HD
ENDROOT
BRANCH   3   5
ATOM      5  C   UNL     1       0.695  10.363  19.987  0.00  0.00    +0.000 C 
ATOM      6  C   UNL     1      -0.373  11.298  19.392  0.00  0.00    +0.000 C 
ATOM      7  N   UNL     1      -1.158  11.239  20.663  0.00  0.00    +0.000 NA
ATOM      8  C   UNL     1      -0.385  10.012  21.026  0.00  0.00    +0.000 C 
BRANCH   7   9
ATOM      9  C   UNL     1      -0.833  12.367  21.581  0.00  0.00    +0.000 C 
ATOM     10  C   UNL     1      -1.440  13.707  21.094  0.00  0.00    +0.000 C 
ATOM     11  C   UNL     1      -2.927  13.899  21.367  0.00  0.00    +0.000 C 
ATOM     12  C   UNL     1      -3.352  13.600  22.804  0.00  0.00    +0.000 C 
ATOM     13  C   UNL     1      -2.799  12.258  23.290  0.00  0.00    +0.000 C 
ATOM     14  C   UNL     1      -1.310  12.046  23.021  0.00  0.00    +0.000 C 
BRANCH  12  15
ATOM     15  N   UNL     1      -3.123  14.713  23.741  0.00  0.00    +0.000 N 
ATOM     16  C   UNL     1      -4.238  15.482  24.248  0.00  0.00    +0.000 C 
ATOM     17  C   UNL     1      -3.584  16.667  24.928  0.00  0.00    +0.000 C 
ATOM     18  C   UNL     1      -2.284  16.087  25.448  0.00  0.00    +0.000 C 
ATOM     19  C   UNL     1      -1.944  15.061  24.397  0.00  0.00    +0.000 C 
ATOM     20  O   UNL     1      -0.823  14.611  24.241  0.00  0.00    +0.000 OA
ENDBRANCH  12  15
ENDBRANCH   7   9
ENDBRANCH   3   5
BRANCH   2  21
ATOM     21  C   UNL     1       2.493   8.192  17.329  0.00  0.00    +0.000 C 
BRANCH  21  22
ATOM     22  N   UNL     1       3.531   7.516  18.134  0.00  0.00    +0.000 N 
ATOM     23  H   UNL     1       3.172   7.280  19.059  0.00  0.00    +0.000 HD
BRANCH  22  24
ATOM     24  C   UNL     1       4.136   6.391  17.545  0.00  0.00    +0.000 A 
ATOM     25  N   UNL     1       5.221   6.602  16.771  0.00  0.00    +0.000 NA
ATOM     26  C   UNL     1       5.800   5.521  16.244  0.00  0.00    +0.000 A 
ATOM     27  N   UNL     1       5.391   4.262  16.378  0.00  0.00    +0.000 NA
ATOM     28  C   UNL     1       4.329   4.055  17.151  0.00  0.00    +0.000 A 
ATOM     29  C   UNL     1       3.908   2.744  17.316  0.00  0.00    +0.000 A 
ATOM     30  C   UNL     1       2.836   2.404  18.142  0.00  0.00    +0.000 A 
ATOM     31  C   UNL     1       2.152   3.396  18.848  0.00  0.00    +0.000 A 
ATOM     32  C   UNL     1       2.554   4.736  18.671  0.00  0.00    +0.000 A 
ATOM     33  C   UNL     1       3.639   5.087  17.809  0.00  0.00    +0.000 A 
BRANCH  31  34
ATOM     34  C   UNL     1       1.027   3.020  19.787  0.00  0.00    +0.000 C 
ATOM     35  F   UNL     1      -0.018   2.404  19.162  0.00  0.00    +0.000 F 
ATOM     36  F   UNL     1       1.432   2.162  20.765  0.00  0.00    +0.000 F 
ATOM     37  F   UNL     1       0.496   4.098  20.425  0.00  0.00    +0.000 F 
ENDBRANCH  31  34
ENDBRANCH  22  24
ENDBRANCH  21  22
ENDBRANCH   2  21
TORSDOF 7
ENDMDL
MODEL 5
REMARK VINA RESULT:      -8.2      7.258      9.484
REMARK  Name = 
REMARK  7 active torsions:
REMARK  status: ('A' for Active; 'I' for Inactive)
REMARK    1  A    between atoms: C_2  and  C_3
REMARK    2  A    between atoms: C_3  and  N_4
REMARK    3  A    between atoms: N_4  and  C_5
REMARK    4  A    between atoms: C_12  and  C_13
REMARK    5  A    between atoms: N_19  and  C_20
REMARK    6  A    between atoms: N_22  and  C_23
REMARK    7  A    between atoms: C_26  and  N_27
REMARK                            x       y       z     vdW  Elec       q    Type
REMARK                         _______ _______ _______ _____ _____    ______ ____
ROOT
ATOM      1  O   UNL     1       1.820   7.669  19.375  0.00  0.00    +0.000 OA
ATOM      2  C   UNL     1       2.130   8.426  18.455  0.00  0.00    +0.000 C 
ATOM      3  N   UNL     1       1.565   9.676  18.289  0.00  0.00    +0.000 N 
ATOM      4  H   UNL     1       1.729  10.107  17.382  0.00  0.00    +0.000 HD
ENDROOT
BRANCH   3   5
ATOM      5  C   UNL     1       0.440  10.144  19.143  0.00  0.00    +0.000 C 
ATOM      6  C   UNL     1       0.809  10.657  20.547  0.00  0.00    +0.000 C 
ATOM      7  N   UNL     1      -0.073  11.850  20.362  0.00  0.00    +0.000 NA
ATOM      8  C   UNL     1      -0.042  11.584  18.891  0.00  0.00    +0.000 C 
BRANCH   7   9
ATOM      9  C   UNL     1      -1.439  11.634  20.916  0.00  0.00    +0.000 C 
ATOM     10  C   UNL     1      -1.464  11.735  22.462  0.00  0.00    +0.000 C 
ATOM     11  C   UNL     1      -1.444  13.148  23.033  0.00  0.00    +0.000 C 
ATOM     12  C   UNL     1      -2.465  14.099  22.409  0.00  0.00    +0.000 C 
ATOM     13  C   UNL     1      -2.427  14.046  20.881  0.00  0.00    +0.000 C 
ATOM     14  C   UNL     1      -2.442  12.638  20.289  0.00  0.00    +0.000 C 
BRANCH  12  15
ATOM     15  N   UNL     1      -3.819  13.980  22.976  0.00  0.00    +0.000 N 
ATOM     16  C   UNL     1      -4.125  12.932  23.925  0.00  0.00    +0.000 C 
ATOM     17  C   UNL     1      -5.634  12.977  24.044  0.00  0.00    +0.000 C 
ATOM     18  C   UNL     1      -5.948  14.446  23.846  0.00  0.00    +0.000 C 
ATOM     19  C   UNL     1      -4.880  14.878  22.873  0.00  0.00    +0.000 C 
ATOM     20  O   UNL     1      -4.967  15.881  22.188  0.00  0.00    +0.000 OA
ENDBRANCH  12  15
ENDBRANCH   7   9
ENDBRANCH   3   5
BRANCH   2  21
ATOM     21  C   UNL     1       3.158   8.016  17.384  0.00  0.00    +0.000 C 
BRANCH  21  22
ATOM     22  N   UNL     1       4.275   7.233  17.950  0.00  0.00    +0.000 N 
ATOM     23  H   UNL     1       4.175   7.141  18.961  0.00  0.00    +0.000 HD
BRANCH  22  24
ATOM     24  C   UNL     1       4.505   5.972  17.368  0.00  0.00    +0.000 A 
ATOM     25  N   UNL     1       5.329   5.921  16.301  0.00  0.00    +0.000 NA
ATOM     26  C   UNL     1       5.559   4.714  15.780  0.00  0.00    +0.000 A 
ATOM     27  N   UNL     1       5.028   3.564  16.187  0.00  0.00    +0.000 NA
ATOM     28  C   UNL     1       4.226   3.616  17.247  0.00  0.00    +0.000 A 
ATOM     29  C   UNL     1       3.684   2.419  17.693  0.00  0.00    +0.000 A 
ATOM     30  C   UNL     1       2.869   2.347  18.824  0.00  0.00    +0.000 A 
ATOM     31  C   UNL     1       2.581   3.500  19.556  0.00  0.00    +0.000 A 
ATOM     32  C   UNL     1       3.104   4.727  19.099  0.00  0.00    +0.000 A 
ATOM     33  C   UNL     1       3.922   4.805  17.929  0.00  0.00    +0.000 A 
BRANCH  31  34
ATOM     34  C   UNL     1       1.744   3.410  20.813  0.00  0.00    +0.000 C 
ATOM     35  F   UNL     1       0.573   4.107  20.736  0.00  0.00    +0.000 F 
ATOM     36  F   UNL     1       1.393   2.129  21.113  0.00  0.00    +0.000 F 
ATOM     37  F   UNL     1       2.392   3.892  21.908  0.00  0.00    +0.000 F 
ENDBRANCH  31  34
ENDBRANCH  22  24
ENDBRANCH  21  22
ENDBRANCH   2  21
TORSDOF 7
ENDMDL
MODEL 6
REMARK VINA RESULT:      -8.1      7.738      9.904
REMARK  Name = 
REMARK  7 active torsions:
REMARK  status: ('A' for Active; 'I' for Inactive)
REMARK    1  A    between atoms: C_2  and  C_3
REMARK    2  A    between atoms: C_3  and  N_4
REMARK    3  A    between atoms: N_4  and  C_5
REMARK    4  A    between atoms: C_12  and  C_13
REMARK    5  A    between atoms: N_19  and  C_20
REMARK    6  A    between atoms: N_22  and  C_23
REMARK    7  A    between atoms: C_26  and  N_27
REMARK                            x       y       z     vdW  Elec       q    Type
REMARK                         _______ _______ _______ _____ _____    ______ ____
ROOT
ATOM      1  O   UNL     1       1.264   8.801  19.739  0.00  0.00    +0.000 OA
ATOM      2  C   UNL     1       1.580   9.264  18.643  0.00  0.00    +0.000 C 
ATOM      3  N   UNL     1       1.300  10.565  18.271  0.00  0.00    +0.000 N 
ATOM      4  H   UNL     1       1.402  10.762  17.278  0.00  0.00    +0.000 HD
ENDROOT
BRANCH   3   5
ATOM      5  C   UNL     1       0.478  11.463  19.127  0.00  0.00    +0.000 C 
ATOM      6  C   UNL     1      -1.047  11.260  19.073  0.00  0.00    +0.000 C 
ATOM      7  N   UNL     1      -1.125  11.316  20.565  0.00  0.00    +0.000 NA
ATOM      8  C   UNL     1       0.345  11.048  20.603  0.00  0.00    +0.000 C 
BRANCH   7   9
ATOM      9  C   UNL     1      -1.432  12.686  21.063  0.00  0.00    +0.000 C 
ATOM     10  C   UNL     1      -2.795  13.204  20.539  0.00  0.00    +0.000 C 
ATOM     11  C   UNL     1      -4.029  12.658  21.249  0.00  0.00    +0.000 C 
ATOM     12  C   UNL     1      -3.968  12.733  22.774  0.00  0.00    +0.000 C 
ATOM     13  C   UNL     1      -2.646  12.185  23.315  0.00  0.00    +0.000 C 
ATOM     14  C   UNL     1      -1.397  12.718  22.613  0.00  0.00    +0.000 C 
BRANCH  12  15
ATOM     15  N   UNL     1      -4.338  14.048  23.325  0.00  0.00    +0.000 N 
ATOM     16  C   UNL     1      -3.324  14.926  23.867  0.00  0.00    +0.000 C 
ATOM     17  C   UNL     1      -4.117  16.012  24.563  0.00  0.00    +0.000 C 
ATOM     18  C   UNL     1      -5.366  16.121  23.713  0.00  0.00    +0.000 C 
ATOM     19  C   UNL     1      -5.567  14.701  23.247  0.00  0.00    +0.000 C 
ATOM     20  O   UNL     1      -6.630  14.278  22.831  0.00  0.00    +0.000 OA
ENDBRANCH  12  15
ENDBRANCH   7   9
ENDBRANCH   3   5
BRANCH   2  21
ATOM     21  C   UNL     1       2.285   8.407  17.577  0.00  0.00    +0.000 C 
BRANCH  21  22
ATOM     22  N   UNL     1       3.529   7.793  18.084  0.00  0.00    +0.000 N 
ATOM     23  H   UNL     1       3.454   7.598  19.082  0.00  0.00    +0.000 HD
BRANCH  22  24
ATOM     24  C   UNL     1       3.980   6.650  17.398  0.00  0.00    +0.000 A 
ATOM     25  N   UNL     1       4.941   6.822  16.467  0.00  0.00    +0.000 NA
ATOM     26  C   UNL     1       5.378   5.723  15.847  0.00  0.00    +0.000 A 
ATOM     27  N   UNL     1       4.931   4.483  16.031  0.00  0.00    +0.000 NA
ATOM     28  C   UNL     1       3.992   4.315  16.957  0.00  0.00    +0.000 A 
ATOM     29  C   UNL     1       3.536   3.023  17.173  0.00  0.00    +0.000 A 
ATOM     30  C   UNL     1       2.588   2.721  18.151  0.00  0.00    +0.000 A 
ATOM     31  C   UNL     1       2.072   3.733  18.964  0.00  0.00    +0.000 A 
ATOM     32  C   UNL     1       2.508   5.054  18.739  0.00  0.00    +0.000 A 
ATOM     33  C   UNL     1       3.464   5.367  17.723  0.00  0.00    +0.000 A 
BRANCH  31  34
ATOM     34  C   UNL     1       1.087   3.395  20.062  0.00  0.00    +0.000 C 
ATOM     35  F   UNL     1       1.626   2.631  21.057  0.00  0.00    +0.000 F 
ATOM     36  F   UNL     1       0.592   4.506  20.675  0.00  0.00    +0.000 F 
ATOM     37  F   UNL     1       0.010   2.702  19.603  0.00  0.00    +0.000 F 
ENDBRANCH  31  34
ENDBRANCH  22  24
ENDBRANCH  21  22
ENDBRANCH   2  21
TORSDOF 7
ENDMDL
MODEL 7
REMARK VINA RESULT:      -8.1      7.479      9.239
REMARK  Name = 
REMARK  7 active torsions:
REMARK  status: ('A' for Active; 'I' for Inactive)
REMARK    1  A    between atoms: C_2  and  C_3
REMARK    2  A    between atoms: C_3  and  N_4
REMARK    3  A    between atoms: N_4  and  C_5
REMARK    4  A    between atoms: C_12  and  C_13
REMARK    5  A    between atoms: N_19  and  C_20
REMARK    6  A    between atoms: N_22  and  C_23
REMARK    7  A    between atoms: C_26  and  N_27
REMARK                            x       y       z     vdW  Elec       q    Type
REMARK                         _______ _______ _______ _____ _____    ______ ____
ROOT
ATOM      1  O   UNL     1       1.431   4.193  19.215  0.00  0.00    +0.000 OA
ATOM      2  C   UNL     1       2.525   4.585  18.810  0.00  0.00    +0.000 C 
ATOM      3  N   UNL     1       2.845   5.925  18.696  0.00  0.00    +0.000 N 
ATOM      4  H   UNL     1       3.677   6.125  18.145  0.00  0.00    +0.000 HD
ENDROOT
BRANCH   3   5
ATOM      5  C   UNL     1       1.835   6.992  18.933  0.00  0.00    +0.000 C 
ATOM      6  C   UNL     1       1.927   7.740  20.276  0.00  0.00    +0.000 C 
ATOM      7  N   UNL     1       1.770   9.052  19.576  0.00  0.00    +0.000 NA
ATOM      8  C   UNL     1       2.145   8.362  18.304  0.00  0.00    +0.000 C 
BRANCH   7   9
ATOM      9  C   UNL     1       0.352   9.507  19.540  0.00  0.00    +0.000 C 
ATOM     10  C   UNL     1      -0.325   9.413  20.931  0.00  0.00    +0.000 C 
ATOM     11  C   UNL     1       0.019  10.529  21.912  0.00  0.00    +0.000 C 
ATOM     12  C   UNL     1      -0.109  11.939  21.338  0.00  0.00    +0.000 C 
ATOM     13  C   UNL     1       0.591  12.064  19.983  0.00  0.00    +0.000 C 
ATOM     14  C   UNL     1       0.262  10.953  18.988  0.00  0.00    +0.000 C 
BRANCH  12  15
ATOM     15  N   UNL     1      -1.483  12.469  21.350  0.00  0.00    +0.000 N 
ATOM     16  C   UNL     1      -2.316  12.367  20.172  0.00  0.00    +0.000 C 
ATOM     17  C   UNL     1      -3.505  13.249  20.490  0.00  0.00    +0.000 C 
ATOM     18  C   UNL     1      -3.650  13.098  21.991  0.00  0.00    +0.000 C 
ATOM     19  C   UNL     1      -2.221  12.928  22.439  0.00  0.00    +0.000 C 
ATOM     20  O   UNL     1      -1.853  13.118  23.585  0.00  0.00    +0.000 OA
ENDBRANCH  12  15
ENDBRANCH   7   9
ENDBRANCH   3   5
BRANCH   2  21
ATOM     21  C   UNL     1       3.619   3.601  18.360  0.00  0.00    +0.000 C 
BRANCH  21  22
ATOM     22  N   UNL     1       3.898   3.697  16.913  0.00  0.00    +0.000 N 
ATOM     23  H   UNL     1       3.184   4.253  16.444  0.00  0.00    +0.000 HD
BRANCH  22  24
ATOM     24  C   UNL     1       5.181   4.155  16.558  0.00  0.00    +0.000 A 
ATOM     25  N   UNL     1       5.996   4.554  17.557  0.00  0.00    +0.000 NA
ATOM     26  C   UNL     1       7.219   4.959  17.205  0.00  0.00    +0.000 A 
ATOM     27  N   UNL     1       7.698   5.040  15.967  0.00  0.00    +0.000 NA
ATOM     28  C   UNL     1       6.896   4.635  14.986  0.00  0.00    +0.000 A 
ATOM     29  C   UNL     1       7.394   4.695  13.692  0.00  0.00    +0.000 A 
ATOM     30  C   UNL     1       6.661   4.251  12.591  0.00  0.00    +0.000 A 
ATOM     31  C   UNL     1       5.384   3.714  12.768  0.00  0.00    +0.000 A 
ATOM     32  C   UNL     1       4.856   3.670  14.075  0.00  0.00    +0.000 A 
ATOM     33  C   UNL     1       5.598   4.143  15.201  0.00  0.00    +0.000 A 
BRANCH  31  34
ATOM     34  C   UNL     1       4.614   3.181  11.580  0.00  0.00    +0.000 C 
ATOM     35  F   UNL     1       5.147   2.040  11.056  0.00  0.00    +0.000 F 
ATOM     36  F   UNL     1       3.324   2.878  11.891  0.00  0.00    +0.000 F 
ATOM     37  F   UNL     1       4.558   4.071  10.552  0.00  0.00    +0.000 F 
ENDBRANCH  31  34
ENDBRANCH  22  24
ENDBRANCH  21  22
ENDBRANCH   2  21
TORSDOF 7
ENDMDL
MODEL 8
REMARK VINA RESULT:      -8.0      7.659      9.416
REMARK  Name = 
REMARK  7 active torsions:
REMARK  status: ('A' for Active; 'I' for Inactive)
REMARK    1  A    between atoms: C_2  and  C_3
REMARK    2  A    between atoms: C_3  and  N_4
REMARK    3  A    between atoms: N_4  and  C_5
REMARK    4  A    between atoms: C_12  and  C_13
REMARK    5  A    between atoms: N_19  and  C_20
REMARK    6  A    between atoms: N_22  and  C_23
REMARK    7  A    between atoms: C_26  and  N_27
REMARK                            x       y       z     vdW  Elec       q    Type
REMARK                         _______ _______ _______ _____ _____    ______ ____
ROOT
ATOM      1  O   UNL     1       1.239   8.826  19.674  0.00  0.00    +0.000 OA
ATOM      2  C   UNL     1       1.571   9.193  18.547  0.00  0.00    +0.000 C 
ATOM      3  N   UNL     1       1.357  10.476  18.083  0.00  0.00    +0.000 N 
ATOM      4  H   UNL     1       1.463  10.596  17.079  0.00  0.00    +0.000 HD
ENDROOT
BRANCH   3   5
ATOM      5  C   UNL     1       0.586  11.474  18.874  0.00  0.00    +0.000 C 
ATOM      6  C   UNL     1      -0.854  11.086  19.256  0.00  0.00    +0.000 C 
ATOM      7  N   UNL     1      -0.625  11.546  20.661  0.00  0.00    +0.000 NA
ATOM      8  C   UNL     1       0.844  11.473  20.392  0.00  0.00    +0.000 C 
BRANCH   7   9
ATOM      9  C   UNL     1      -1.061  12.954  20.871  0.00  0.00    +0.000 C 
ATOM     10  C   UNL     1      -2.589  13.127  20.672  0.00  0.00    +0.000 C 
ATOM     11  C   UNL     1      -3.464  12.670  21.834  0.00  0.00    +0.000 C 
ATOM     12  C   UNL     1      -3.030  13.198  23.201  0.00  0.00    +0.000 C 
ATOM     13  C   UNL     1      -1.531  12.997  23.435  0.00  0.00    +0.000 C 
ATOM     14  C   UNL     1      -0.638  13.446  22.280  0.00  0.00    +0.000 C 
BRANCH  12  15
ATOM     15  N   UNL     1      -3.502  14.562  23.493  0.00  0.00    +0.000 N 
ATOM     16  C   UNL     1      -4.377  15.247  22.568  0.00  0.00    +0.000 C 
ATOM     17  C   UNL     1      -4.400  16.673  23.076  0.00  0.00    +0.000 C 
ATOM     18  C   UNL     1      -4.253  16.504  24.575  0.00  0.00    +0.000 C 
ATOM     19  C   UNL     1      -3.374  15.284  24.679  0.00  0.00    +0.000 C 
ATOM     20  O   UNL     1      -2.734  15.005  25.677  0.00  0.00    +0.000 OA
ENDBRANCH  12  15
ENDBRANCH   7   9
ENDBRANCH   3   5
BRANCH   2  21
ATOM     21  C   UNL     1       2.227   8.226  17.544  0.00  0.00    +0.000 C 
BRANCH  21  22
ATOM     22  N   UNL     1       3.533   7.726  18.019  0.00  0.00    +0.000 N 
ATOM     23  H   UNL     1       3.513   7.567  19.026  0.00  0.00    +0.000 HD
BRANCH  22  24
ATOM     24  C   UNL     1       4.038   6.590  17.358  0.00  0.00    +0.000 A 
ATOM     25  N   UNL     1       5.032   6.782  16.466  0.00  0.00    +0.000 NA
ATOM     26  C   UNL     1       5.519   5.691  15.870  0.00  0.00    +0.000 A 
ATOM     27  N   UNL     1       5.096   4.441  16.043  0.00  0.00    +0.000 NA
ATOM     28  C   UNL     1       4.125   4.254  16.932  0.00  0.00    +0.000 A 
ATOM     29  C   UNL     1       3.692   2.953  17.137  0.00  0.00    +0.000 A 
ATOM     30  C   UNL     1       2.713   2.633  18.078  0.00  0.00    +0.000 A 
ATOM     31  C   UNL     1       2.141   3.635  18.864  0.00  0.00    +0.000 A 
ATOM     32  C   UNL     1       2.553   4.966  18.649  0.00  0.00    +0.000 A 
ATOM     33  C   UNL     1       3.541   5.298  17.670  0.00  0.00    +0.000 A 
BRANCH  31  34
ATOM     34  C   UNL     1       1.122   3.279  19.923  0.00  0.00    +0.000 C 
ATOM     35  F   UNL     1       1.618   2.466  20.901  0.00  0.00    +0.000 F 
ATOM     36  F   UNL     1       0.634   4.376  20.565  0.00  0.00    +0.000 F 
ATOM     37  F   UNL     1       0.041   2.628  19.412  0.00  0.00    +0.000 F 
ENDBRANCH  31  34
ENDBRANCH  22  24
ENDBRANCH  21  22
ENDBRANCH   2  21
TORSDOF 7
ENDMDL
MODEL 9
REMARK VINA RESULT:      -8.0      6.489      7.653
REMARK  Name = 
REMARK  7 active torsions:
REMARK  status: ('A' for Active; 'I' for Inactive)
REMARK    1  A    between atoms: C_2  and  C_3
REMARK    2  A    between atoms: C_3  and  N_4
REMARK    3  A    between atoms: N_4  and  C_5
REMARK    4  A    between atoms: C_12  and  C_13
REMARK    5  A    between atoms: N_19  and  C_20
REMARK    6  A    between atoms: N_22  and  C_23
REMARK    7  A    between atoms: C_26  and  N_27
REMARK                            x       y       z     vdW  Elec       q    Type
REMARK                         _______ _______ _______ _____ _____    ______ ____
ROOT
ATOM      1  O   UNL     1       2.148   8.319  18.942  0.00  0.00    +0.000 OA
ATOM      2  C   UNL     1       1.505   8.122  19.972  0.00  0.00    +0.000 C 
ATOM      3  N   UNL     1       0.565   9.014  20.451  0.00  0.00    +0.000 N 
ATOM      4  H   UNL     1       0.269   8.855  21.412  0.00  0.00    +0.000 HD
ENDROOT
BRANCH   3   5
ATOM      5  C   UNL     1       0.357  10.345  19.818  0.00  0.00    +0.000 C 
ATOM      6  C   UNL     1      -0.674  11.272  20.487  0.00  0.00    +0.000 C 
ATOM      7  N   UNL     1       0.275  12.423  20.396  0.00  0.00    +0.000 NA
ATOM      8  C   UNL     1       1.378  11.434  20.193  0.00  0.00    +0.000 C 
BRANCH   7   9
ATOM      9  C   UNL     1       0.057  13.240  19.169  0.00  0.00    +0.000 C 
ATOM     10  C   UNL     1      -0.992  14.358  19.393  0.00  0.00    +0.000 C 
ATOM     11  C   UNL     1      -0.496  15.592  20.139  0.00  0.00    +0.000 C 
ATOM     12  C   UNL     1       0.813  16.172  19.606  0.00  0.00    +0.000 C 
ATOM     13  C   UNL     1       1.877  15.089  19.419  0.00  0.00    +0.000 C 
ATOM     14  C   UNL     1       1.398  13.843  18.676  0.00  0.00    +0.000 C 
BRANCH  12  15
ATOM     15  N   UNL     1       0.645  17.052  18.436  0.00  0.00    +0.000 N 
ATOM     16  C   UNL     1      -0.641  17.647  18.147  0.00  0.00    +0.000 C 
ATOM     17  C   UNL     1      -0.470  18.227  16.759  0.00  0.00    +0.000 C 
ATOM     18  C   UNL     1       0.990  18.631  16.736  0.00  0.00    +0.000 C 
ATOM     19  C   UNL     1       1.631  17.579  17.604  0.00  0.00    +0.000 C 
ATOM     20  O   UNL     1       2.822  17.324  17.576  0.00  0.00    +0.000 OA
ENDBRANCH  12  15
ENDBRANCH   7   9
ENDBRANCH   3   5
BRANCH   2  21
ATOM     21  C   UNL     1       1.730   6.868  20.836  0.00  0.00    +0.000 C 
BRANCH  21  22
ATOM     22  N   UNL     1       2.888   6.072  20.380  0.00  0.00    +0.000 N 
ATOM     23  H   UNL     1       3.419   5.720  21.176  0.00  0.00    +0.000 HD
BRANCH  22  24
ATOM     24  C   UNL     1       2.605   5.025  19.482  0.00  0.00    +0.000 A 
ATOM     25  N   UNL     1       1.405   4.419  19.593  0.00  0.00    +0.000 NA
ATOM     26  C   UNL     1       1.142   3.448  18.716  0.00  0.00    +0.000 A 
ATOM     27  N   UNL     1       1.960   2.998  17.768  0.00  0.00    +0.000 NA
ATOM     28  C   UNL     1       3.138   3.605  17.653  0.00  0.00    +0.000 A 
ATOM     29  C   UNL     1       3.989   3.159  16.654  0.00  0.00    +0.000 A 
ATOM     30  C   UNL     1       5.228   3.753  16.410  0.00  0.00    +0.000 A 
ATOM     31  C   UNL     1       5.646   4.844  17.175  0.00  0.00    +0.000 A 
ATOM     32  C   UNL     1       4.801   5.292  18.211  0.00  0.00    +0.000 A 
ATOM     33  C   UNL     1       3.541   4.671  18.475  0.00  0.00    +0.000 A 
BRANCH  31  34
ATOM     34  C   UNL     1       6.963   5.522  16.872  0.00  0.00    +0.000 C 
ATOM     35  F   UNL     1       7.945   5.226  17.773  0.00  0.00    +0.000 F 
ATOM     36  F   UNL     1       7.460   5.171  15.654  0.00  0.00    +0.000 F 
ATOM     37  F   UNL     1       6.863   6.879  16.865  0.00  0.00    +0.000 F 
ENDBRANCH  31  34
ENDBRANCH  22  24
ENDBRANCH  21  22
ENDBRANCH   2  21
TORSDOF 7
ENDMDL
