MODEL 1
REMARK VINA RESULT:      -9.3      0.000      0.000
REMARK  Name = 
REMARK  11 active torsions:
REMARK  status: ('A' for Active; 'I' for Inactive)
REMARK    1  A    between atoms: C_1  and  C_2
REMARK    2  A    between atoms: C_2  and  N_3
REMARK    3  A    between atoms: C_2  and  C_29
REMARK    4  A    between atoms: C_11  and  C_12
REMARK    5  A    between atoms: N_14  and  C_15
REMARK    6  A    between atoms: C_17  and  C_18
REMARK    7  A    between atoms: C_18  and  C_19
REMARK    8  A    between atoms: C_18  and  C_20
REMARK    9  A    between atoms: C_18  and  C_21
REMARK   10  A    between atoms: C_24  and  C_25
REMARK   11  A    between atoms: C_25  and  O_27
REMARK                            x       y       z     vdW  Elec       q    Type
REMARK                         _______ _______ _______ _____ _____    ______ ____
ROOT
ATOM      1  N   UNL     1      -0.129  14.382  19.444  0.00  0.00    +0.000 N 
ATOM      2  C   UNL     1       0.170  13.302  20.237  0.00  0.00    +0.000 C 
ATOM      3  O   UNL     1       0.679  13.428  21.345  0.00  0.00    +0.000 OA
ATOM      4  N   UNL     1      -0.149  12.100  19.644  0.00  0.00    +0.000 N 
ATOM      5  C   UNL     1       0.144  10.891  20.295  0.00  0.00    +0.000 A 
ATOM      6  C   UNL     1      -0.181  10.719  21.644  0.00  0.00    +0.000 A 
ATOM      7  C   UNL     1       0.212   9.561  22.292  0.00  0.00    +0.000 A 
ATOM      8  C   UNL     1       0.918   8.611  21.571  0.00  0.00    +0.000 A 
ATOM      9  C   UNL     1       1.175   8.847  20.219  0.00  0.00    +0.000 A 
ATOM     10  N   UNL     1       0.762   9.951  19.546  0.00  0.00    +0.000 NA
ATOM     11  H   UNL     1      -0.621  14.234  18.577  0.00  0.00    +0.000 HD
ATOM     12  H   UNL     1      -0.001  12.054  18.648  0.00  0.00    +0.000 HD
ENDROOT
BRANCH   9  13
ATOM     13  C   UNL     1       1.978   7.829  19.484  0.00  0.00    +0.000 C 
ATOM     14  O   UNL     1       2.178   8.026  18.285  0.00  0.00    +0.000 OA
ATOM     15  N   UNL     1       2.425   6.721  20.197  0.00  0.00    +0.000 N 
ATOM     16  H   UNL     1       1.976   6.569  21.103  0.00  0.00    +0.000 HD
BRANCH  15  17
ATOM     17  C   UNL     1       3.256   5.681  19.672  0.00  0.00    +0.000 A 
ATOM     18  C   UNL     1       4.328   5.992  18.818  0.00  0.00    +0.000 A 
ATOM     19  C   UNL     1       5.117   5.023  18.165  0.00  0.00    +0.000 A 
ATOM     20  C   UNL     1       4.883   3.687  18.511  0.00  0.00    +0.000 A 
ATOM     21  C   UNL     1       3.858   3.342  19.396  0.00  0.00    +0.000 A 
ATOM     22  C   UNL     1       3.042   4.326  19.986  0.00  0.00    +0.000 A 
BRANCH  19  23
ATOM     23  C   UNL     1       6.160   5.438  17.114  0.00  0.00    +0.000 C 
ATOM     24  C   UNL     1       7.408   4.549  17.252  0.00  0.00    +0.000 C 
ATOM     25  C   UNL     1       5.608   5.308  15.675  0.00  0.00    +0.000 C 
ATOM     26  C   UNL     1       6.599   6.919  17.263  0.00  0.00    +0.000 C 
ENDBRANCH  19  23
BRANCH  22  27
ATOM     27  C   UNL     1       1.924   3.907  20.869  0.00  0.00    +0.000 C 
ATOM     28  O   UNL     1       0.749   4.054  20.578  0.00  0.00    +0.000 OA
BRANCH  27  29
ATOM     29  O   UNL     1       2.319   3.384  22.053  0.00  0.00    +0.000 OA
ATOM     30  H   UNL     1       2.465   4.027  22.770  0.00  0.00    +0.000 HD
ENDBRANCH  27  29
ENDBRANCH  22  27
ENDBRANCH  15  17
ENDBRANCH   9  13
BRANCH   1  32
ATOM     31  C   UNL     1      -1.004  16.332  20.705  0.00  0.00    +0.000 C 
ATOM     32  C   UNL     1       0.157  15.733  19.902  0.00  0.00    +0.000 C 
BRANCH  32  33
ATOM     33  C   UNL     1       0.508  16.690  18.776  0.00  0.00    +0.000 A 
ATOM     34  C   UNL     1      -0.523  17.427  18.168  0.00  0.00    +0.000 A 
ATOM     35  C   UNL     1      -0.275  18.200  17.033  0.00  0.00    +0.000 A 
ATOM     36  C   UNL     1       1.008  18.258  16.498  0.00  0.00    +0.000 A 
ATOM     37  C   UNL     1       2.045  17.550  17.101  0.00  0.00    +0.000 A 
ATOM     38  C   UNL     1       1.798  16.764  18.228  0.00  0.00    +0.000 A 
ENDBRANCH  32  33
ENDBRANCH   1  32
TORSDOF 7
ENDMDL
MODEL 2
REMARK VINA RESULT:      -9.1      1.125      1.772
REMARK  Name = 
REMARK  11 active torsions:
REMARK  status: ('A' for Active; 'I' for Inactive)
REMARK    1  A    between atoms: C_1  and  C_2
REMARK    2  A    between atoms: C_2  and  N_3
REMARK    3  A    between atoms: C_2  and  C_29
REMARK    4  A    between atoms: C_11  and  C_12
REMARK    5  A    between atoms: N_14  and  C_15
REMARK    6  A    between atoms: C_17  and  C_18
REMARK    7  A    between atoms: C_18  and  C_19
REMARK    8  A    between atoms: C_18  and  C_20
REMARK    9  A    between atoms: C_18  and  C_21
REMARK   10  A    between atoms: C_24  and  C_25
REMARK   11  A    between atoms: C_25  and  O_27
REMARK                            x       y       z     vdW  Elec       q    Type
REMARK                         _______ _______ _______ _____ _____    ______ ____
ROOT
ATOM      1  N   UNL     1       0.326  14.158  19.218  0.00  0.00    +0.000 N 
ATOM      2  C   UNL     1       0.623  13.109  20.051  0.00  0.00    +0.000 C 
ATOM      3  O   UNL     1       1.197  13.269  21.122  0.00  0.00    +0.000 OA
ATOM      4  N   UNL     1       0.222  11.893  19.540  0.00  0.00    +0.000 N 
ATOM      5  C   UNL     1       0.500  10.708  20.239  0.00  0.00    +0.000 A 
ATOM      6  C   UNL     1       0.242  10.619  21.611  0.00  0.00    +0.000 A 
ATOM      7  C   UNL     1       0.622   9.480  22.299  0.00  0.00    +0.000 A 
ATOM      8  C   UNL     1       1.247   8.464  21.594  0.00  0.00    +0.000 A 
ATOM      9  C   UNL     1       1.439   8.618  20.220  0.00  0.00    +0.000 A 
ATOM     10  N   UNL     1       1.036   9.703  19.511  0.00  0.00    +0.000 NA
ATOM     11  H   UNL     1      -0.218  13.988  18.387  0.00  0.00    +0.000 HD
ATOM     12  H   UNL     1       0.313  11.789  18.542  0.00  0.00    +0.000 HD
ENDROOT
BRANCH   9  13
ATOM     13  C   UNL     1       2.157   7.529  19.500  0.00  0.00    +0.000 C 
ATOM     14  O   UNL     1       2.357   7.685  18.294  0.00  0.00    +0.000 OA
ATOM     15  N   UNL     1       2.531   6.407  20.232  0.00  0.00    +0.000 N 
ATOM     16  H   UNL     1       2.083   6.307  21.146  0.00  0.00    +0.000 HD
BRANCH  15  17
ATOM     17  C   UNL     1       3.278   5.299  19.722  0.00  0.00    +0.000 A 
ATOM     18  C   UNL     1       4.324   5.508  18.807  0.00  0.00    +0.000 A 
ATOM     19  C   UNL     1       5.027   4.466  18.167  0.00  0.00    +0.000 A 
ATOM     20  C   UNL     1       4.736   3.164  18.588  0.00  0.00    +0.000 A 
ATOM     21  C   UNL     1       3.737   2.918  19.534  0.00  0.00    +0.000 A 
ATOM     22  C   UNL     1       3.005   3.974  20.111  0.00  0.00    +0.000 A 
BRANCH  19  23
ATOM     23  C   UNL     1       6.040   4.772  17.052  0.00  0.00    +0.000 C 
ATOM     24  C   UNL     1       7.469   4.629  17.604  0.00  0.00    +0.000 C 
ATOM     25  C   UNL     1       5.871   3.818  15.845  0.00  0.00    +0.000 C 
ATOM     26  C   UNL     1       5.881   6.205  16.479  0.00  0.00    +0.000 C 
ENDBRANCH  19  23
BRANCH  22  27
ATOM     27  C   UNL     1       1.909   3.660  21.063  0.00  0.00    +0.000 C 
ATOM     28  O   UNL     1       2.102   3.233  22.189  0.00  0.00    +0.000 OA
BRANCH  27  29
ATOM     29  O   UNL     1       0.667   3.848  20.560  0.00  0.00    +0.000 OA
ATOM     30  H   UNL     1      -0.016   3.233  20.884  0.00  0.00    +0.000 HD
ENDBRANCH  27  29
ENDBRANCH  22  27
ENDBRANCH  15  17
ENDBRANCH   9  13
BRANCH   1  32
ATOM     31  C   UNL     1      -0.260  16.559  18.988  0.00  0.00    +0.000 C 
ATOM     32  C   UNL     1       0.693  15.518  19.586  0.00  0.00    +0.000 C 
BRANCH  32  33
ATOM     33  C   UNL     1       2.114  15.885  19.198  0.00  0.00    +0.000 A 
ATOM     34  C   UNL     1       2.681  15.284  18.060  0.00  0.00    +0.000 A 
ATOM     35  C   UNL     1       4.029  15.470  17.750  0.00  0.00    +0.000 A 
ATOM     36  C   UNL     1       4.825  16.270  18.564  0.00  0.00    +0.000 A 
ATOM     37  C   UNL     1       4.273  16.889  19.684  0.00  0.00    +0.000 A 
ATOM     38  C   UNL     1       2.929  16.693  20.005  0.00  0.00    +0.000 A 
ENDBRANCH  32  33
ENDBRANCH   1  32
TORSDOF 7
ENDMDL
MODEL 3
REMARK VINA RESULT:      -9.0      1.035      1.443
REMARK  Name = 
REMARK  11 active torsions:
REMARK  status: ('A' for Active; 'I' for Inactive)
REMARK    1  A    between atoms: C_1  and  C_2
REMARK    2  A    between atoms: C_2  and  N_3
REMARK    3  A    between atoms: C_2  and  C_29
REMARK    4  A    between atoms: C_11  and  C_12
REMARK    5  A    between atoms: N_14  and  C_15
REMARK    6  A    between atoms: C_17  and  C_18
REMARK    7  A    between atoms: C_18  and  C_19
REMARK    8  A    between atoms: C_18  and  C_20
REMARK    9  A    between atoms: C_18  and  C_21
REMARK   10  A    between atoms: C_24  and  C_25
REMARK   11  A    between atoms: C_25  and  O_27
REMARK                            x       y       z     vdW  Elec       q    Type
REMARK                         _______ _______ _______ _____ _____    ______ ____
ROOT
ATOM      1  N   UNL     1       0.025  14.002  19.516  0.00  0.00    +0.000 N 
ATOM      2  C   UNL     1       0.469  12.907  20.213  0.00  0.00    +0.000 C 
ATOM      3  O   UNL     1       1.172  13.010  21.211  0.00  0.00    +0.000 OA
ATOM      4  N   UNL     1       0.050  11.716  19.659  0.00  0.00    +0.000 N 
ATOM      5  C   UNL     1       0.462  10.495  20.214  0.00  0.00    +0.000 A 
ATOM      6  C   UNL     1       0.392  10.288  21.595  0.00  0.00    +0.000 A 
ATOM      7  C   UNL     1       0.901   9.118  22.130  0.00  0.00    +0.000 A 
ATOM      8  C   UNL     1       1.466   8.191  21.269  0.00  0.00    +0.000 A 
ATOM      9  C   UNL     1       1.468   8.461  19.899  0.00  0.00    +0.000 A 
ATOM     10  N   UNL     1       0.935   9.577  19.341  0.00  0.00    +0.000 NA
ATOM     11  H   UNL     1      -0.618  13.871  18.751  0.00  0.00    +0.000 HD
ATOM     12  H   UNL     1       0.012  11.696  18.652  0.00  0.00    +0.000 HD
ENDROOT
BRANCH   9  13
ATOM     13  C   UNL     1       2.125   7.468  19.004  0.00  0.00    +0.000 C 
ATOM     14  O   UNL     1       2.539   7.874  17.916  0.00  0.00    +0.000 OA
ATOM     15  N   UNL     1       2.207   6.152  19.447  0.00  0.00    +0.000 N 
ATOM     16  H   UNL     1       1.607   5.917  20.242  0.00  0.00    +0.000 HD
BRANCH  15  17
ATOM     17  C   UNL     1       2.855   5.084  18.751  0.00  0.00    +0.000 A 
ATOM     18  C   UNL     1       4.033   5.323  18.022  0.00  0.00    +0.000 A 
ATOM     19  C   UNL     1       4.664   4.356  17.213  0.00  0.00    +0.000 A 
ATOM     20  C   UNL     1       4.144   3.058  17.266  0.00  0.00    +0.000 A 
ATOM     21  C   UNL     1       3.004   2.769  18.021  0.00  0.00    +0.000 A 
ATOM     22  C   UNL     1       2.354   3.769  18.770  0.00  0.00    +0.000 A 
BRANCH  19  23
ATOM     23  C   UNL     1       5.850   4.739  16.311  0.00  0.00    +0.000 C 
ATOM     24  C   UNL     1       5.656   6.174  15.792  0.00  0.00    +0.000 C 
ATOM     25  C   UNL     1       7.197   4.657  17.068  0.00  0.00    +0.000 C 
ATOM     26  C   UNL     1       5.997   3.795  15.088  0.00  0.00    +0.000 C 
ENDBRANCH  19  23
BRANCH  22  27
ATOM     27  C   UNL     1       1.108   3.430  19.505  0.00  0.00    +0.000 C 
ATOM     28  O   UNL     1       0.243   2.699  19.054  0.00  0.00    +0.000 OA
BRANCH  27  29
ATOM     29  O   UNL     1       0.992   4.038  20.708  0.00  0.00    +0.000 OA
ATOM     30  H   UNL     1       1.727   3.887  21.330  0.00  0.00    +0.000 HD
ENDBRANCH  27  29
ENDBRANCH  22  27
ENDBRANCH  15  17
ENDBRANCH   9  13
BRANCH   1  32
ATOM     31  C   UNL     1      -0.844  16.196  20.288  0.00  0.00    +0.000 C 
ATOM     32  C   UNL     1       0.385  15.345  19.947  0.00  0.00    +0.000 C 
BRANCH  32  33
ATOM     33  C   UNL     1       1.227  16.098  18.932  0.00  0.00    +0.000 A 
ATOM     34  C   UNL     1       0.662  17.205  18.272  0.00  0.00    +0.000 A 
ATOM     35  C   UNL     1       1.337  17.833  17.226  0.00  0.00    +0.000 A 
ATOM     36  C   UNL     1       2.591  17.374  16.832  0.00  0.00    +0.000 A 
ATOM     37  C   UNL     1       3.173  16.292  17.489  0.00  0.00    +0.000 A 
ATOM     38  C   UNL     1       2.494  15.652  18.527  0.00  0.00    +0.000 A 
ENDBRANCH  32  33
ENDBRANCH   1  32
TORSDOF 7
ENDMDL
MODEL 4
REMARK VINA RESULT:      -9.0      1.170      1.952
REMARK  Name = 
REMARK  11 active torsions:
REMARK  status: ('A' for Active; 'I' for Inactive)
REMARK    1  A    between atoms: C_1  and  C_2
REMARK    2  A    between atoms: C_2  and  N_3
REMARK    3  A    between atoms: C_2  and  C_29
REMARK    4  A    between atoms: C_11  and  C_12
REMARK    5  A    between atoms: N_14  and  C_15
REMARK    6  A    between atoms: C_17  and  C_18
REMARK    7  A    between atoms: C_18  and  C_19
REMARK    8  A    between atoms: C_18  and  C_20
REMARK    9  A    between atoms: C_18  and  C_21
REMARK   10  A    between atoms: C_24  and  C_25
REMARK   11  A    between atoms: C_25  and  O_27
REMARK                            x       y       z     vdW  Elec       q    Type
REMARK                         _______ _______ _______ _____ _____    ______ ____
ROOT
ATOM      1  N   UNL     1       0.395  14.233  19.618  0.00  0.00    +0.000 N 
ATOM      2  C   UNL     1       0.660  13.137  20.401  0.00  0.00    +0.000 C 
ATOM      3  O   UNL     1       1.231  13.229  21.481  0.00  0.00    +0.000 OA
ATOM      4  N   UNL     1       0.230  11.958  19.830  0.00  0.00    +0.000 N 
ATOM      5  C   UNL     1       0.472  10.733  20.472  0.00  0.00    +0.000 A 
ATOM      6  C   UNL     1       0.205  10.586  21.836  0.00  0.00    +0.000 A 
ATOM      7  C   UNL     1       0.550   9.405  22.470  0.00  0.00    +0.000 A 
ATOM      8  C   UNL     1       1.153   8.408  21.720  0.00  0.00    +0.000 A 
ATOM      9  C   UNL     1       1.356   8.623  20.355  0.00  0.00    +0.000 A 
ATOM     10  N   UNL     1       0.986   9.751  19.698  0.00  0.00    +0.000 NA
ATOM     11  H   UNL     1      -0.149  14.117  18.778  0.00  0.00    +0.000 HD
ATOM     12  H   UNL     1       0.324  11.901  18.829  0.00  0.00    +0.000 HD
ENDROOT
BRANCH   9  13
ATOM     13  C   UNL     1       2.049   7.552  19.586  0.00  0.00    +0.000 C 
ATOM     14  O   UNL     1       2.209   7.736  18.378  0.00  0.00    +0.000 OA
ATOM     15  N   UNL     1       2.448   6.413  20.279  0.00  0.00    +0.000 N 
ATOM     16  H   UNL     1       2.031   6.292  21.205  0.00  0.00    +0.000 HD
BRANCH  15  17
ATOM     17  C   UNL     1       3.177   5.317  19.718  0.00  0.00    +0.000 A 
ATOM     18  C   UNL     1       4.202   5.550  18.785  0.00  0.00    +0.000 A 
ATOM     19  C   UNL     1       4.885   4.525  18.099  0.00  0.00    +0.000 A 
ATOM     20  C   UNL     1       4.598   3.211  18.487  0.00  0.00    +0.000 A 
ATOM     21  C   UNL     1       3.620   2.942  19.448  0.00  0.00    +0.000 A 
ATOM     22  C   UNL     1       2.907   3.983  20.073  0.00  0.00    +0.000 A 
BRANCH  19  23
ATOM     23  C   UNL     1       5.874   4.860  16.969  0.00  0.00    +0.000 C 
ATOM     24  C   UNL     1       5.523   6.234  16.372  0.00  0.00    +0.000 C 
ATOM     25  C   UNL     1       7.335   4.892  17.477  0.00  0.00    +0.000 C 
ATOM     26  C   UNL     1       5.849   3.812  15.826  0.00  0.00    +0.000 C 
ENDBRANCH  19  23
BRANCH  22  27
ATOM     27  C   UNL     1       1.832   3.645  21.041  0.00  0.00    +0.000 C 
ATOM     28  O   UNL     1       2.050   3.225  22.164  0.00  0.00    +0.000 OA
BRANCH  27  29
ATOM     29  O   UNL     1       0.579   3.803  20.555  0.00  0.00    +0.000 OA
ATOM     30  H   UNL     1       0.087   2.979  20.381  0.00  0.00    +0.000 HD
ENDBRANCH  27  29
ENDBRANCH  22  27
ENDBRANCH  15  17
ENDBRANCH   9  13
BRANCH   1  32
ATOM     31  C   UNL     1      -0.144  16.654  19.528  0.00  0.00    +0.000 C 
ATOM     32  C   UNL     1       0.795  15.563  20.055  0.00  0.00    +0.000 C 
BRANCH  32  33
ATOM     33  C   UNL     1       2.218  15.922  19.664  0.00  0.00    +0.000 A 
ATOM     34  C   UNL     1       3.043  16.549  20.615  0.00  0.00    +0.000 A 
ATOM     35  C   UNL     1       4.301  17.035  20.260  0.00  0.00    +0.000 A 
ATOM     36  C   UNL     1       4.759  16.890  18.954  0.00  0.00    +0.000 A 
ATOM     37  C   UNL     1       3.962  16.254  18.004  0.00  0.00    +0.000 A 
ATOM     38  C   UNL     1       2.697  15.779  18.353  0.00  0.00    +0.000 A 
ENDBRANCH  32  33
ENDBRANCH   1  32
TORSDOF 7
ENDMDL
MODEL 5
REMARK VINA RESULT:      -8.9      0.769      1.294
REMARK  Name = 
REMARK  11 active torsions:
REMARK  status: ('A' for Active; 'I' for Inactive)
REMARK    1  A    between atoms: C_1  and  C_2
REMARK    2  A    between atoms: C_2  and  N_3
REMARK    3  A    between atoms: C_2  and  C_29
REMARK    4  A    between atoms: C_11  and  C_12
REMARK    5  A    between atoms: N_14  and  C_15
REMARK    6  A    between atoms: C_17  and  C_18
REMARK    7  A    between atoms: C_18  and  C_19
REMARK    8  A    between atoms: C_18  and  C_20
REMARK    9  A    between atoms: C_18  and  C_21
REMARK   10  A    between atoms: C_24  and  C_25
REMARK   11  A    between atoms: C_25  and  O_27
REMARK                            x       y       z     vdW  Elec       q    Type
REMARK                         _______ _______ _______ _____ _____    ______ ____
ROOT
ATOM      1  N   UNL     1      -1.211  14.075  20.040  0.00  0.00    +0.000 N 
ATOM      2  C   UNL     1      -0.652  13.079  20.801  0.00  0.00    +0.000 C 
ATOM      3  O   UNL     1      -0.004  13.318  21.814  0.00  0.00    +0.000 OA
ATOM      4  N   UNL     1      -0.891  11.821  20.291  0.00  0.00    +0.000 N 
ATOM      5  C   UNL     1      -0.342  10.690  20.916  0.00  0.00    +0.000 A 
ATOM      6  C   UNL     1      -0.434  10.535  22.303  0.00  0.00    +0.000 A 
ATOM      7  C   UNL     1       0.206   9.467  22.908  0.00  0.00    +0.000 A 
ATOM      8  C   UNL     1       0.917   8.587  22.109  0.00  0.00    +0.000 A 
ATOM      9  C   UNL     1       0.933   8.796  20.729  0.00  0.00    +0.000 A 
ATOM     10  N   UNL     1       0.278   9.806  20.103  0.00  0.00    +0.000 NA
ATOM     11  H   UNL     1      -1.803  13.827  19.263  0.00  0.00    +0.000 HD
ATOM     12  H   UNL     1      -0.890  11.752  19.286  0.00  0.00    +0.000 HD
ENDROOT
BRANCH   9  13
ATOM     13  C   UNL     1       1.746   7.861  19.901  0.00  0.00    +0.000 C 
ATOM     14  O   UNL     1       1.940   8.170  18.724  0.00  0.00    +0.000 OA
ATOM     15  N   UNL     1       2.210   6.698  20.507  0.00  0.00    +0.000 N 
ATOM     16  H   UNL     1       1.766   6.457  21.397  0.00  0.00    +0.000 HD
BRANCH  15  17
ATOM     17  C   UNL     1       3.053   5.722  19.887  0.00  0.00    +0.000 A 
ATOM     18  C   UNL     1       4.064   6.120  18.996  0.00  0.00    +0.000 A 
ATOM     19  C   UNL     1       4.855   5.219  18.254  0.00  0.00    +0.000 A 
ATOM     20  C   UNL     1       4.693   3.860  18.542  0.00  0.00    +0.000 A 
ATOM     21  C   UNL     1       3.732   3.427  19.460  0.00  0.00    +0.000 A 
ATOM     22  C   UNL     1       2.910   4.345  20.141  0.00  0.00    +0.000 A 
BRANCH  19  23
ATOM     23  C   UNL     1       5.823   5.730  17.173  0.00  0.00    +0.000 C 
ATOM     24  C   UNL     1       6.340   4.541  16.345  0.00  0.00    +0.000 C 
ATOM     25  C   UNL     1       5.140   6.743  16.224  0.00  0.00    +0.000 C 
ATOM     26  C   UNL     1       7.045   6.475  17.772  0.00  0.00    +0.000 C 
ENDBRANCH  19  23
BRANCH  22  27
ATOM     27  C   UNL     1       1.859   3.835  21.059  0.00  0.00    +0.000 C 
ATOM     28  O   UNL     1       2.103   3.336  22.144  0.00  0.00    +0.000 OA
BRANCH  27  29
ATOM     29  O   UNL     1       0.602   3.932  20.569  0.00  0.00    +0.000 OA
ATOM     30  H   UNL     1       0.533   4.045  19.604  0.00  0.00    +0.000 HD
ENDBRANCH  27  29
ENDBRANCH  22  27
ENDBRANCH  15  17
ENDBRANCH   9  13
BRANCH   1  32
ATOM     31  C   UNL     1      -2.366  16.116  20.854  0.00  0.00    +0.000 C 
ATOM     32  C   UNL     1      -1.045  15.471  20.417  0.00  0.00    +0.000 C 
BRANCH  32  33
ATOM     33  C   UNL     1      -0.432  16.323  19.320  0.00  0.00    +0.000 A 
ATOM     34  C   UNL     1       0.965  16.479  19.285  0.00  0.00    +0.000 A 
ATOM     35  C   UNL     1       1.563  17.371  18.394  0.00  0.00    +0.000 A 
ATOM     36  C   UNL     1       0.775  18.109  17.517  0.00  0.00    +0.000 A 
ATOM     37  C   UNL     1      -0.610  17.952  17.524  0.00  0.00    +0.000 A 
ATOM     38  C   UNL     1      -1.212  17.070  18.424  0.00  0.00    +0.000 A 
ENDBRANCH  32  33
ENDBRANCH   1  32
TORSDOF 7
ENDMDL
MODEL 6
REMARK VINA RESULT:      -8.7      3.077      4.688
REMARK  Name = 
REMARK  11 active torsions:
REMARK  status: ('A' for Active; 'I' for Inactive)
REMARK    1  A    between atoms: C_1  and  C_2
REMARK    2  A    between atoms: C_2  and  N_3
REMARK    3  A    between atoms: C_2  and  C_29
REMARK    4  A    between atoms: C_11  and  C_12
REMARK    5  A    between atoms: N_14  and  C_15
REMARK    6  A    between atoms: C_17  and  C_18
REMARK    7  A    between atoms: C_18  and  C_19
REMARK    8  A    between atoms: C_18  and  C_20
REMARK    9  A    between atoms: C_18  and  C_21
REMARK   10  A    between atoms: C_24  and  C_25
REMARK   11  A    between atoms: C_25  and  O_27
REMARK                            x       y       z     vdW  Elec       q    Type
REMARK                         _______ _______ _______ _____ _____    ______ ____
ROOT
ATOM      1  N   UNL     1       3.588  14.363  17.663  0.00  0.00    +0.000 N 
ATOM      2  C   UNL     1       2.781  13.497  18.356  0.00  0.00    +0.000 C 
ATOM      3  O   UNL     1       2.349  13.758  19.472  0.00  0.00    +0.000 OA
ATOM      4  N   UNL     1       2.538  12.328  17.666  0.00  0.00    +0.000 N 
ATOM      5  C   UNL     1       1.775  11.307  18.254  0.00  0.00    +0.000 A 
ATOM      6  C   UNL     1       0.565  11.604  18.887  0.00  0.00    +0.000 A 
ATOM      7  C   UNL     1      -0.117  10.599  19.551  0.00  0.00    +0.000 A 
ATOM      8  C   UNL     1       0.433   9.327  19.563  0.00  0.00    +0.000 A 
ATOM      9  C   UNL     1       1.631   9.107  18.880  0.00  0.00    +0.000 A 
ATOM     10  N   UNL     1       2.297  10.062  18.182  0.00  0.00    +0.000 NA
ATOM     11  H   UNL     1       3.851  14.140  16.716  0.00  0.00    +0.000 HD
ATOM     12  H   UNL     1       3.309  11.976  17.121  0.00  0.00    +0.000 HD
ENDROOT
BRANCH   9  13
ATOM     13  C   UNL     1       2.222   7.741  18.951  0.00  0.00    +0.000 C 
ATOM     14  O   UNL     1       2.188   7.166  20.040  0.00  0.00    +0.000 OA
ATOM     15  N   UNL     1       2.789   7.221  17.791  0.00  0.00    +0.000 N 
ATOM     16  H   UNL     1       2.969   7.899  17.046  0.00  0.00    +0.000 HD
BRANCH  15  17
ATOM     17  C   UNL     1       3.344   5.909  17.659  0.00  0.00    +0.000 A 
ATOM     18  C   UNL     1       2.723   4.810  18.278  0.00  0.00    +0.000 A 
ATOM     19  C   UNL     1       3.268   3.510  18.298  0.00  0.00    +0.000 A 
ATOM     20  C   UNL     1       4.424   3.303  17.536  0.00  0.00    +0.000 A 
ATOM     21  C   UNL     1       5.042   4.361  16.864  0.00  0.00    +0.000 A 
ATOM     22  C   UNL     1       4.512   5.665  16.914  0.00  0.00    +0.000 A 
BRANCH  19  23
ATOM     23  C   UNL     1       2.619   2.399  19.139  0.00  0.00    +0.000 C 
ATOM     24  C   UNL     1       3.368   1.076  18.907  0.00  0.00    +0.000 C 
ATOM     25  C   UNL     1       2.646   2.732  20.650  0.00  0.00    +0.000 C 
ATOM     26  C   UNL     1       1.124   2.180  18.785  0.00  0.00    +0.000 C 
ENDBRANCH  19  23
BRANCH  22  27
ATOM     27  C   UNL     1       5.240   6.770  16.238  0.00  0.00    +0.000 C 
ATOM     28  O   UNL     1       4.919   7.215  15.149  0.00  0.00    +0.000 OA
BRANCH  27  29
ATOM     29  O   UNL     1       6.322   7.217  16.915  0.00  0.00    +0.000 OA
ATOM     30  H   UNL     1       6.470   6.810  17.789  0.00  0.00    +0.000 HD
ENDBRANCH  27  29
ENDBRANCH  22  27
ENDBRANCH  15  17
ENDBRANCH   9  13
BRANCH   1  32
ATOM     31  C   UNL     1       3.292  16.824  17.540  0.00  0.00    +0.000 C 
ATOM     32  C   UNL     1       3.966  15.642  18.246  0.00  0.00    +0.000 C 
BRANCH  32  33
ATOM     33  C   UNL     1       5.466  15.880  18.257  0.00  0.00    +0.000 A 
ATOM     34  C   UNL     1       6.319  14.842  17.840  0.00  0.00    +0.000 A 
ATOM     35  C   UNL     1       7.702  14.956  17.977  0.00  0.00    +0.000 A 
ATOM     36  C   UNL     1       8.255  16.112  18.520  0.00  0.00    +0.000 A 
ATOM     37  C   UNL     1       7.425  17.158  18.919  0.00  0.00    +0.000 A 
ATOM     38  C   UNL     1       6.039  17.042  18.797  0.00  0.00    +0.000 A 
ENDBRANCH  32  33
ENDBRANCH   1  32
TORSDOF 7
ENDMDL
MODEL 7
REMARK VINA RESULT:      -8.6      1.095      1.583
REMARK  Name = 
REMARK  11 active torsions:
REMARK  status: ('A' for Active; 'I' for Inactive)
REMARK    1  A    between atoms: C_1  and  C_2
REMARK    2  A    between atoms: C_2  and  N_3
REMARK    3  A    between atoms: C_2  and  C_29
REMARK    4  A    between atoms: C_11  and  C_12
REMARK    5  A    between atoms: N_14  and  C_15
REMARK    6  A    between atoms: C_17  and  C_18
REMARK    7  A    between atoms: C_18  and  C_19
REMARK    8  A    between atoms: C_18  and  C_20
REMARK    9  A    between atoms: C_18  and  C_21
REMARK   10  A    between atoms: C_24  and  C_25
REMARK   11  A    between atoms: C_25  and  O_27
REMARK                            x       y       z     vdW  Elec       q    Type
REMARK                         _______ _______ _______ _____ _____    ______ ____
ROOT
ATOM      1  N   UNL     1      -1.200  13.773  20.148  0.00  0.00    +0.000 N 
ATOM      2  C   UNL     1      -0.536  12.766  20.803  0.00  0.00    +0.000 C 
ATOM      3  O   UNL     1       0.170  12.979  21.782  0.00  0.00    +0.000 OA
ATOM      4  N   UNL     1      -0.745  11.530  20.230  0.00  0.00    +0.000 N 
ATOM      5  C   UNL     1      -0.095  10.396  20.741  0.00  0.00    +0.000 A 
ATOM      6  C   UNL     1      -0.078  10.152  22.118  0.00  0.00    +0.000 A 
ATOM      7  C   UNL     1       0.658   9.087  22.607  0.00  0.00    +0.000 A 
ATOM      8  C   UNL     1       1.355   8.299  21.706  0.00  0.00    +0.000 A 
ATOM      9  C   UNL     1       1.261   8.592  20.344  0.00  0.00    +0.000 A 
ATOM     10  N   UNL     1       0.510   9.600  19.831  0.00  0.00    +0.000 NA
ATOM     11  H   UNL     1      -1.832  13.540  19.399  0.00  0.00    +0.000 HD
ATOM     12  H   UNL     1      -0.813  11.523  19.225  0.00  0.00    +0.000 HD
ENDROOT
BRANCH   9  13
ATOM     13  C   UNL     1       2.060   7.757  19.404  0.00  0.00    +0.000 C 
ATOM     14  O   UNL     1       2.235   8.197  18.266  0.00  0.00    +0.000 OA
ATOM     15  N   UNL     1       2.532   6.533  19.867  0.00  0.00    +0.000 N 
ATOM     16  H   UNL     1       2.102   6.194  20.732  0.00  0.00    +0.000 HD
BRANCH  15  17
ATOM     17  C   UNL     1       3.363   5.634  19.128  0.00  0.00    +0.000 A 
ATOM     18  C   UNL     1       4.709   5.955  18.877  0.00  0.00    +0.000 A 
ATOM     19  C   UNL     1       5.559   5.184  18.058  0.00  0.00    +0.000 A 
ATOM     20  C   UNL     1       5.047   3.967  17.593  0.00  0.00    +0.000 A 
ATOM     21  C   UNL     1       3.730   3.589  17.864  0.00  0.00    +0.000 A 
ATOM     22  C   UNL     1       2.880   4.409  18.633  0.00  0.00    +0.000 A 
BRANCH  19  23
ATOM     23  C   UNL     1       6.965   5.688  17.692  0.00  0.00    +0.000 C 
ATOM     24  C   UNL     1       7.483   4.915  16.467  0.00  0.00    +0.000 C 
ATOM     25  C   UNL     1       6.966   7.201  17.367  0.00  0.00    +0.000 C 
ATOM     26  C   UNL     1       7.983   5.506  18.848  0.00  0.00    +0.000 C 
ENDBRANCH  19  23
BRANCH  22  27
ATOM     27  C   UNL     1       1.468   3.996  18.841  0.00  0.00    +0.000 C 
ATOM     28  O   UNL     1       0.724   3.676  17.930  0.00  0.00    +0.000 OA
BRANCH  27  29
ATOM     29  O   UNL     1       1.060   4.048  20.130  0.00  0.00    +0.000 OA
ATOM     30  H   UNL     1       1.454   3.383  20.724  0.00  0.00    +0.000 HD
ENDBRANCH  27  29
ENDBRANCH  22  27
ENDBRANCH  15  17
ENDBRANCH   9  13
BRANCH   1  32
ATOM     31  C   UNL     1      -2.446  15.804  20.843  0.00  0.00    +0.000 C 
ATOM     32  C   UNL     1      -1.080  15.151  20.603  0.00  0.00    +0.000 C 
BRANCH  32  33
ATOM     33  C   UNL     1      -0.283  16.032  19.656  0.00  0.00    +0.000 A 
ATOM     34  C   UNL     1       1.031  16.388  20.007  0.00  0.00    +0.000 A 
ATOM     35  C   UNL     1       1.746  17.315  19.249  0.00  0.00    +0.000 A 
ATOM     36  C   UNL     1       1.165  17.889  18.122  0.00  0.00    +0.000 A 
ATOM     37  C   UNL     1      -0.129  17.531  17.749  0.00  0.00    +0.000 A 
ATOM     38  C   UNL     1      -0.854  16.614  18.514  0.00  0.00    +0.000 A 
ENDBRANCH  32  33
ENDBRANCH   1  32
TORSDOF 7
ENDMDL
MODEL 8
REMARK VINA RESULT:      -8.6      2.995      4.629
REMARK  Name = 
REMARK  11 active torsions:
REMARK  status: ('A' for Active; 'I' for Inactive)
REMARK    1  A    between atoms: C_1  and  C_2
REMARK    2  A    between atoms: C_2  and  N_3
REMARK    3  A    between atoms: C_2  and  C_29
REMARK    4  A    between atoms: C_11  and  C_12
REMARK    5  A    between atoms: N_14  and  C_15
REMARK    6  A    between atoms: C_17  and  C_18
REMARK    7  A    between atoms: C_18  and  C_19
REMARK    8  A    between atoms: C_18  and  C_20
REMARK    9  A    between atoms: C_18  and  C_21
REMARK   10  A    between atoms: C_24  and  C_25
REMARK   11  A    between atoms: C_25  and  O_27
REMARK                            x       y       z     vdW  Elec       q    Type
REMARK                         _______ _______ _______ _____ _____    ______ ____
ROOT
ATOM      1  N   UNL     1       3.473  14.400  17.668  0.00  0.00    +0.000 N 
ATOM      2  C   UNL     1       2.675  13.556  18.399  0.00  0.00    +0.000 C 
ATOM      3  O   UNL     1       2.276  13.843  19.521  0.00  0.00    +0.000 OA
ATOM      4  N   UNL     1       2.401  12.377  17.739  0.00  0.00    +0.000 N 
ATOM      5  C   UNL     1       1.644  11.376  18.366  0.00  0.00    +0.000 A 
ATOM      6  C   UNL     1       0.454  11.698  19.025  0.00  0.00    +0.000 A 
ATOM      7  C   UNL     1      -0.220  10.714  19.726  0.00  0.00    +0.000 A 
ATOM      8  C   UNL     1       0.316   9.437  19.747  0.00  0.00    +0.000 A 
ATOM      9  C   UNL     1       1.493   9.190  19.037  0.00  0.00    +0.000 A 
ATOM     10  N   UNL     1       2.150  10.124  18.303  0.00  0.00    +0.000 NA
ATOM     11  H   UNL     1       3.708  14.156  16.719  0.00  0.00    +0.000 HD
ATOM     12  H   UNL     1       3.154  12.007  17.180  0.00  0.00    +0.000 HD
ENDROOT
BRANCH   9  13
ATOM     13  C   UNL     1       2.071   7.819  19.119  0.00  0.00    +0.000 C 
ATOM     14  O   UNL     1       2.034   7.254  20.213  0.00  0.00    +0.000 OA
ATOM     15  N   UNL     1       2.630   7.283  17.963  0.00  0.00    +0.000 N 
ATOM     16  H   UNL     1       2.814   7.953  17.211  0.00  0.00    +0.000 HD
BRANCH  15  17
ATOM     17  C   UNL     1       3.171   5.965  17.841  0.00  0.00    +0.000 A 
ATOM     18  C   UNL     1       2.494   4.865  18.396  0.00  0.00    +0.000 A 
ATOM     19  C   UNL     1       3.016   3.556  18.424  0.00  0.00    +0.000 A 
ATOM     20  C   UNL     1       4.216   3.344  17.735  0.00  0.00    +0.000 A 
ATOM     21  C   UNL     1       4.894   4.404  17.127  0.00  0.00    +0.000 A 
ATOM     22  C   UNL     1       4.382   5.716  17.168  0.00  0.00    +0.000 A 
BRANCH  19  23
ATOM     23  C   UNL     1       2.296   2.440  19.199  0.00  0.00    +0.000 C 
ATOM     24  C   UNL     1       2.240   2.807  20.692  0.00  0.00    +0.000 C 
ATOM     25  C   UNL     1       0.854   2.221  18.682  0.00  0.00    +0.000 C 
ATOM     26  C   UNL     1       3.004   1.066  19.062  0.00  0.00    +0.000 C 
ENDBRANCH  19  23
BRANCH  22  27
ATOM     27  C   UNL     1       5.169   6.821  16.563  0.00  0.00    +0.000 C 
ATOM     28  O   UNL     1       5.767   7.654  17.221  0.00  0.00    +0.000 OA
BRANCH  27  29
ATOM     29  O   UNL     1       5.132   6.852  15.211  0.00  0.00    +0.000 OA
ATOM     30  H   UNL     1       4.247   6.772  14.811  0.00  0.00    +0.000 HD
ENDBRANCH  27  29
ENDBRANCH  22  27
ENDBRANCH  15  17
ENDBRANCH   9  13
BRANCH   1  32
ATOM     31  C   UNL     1       3.334  16.864  17.401  0.00  0.00    +0.000 C 
ATOM     32  C   UNL     1       3.880  15.686  18.216  0.00  0.00    +0.000 C 
BRANCH  32  33
ATOM     33  C   UNL     1       5.386  15.840  18.337  0.00  0.00    +0.000 A 
ATOM     34  C   UNL     1       5.906  17.054  18.820  0.00  0.00    +0.000 A 
ATOM     35  C   UNL     1       7.279  17.299  18.805  0.00  0.00    +0.000 A 
ATOM     36  C   UNL     1       8.153  16.331  18.321  0.00  0.00    +0.000 A 
ATOM     37  C   UNL     1       7.656  15.115  17.858  0.00  0.00    +0.000 A 
ATOM     38  C   UNL     1       6.281  14.871  17.858  0.00  0.00    +0.000 A 
ENDBRANCH  32  33
ENDBRANCH   1  32
TORSDOF 7
ENDMDL
MODEL 9
REMARK VINA RESULT:      -8.4      1.244      1.631
REMARK  Name = 
REMARK  11 active torsions:
REMARK  status: ('A' for Active; 'I' for Inactive)
REMARK    1  A    between atoms: C_1  and  C_2
REMARK    2  A    between atoms: C_2  and  N_3
REMARK    3  A    between atoms: C_2  and  C_29
REMARK    4  A    between atoms: C_11  and  C_12
REMARK    5  A    between atoms: N_14  and  C_15
REMARK    6  A    between atoms: C_17  and  C_18
REMARK    7  A    between atoms: C_18  and  C_19
REMARK    8  A    between atoms: C_18  and  C_20
REMARK    9  A    between atoms: C_18  and  C_21
REMARK   10  A    between atoms: C_24  and  C_25
REMARK   11  A    between atoms: C_25  and  O_27
REMARK                            x       y       z     vdW  Elec       q    Type
REMARK                         _______ _______ _______ _____ _____    ______ ____
ROOT
ATOM      1  N   UNL     1       0.048  14.044  20.050  0.00  0.00    +0.000 N 
ATOM      2  C   UNL     1       0.419  12.876  20.667  0.00  0.00    +0.000 C 
ATOM      3  O   UNL     1       1.021  12.864  21.735  0.00  0.00    +0.000 OA
ATOM      4  N   UNL     1       0.054  11.756  19.951  0.00  0.00    +0.000 N 
ATOM      5  C   UNL     1       0.406  10.478  20.411  0.00  0.00    +0.000 A 
ATOM      6  C   UNL     1       0.200  10.127  21.749  0.00  0.00    +0.000 A 
ATOM      7  C   UNL     1       0.651   8.901  22.205  0.00  0.00    +0.000 A 
ATOM      8  C   UNL     1       1.296   8.063  21.309  0.00  0.00    +0.000 A 
ATOM      9  C   UNL     1       1.434   8.476  19.983  0.00  0.00    +0.000 A 
ATOM     10  N   UNL     1       0.961   9.651  19.497  0.00  0.00    +0.000 NA
ATOM     11  H   UNL     1      -0.517  14.003  19.216  0.00  0.00    +0.000 HD
ATOM     12  H   UNL     1       0.115  11.842  18.949  0.00  0.00    +0.000 HD
ENDROOT
BRANCH   9  13
ATOM     13  C   UNL     1       2.174   7.574  19.056  0.00  0.00    +0.000 C 
ATOM     14  O   UNL     1       2.870   8.104  18.187  0.00  0.00    +0.000 OA
ATOM     15  N   UNL     1       2.012   6.202  19.221  0.00  0.00    +0.000 N 
ATOM     16  H   UNL     1       1.223   5.919  19.807  0.00  0.00    +0.000 HD
BRANCH  15  17
ATOM     17  C   UNL     1       2.689   5.193  18.467  0.00  0.00    +0.000 A 
ATOM     18  C   UNL     1       3.825   5.518  17.705  0.00  0.00    +0.000 A 
ATOM     19  C   UNL     1       4.476   4.612  16.843  0.00  0.00    +0.000 A 
ATOM     20  C   UNL     1       4.027   3.287  16.870  0.00  0.00    +0.000 A 
ATOM     21  C   UNL     1       2.932   2.914  17.654  0.00  0.00    +0.000 A 
ATOM     22  C   UNL     1       2.258   3.853  18.459  0.00  0.00    +0.000 A 
BRANCH  19  23
ATOM     23  C   UNL     1       5.606   5.087  15.913  0.00  0.00    +0.000 C 
ATOM     24  C   UNL     1       5.503   6.609  15.718  0.00  0.00    +0.000 C 
ATOM     25  C   UNL     1       7.002   4.748  16.488  0.00  0.00    +0.000 C 
ATOM     26  C   UNL     1       5.552   4.412  14.517  0.00  0.00    +0.000 C 
ENDBRANCH  19  23
BRANCH  22  27
ATOM     27  C   UNL     1       1.060   3.425  19.225  0.00  0.00    +0.000 C 
ATOM     28  O   UNL     1       0.788   3.849  20.335  0.00  0.00    +0.000 OA
BRANCH  27  29
ATOM     29  O   UNL     1       0.312   2.484  18.603  0.00  0.00    +0.000 OA
ATOM     30  H   UNL     1       0.359   1.588  18.984  0.00  0.00    +0.000 HD
ENDBRANCH  27  29
ENDBRANCH  22  27
ENDBRANCH  15  17
ENDBRANCH   9  13
BRANCH   1  32
ATOM     31  C   UNL     1      -0.536  15.649  21.851  0.00  0.00    +0.000 C 
ATOM     32  C   UNL     1       0.367  15.329  20.654  0.00  0.00    +0.000 C 
BRANCH  32  33
ATOM     33  C   UNL     1       0.300  16.489  19.676  0.00  0.00    +0.000 A 
ATOM     34  C   UNL     1      -0.455  16.339  18.499  0.00  0.00    +0.000 A 
ATOM     35  C   UNL     1      -0.423  17.313  17.501  0.00  0.00    +0.000 A 
ATOM     36  C   UNL     1       0.352  18.456  17.670  0.00  0.00    +0.000 A 
ATOM     37  C   UNL     1       1.090  18.630  18.838  0.00  0.00    +0.000 A 
ATOM     38  C   UNL     1       1.072  17.650  19.833  0.00  0.00    +0.000 A 
ENDBRANCH  32  33
ENDBRANCH   1  32
TORSDOF 7
ENDMDL
