MODEL 1
REMARK VINA RESULT:      -7.6      0.000      0.000
REMARK  Name = 
REMARK  8 active torsions:
REMARK  status: ('A' for Active; 'I' for Inactive)
REMARK    1  A    between atoms: C_1  and  C_2
REMARK    2  A    between atoms: C_2  and  N_3
REMARK    3  A    between atoms: C_2  and  C_17
REMARK    4  A    between atoms: C_4  and  C_6
REMARK    5  A    between atoms: C_9  and  C_10
REMARK    6  A    between atoms: C_10  and  S_11
REMARK    7  A    between atoms: S_11  and  C_12
REMARK    8  A    between atoms: C_20  and  C_21
REMARK                            x       y       z     vdW  Elec       q    Type
REMARK                         _______ _______ _______ _____ _____    ______ ____
ROOT
ATOM      1  N   UNL     1       1.249  10.102  19.385  0.00  0.00    +0.000 N 
ATOM      2  C   UNL     1       1.943   9.495  18.359  0.00  0.00    +0.000 C 
ATOM      3  O   UNL     1       2.231  10.050  17.309  0.00  0.00    +0.000 OA
ATOM      4  H   UNL     1       0.912   9.548  20.159  0.00  0.00    +0.000 HD
ENDROOT
BRANCH   2   5
ATOM      5  C   UNL     1       2.328   8.072  18.588  0.00  0.00    +0.000 A 
ATOM      6  C   UNL     1       3.126   7.425  17.635  0.00  0.00    +0.000 A 
ATOM      7  C   UNL     1       3.524   6.098  17.833  0.00  0.00    +0.000 A 
ATOM      8  C   UNL     1       3.158   5.408  18.997  0.00  0.00    +0.000 A 
ATOM      9  C   UNL     1       2.360   6.064  19.947  0.00  0.00    +0.000 A 
ATOM     10  C   UNL     1       1.950   7.385  19.745  0.00  0.00    +0.000 A 
BRANCH   8  11
ATOM     11  C   UNL     1       3.596   3.983  19.221  0.00  0.00    +0.000 C 
BRANCH  11  12
ATOM     12  S   UNL     1       2.323   2.808  18.766  0.00  0.00    +0.000 S 
ATOM     13  C   UNL     1       1.352   2.552  20.234  0.00  0.00    +0.000 C 
ATOM     14  O   UNL     1       1.466   3.407  17.757  0.00  0.00    +0.000 OA
ATOM     15  O   UNL     1       2.993   1.549  18.486  0.00  0.00    +0.000 OA
ENDBRANCH  11  12
ENDBRANCH   8  11
ENDBRANCH   2   5
BRANCH   1  17
ATOM     16  C   UNL     1       1.406  12.282  20.526  0.00  0.00    +0.000 C 
ATOM     17  C   UNL     1       0.850  11.497  19.334  0.00  0.00    +0.000 C 
BRANCH  17  18
ATOM     18  C   UNL     1      -0.662  11.617  19.275  0.00  0.00    +0.000 A 
ATOM     19  C   UNL     1      -1.357  11.042  18.208  0.00  0.00    +0.000 A 
ATOM     20  C   UNL     1      -2.740  11.211  18.085  0.00  0.00    +0.000 A 
ATOM     21  C   UNL     1      -3.485  11.936  19.030  0.00  0.00    +0.000 A 
ATOM     22  C   UNL     1      -2.781  12.472  20.122  0.00  0.00    +0.000 A 
ATOM     23  C   UNL     1      -1.393  12.319  20.243  0.00  0.00    +0.000 A 
BRANCH  21  24
ATOM     24  C   UNL     1      -4.945  12.140  18.864  0.00  0.00    +0.000 A 
ATOM     25  C   UNL     1      -5.527  12.240  17.587  0.00  0.00    +0.000 A 
ATOM     26  C   UNL     1      -6.894  12.483  17.419  0.00  0.00    +0.000 A 
ATOM     27  C   UNL     1      -7.719  12.611  18.530  0.00  0.00    +0.000 A 
ATOM     28  C   UNL     1      -7.177  12.498  19.807  0.00  0.00    +0.000 A 
ATOM     29  C   UNL     1      -5.805  12.271  19.969  0.00  0.00    +0.000 A 
ENDBRANCH  21  24
ENDBRANCH  17  18
ENDBRANCH   1  17
TORSDOF 6
ENDMDL
MODEL 2
REMARK VINA RESULT:      -7.5      0.981      1.869
REMARK  Name = 
REMARK  8 active torsions:
REMARK  status: ('A' for Active; 'I' for Inactive)
REMARK    1  A    between atoms: C_1  and  C_2
REMARK    2  A    between atoms: C_2  and  N_3
REMARK    3  A    between atoms: C_2  and  C_17
REMARK    4  A    between atoms: C_4  and  C_6
REMARK    5  A    between atoms: C_9  and  C_10
REMARK    6  A    between atoms: C_10  and  S_11
REMARK    7  A    between atoms: S_11  and  C_12
REMARK    8  A    between atoms: C_20  and  C_21
REMARK                            x       y       z     vdW  Elec       q    Type
REMARK                         _______ _______ _______ _____ _____    ______ ____
ROOT
ATOM      1  N   UNL     1       1.143   9.581  19.381  0.00  0.00    +0.000 N 
ATOM      2  C   UNL     1       1.827   8.820  18.457  0.00  0.00    +0.000 C 
ATOM      3  O   UNL     1       2.250   9.254  17.394  0.00  0.00    +0.000 OA
ATOM      4  H   UNL     1       0.691   9.133  20.164  0.00  0.00    +0.000 HD
ENDROOT
BRANCH   2   5
ATOM      5  C   UNL     1       2.023   7.386  18.814  0.00  0.00    +0.000 A 
ATOM      6  C   UNL     1       2.080   7.025  20.167  0.00  0.00    +0.000 A 
ATOM      7  C   UNL     1       2.238   5.684  20.534  0.00  0.00    +0.000 A 
ATOM      8  C   UNL     1       2.312   4.681  19.559  0.00  0.00    +0.000 A 
ATOM      9  C   UNL     1       2.252   5.049  18.206  0.00  0.00    +0.000 A 
ATOM     10  C   UNL     1       2.108   6.390  17.837  0.00  0.00    +0.000 A 
BRANCH   8  11
ATOM     11  C   UNL     1       2.468   3.233  19.950  0.00  0.00    +0.000 C 
BRANCH  11  12
ATOM     12  S   UNL     1       4.049   2.564  19.438  0.00  0.00    +0.000 S 
ATOM     13  C   UNL     1       5.039   3.966  18.969  0.00  0.00    +0.000 C 
ATOM     14  O   UNL     1       4.683   1.925  20.579  0.00  0.00    +0.000 OA
ATOM     15  O   UNL     1       3.811   1.800  18.225  0.00  0.00    +0.000 OA
ENDBRANCH  11  12
ENDBRANCH   8  11
ENDBRANCH   2   5
BRANCH   1  17
ATOM     16  C   UNL     1       1.489  11.814  20.370  0.00  0.00    +0.000 C 
ATOM     17  C   UNL     1       0.918  11.005  19.201  0.00  0.00    +0.000 C 
BRANCH  17  18
ATOM     18  C   UNL     1      -0.562  11.292  19.025  0.00  0.00    +0.000 A 
ATOM     19  C   UNL     1      -1.184  12.230  19.853  0.00  0.00    +0.000 A 
ATOM     20  C   UNL     1      -2.562  12.450  19.769  0.00  0.00    +0.000 A 
ATOM     21  C   UNL     1      -3.368  11.765  18.844  0.00  0.00    +0.000 A 
ATOM     22  C   UNL     1      -2.723  10.856  17.987  0.00  0.00    +0.000 A 
ATOM     23  C   UNL     1      -1.344  10.620  18.076  0.00  0.00    +0.000 A 
BRANCH  21  24
ATOM     24  C   UNL     1      -4.834  11.981  18.795  0.00  0.00    +0.000 A 
ATOM     25  C   UNL     1      -5.519  12.066  17.568  0.00  0.00    +0.000 A 
ATOM     26  C   UNL     1      -6.893  12.320  17.509  0.00  0.00    +0.000 A 
ATOM     27  C   UNL     1      -7.622  12.474  18.682  0.00  0.00    +0.000 A 
ATOM     28  C   UNL     1      -6.978  12.376  19.912  0.00  0.00    +0.000 A 
ATOM     29  C   UNL     1      -5.600  12.138  19.964  0.00  0.00    +0.000 A 
ENDBRANCH  21  24
ENDBRANCH  17  18
ENDBRANCH   1  17
TORSDOF 6
ENDMDL
MODEL 3
REMARK VINA RESULT:      -7.3      1.094      1.763
REMARK  Name = 
REMARK  8 active torsions:
REMARK  status: ('A' for Active; 'I' for Inactive)
REMARK    1  A    between atoms: C_1  and  C_2
REMARK    2  A    between atoms: C_2  and  N_3
REMARK    3  A    between atoms: C_2  and  C_17
REMARK    4  A    between atoms: C_4  and  C_6
REMARK    5  A    between atoms: C_9  and  C_10
REMARK    6  A    between atoms: C_10  and  S_11
REMARK    7  A    between atoms: S_11  and  C_12
REMARK    8  A    between atoms: C_20  and  C_21
REMARK                            x       y       z     vdW  Elec       q    Type
REMARK                         _______ _______ _______ _____ _____    ______ ____
ROOT
ATOM      1  N   UNL     1       1.085   9.896  19.420  0.00  0.00    +0.000 N 
ATOM      2  C   UNL     1       1.767   9.143  18.487  0.00  0.00    +0.000 C 
ATOM      3  O   UNL     1       2.124   9.568  17.397  0.00  0.00    +0.000 OA
ATOM      4  H   UNL     1       0.688   9.447  20.233  0.00  0.00    +0.000 HD
ENDROOT
BRANCH   2   5
ATOM      5  C   UNL     1       2.048   7.730  18.871  0.00  0.00    +0.000 A 
ATOM      6  C   UNL     1       1.845   7.336  20.201  0.00  0.00    +0.000 A 
ATOM      7  C   UNL     1       2.076   6.011  20.587  0.00  0.00    +0.000 A 
ATOM      8  C   UNL     1       2.483   5.054  19.648  0.00  0.00    +0.000 A 
ATOM      9  C   UNL     1       2.681   5.455  18.318  0.00  0.00    +0.000 A 
ATOM     10  C   UNL     1       2.465   6.782  17.933  0.00  0.00    +0.000 A 
BRANCH   8  11
ATOM     11  C   UNL     1       2.719   3.622  20.056  0.00  0.00    +0.000 C 
BRANCH  11  12
ATOM     12  S   UNL     1       4.238   2.967  19.370  0.00  0.00    +0.000 S 
ATOM     13  C   UNL     1       4.744   1.663  20.468  0.00  0.00    +0.000 C 
ATOM     14  O   UNL     1       3.955   2.379  18.071  0.00  0.00    +0.000 OA
ATOM     15  O   UNL     1       5.238   4.016  19.482  0.00  0.00    +0.000 OA
ENDBRANCH  11  12
ENDBRANCH   8  11
ENDBRANCH   2   5
BRANCH   1  17
ATOM     16  C   UNL     1       1.449  12.178  20.279  0.00  0.00    +0.000 C 
ATOM     17  C   UNL     1       0.783  11.301  19.214  0.00  0.00    +0.000 C 
BRANCH  17  18
ATOM     18  C   UNL     1      -0.717  11.527  19.198  0.00  0.00    +0.000 A 
ATOM     19  C   UNL     1      -1.484  10.993  18.160  0.00  0.00    +0.000 A 
ATOM     20  C   UNL     1      -2.854  11.259  18.076  0.00  0.00    +0.000 A 
ATOM     21  C   UNL     1      -3.518  12.043  19.035  0.00  0.00    +0.000 A 
ATOM     22  C   UNL     1      -2.744  12.537  20.099  0.00  0.00    +0.000 A 
ATOM     23  C   UNL     1      -1.367  12.288  20.181  0.00  0.00    +0.000 A 
BRANCH  21  24
ATOM     24  C   UNL     1      -4.963  12.348  18.911  0.00  0.00    +0.000 A 
ATOM     25  C   UNL     1      -5.676  12.950  19.965  0.00  0.00    +0.000 A 
ATOM     26  C   UNL     1      -7.050  13.195  19.878  0.00  0.00    +0.000 A 
ATOM     27  C   UNL     1      -7.743  12.863  18.719  0.00  0.00    +0.000 A 
ATOM     28  C   UNL     1      -7.064  12.285  17.652  0.00  0.00    +0.000 A 
ATOM     29  C   UNL     1      -5.692  12.026  17.751  0.00  0.00    +0.000 A 
ENDBRANCH  21  24
ENDBRANCH  17  18
ENDBRANCH   1  17
TORSDOF 6
ENDMDL
MODEL 4
REMARK VINA RESULT:      -7.2      2.130      2.870
REMARK  Name = 
REMARK  8 active torsions:
REMARK  status: ('A' for Active; 'I' for Inactive)
REMARK    1  A    between atoms: C_1  and  C_2
REMARK    2  A    between atoms: C_2  and  N_3
REMARK    3  A    between atoms: C_2  and  C_17
REMARK    4  A    between atoms: C_4  and  C_6
REMARK    5  A    between atoms: C_9  and  C_10
REMARK    6  A    between atoms: C_10  and  S_11
REMARK    7  A    between atoms: S_11  and  C_12
REMARK    8  A    between atoms: C_20  and  C_21
REMARK                            x       y       z     vdW  Elec       q    Type
REMARK                         _______ _______ _______ _____ _____    ______ ____
ROOT
ATOM      1  N   UNL     1       1.529  10.841  19.176  0.00  0.00    +0.000 N 
ATOM      2  C   UNL     1       1.072   9.749  18.469  0.00  0.00    +0.000 C 
ATOM      3  O   UNL     1       0.069   9.759  17.770  0.00  0.00    +0.000 OA
ATOM      4  H   UNL     1       2.272  10.728  19.850  0.00  0.00    +0.000 HD
ENDROOT
BRANCH   2   5
ATOM      5  C   UNL     1       1.875   8.501  18.612  0.00  0.00    +0.000 A 
ATOM      6  C   UNL     1       2.787   8.161  17.604  0.00  0.00    +0.000 A 
ATOM      7  C   UNL     1       3.572   7.009  17.720  0.00  0.00    +0.000 A 
ATOM      8  C   UNL     1       3.482   6.196  18.858  0.00  0.00    +0.000 A 
ATOM      9  C   UNL     1       2.568   6.543  19.865  0.00  0.00    +0.000 A 
ATOM     10  C   UNL     1       1.773   7.686  19.744  0.00  0.00    +0.000 A 
BRANCH   8  11
ATOM     11  C   UNL     1       4.337   4.961  18.995  0.00  0.00    +0.000 C 
BRANCH  11  12
ATOM     12  S   UNL     1       3.700   3.591  18.034  0.00  0.00    +0.000 S 
ATOM     13  C   UNL     1       3.872   2.153  19.067  0.00  0.00    +0.000 C 
ATOM     14  O   UNL     1       2.283   3.804  17.789  0.00  0.00    +0.000 OA
ATOM     15  O   UNL     1       4.605   3.407  16.911  0.00  0.00    +0.000 OA
ENDBRANCH  11  12
ENDBRANCH   8  11
ENDBRANCH   2   5
BRANCH   1  17
ATOM     16  C   UNL     1       1.859  13.270  19.451  0.00  0.00    +0.000 C 
ATOM     17  C   UNL     1       0.885  12.141  19.099  0.00  0.00    +0.000 C 
BRANCH  17  18
ATOM     18  C   UNL     1      -0.333  12.186  20.003  0.00  0.00    +0.000 A 
ATOM     19  C   UNL     1      -1.575  12.541  19.469  0.00  0.00    +0.000 A 
ATOM     20  C   UNL     1      -2.694  12.673  20.295  0.00  0.00    +0.000 A 
ATOM     21  C   UNL     1      -2.627  12.433  21.679  0.00  0.00    +0.000 A 
ATOM     22  C   UNL     1      -1.383  12.034  22.197  0.00  0.00    +0.000 A 
ATOM     23  C   UNL     1      -0.254  11.914  21.376  0.00  0.00    +0.000 A 
BRANCH  21  24
ATOM     24  C   UNL     1      -3.815  12.617  22.548  0.00  0.00    +0.000 A 
ATOM     25  C   UNL     1      -3.747  12.387  23.935  0.00  0.00    +0.000 A 
ATOM     26  C   UNL     1      -4.872  12.508  24.756  0.00  0.00    +0.000 A 
ATOM     27  C   UNL     1      -6.094  12.883  24.210  0.00  0.00    +0.000 A 
ATOM     28  C   UNL     1      -6.190  13.137  22.845  0.00  0.00    +0.000 A 
ATOM     29  C   UNL     1      -5.064  12.998  22.026  0.00  0.00    +0.000 A 
ENDBRANCH  21  24
ENDBRANCH  17  18
ENDBRANCH   1  17
TORSDOF 6
ENDMDL
MODEL 5
REMARK VINA RESULT:      -7.2      0.751      1.869
REMARK  Name = 
REMARK  8 active torsions:
REMARK  status: ('A' for Active; 'I' for Inactive)
REMARK    1  A    between atoms: C_1  and  C_2
REMARK    2  A    between atoms: C_2  and  N_3
REMARK    3  A    between atoms: C_2  and  C_17
REMARK    4  A    between atoms: C_4  and  C_6
REMARK    5  A    between atoms: C_9  and  C_10
REMARK    6  A    between atoms: C_10  and  S_11
REMARK    7  A    between atoms: S_11  and  C_12
REMARK    8  A    between atoms: C_20  and  C_21
REMARK                            x       y       z     vdW  Elec       q    Type
REMARK                         _______ _______ _______ _____ _____    ______ ____
ROOT
ATOM      1  N   UNL     1       1.268  10.241  19.426  0.00  0.00    +0.000 N 
ATOM      2  C   UNL     1       1.871   9.498  18.433  0.00  0.00    +0.000 C 
ATOM      3  O   UNL     1       2.128   9.930  17.318  0.00  0.00    +0.000 OA
ATOM      4  H   UNL     1       0.948   9.786  20.268  0.00  0.00    +0.000 HD
ENDROOT
BRANCH   2   5
ATOM      5  C   UNL     1       2.194   8.085  18.784  0.00  0.00    +0.000 A 
ATOM      6  C   UNL     1       1.745   7.570  20.008  0.00  0.00    +0.000 A 
ATOM      7  C   UNL     1       2.011   6.241  20.355  0.00  0.00    +0.000 A 
ATOM      8  C   UNL     1       2.701   5.398  19.474  0.00  0.00    +0.000 A 
ATOM      9  C   UNL     1       3.146   5.920  18.249  0.00  0.00    +0.000 A 
ATOM     10  C   UNL     1       2.894   7.251  17.907  0.00  0.00    +0.000 A 
BRANCH   8  11
ATOM     11  C   UNL     1       2.978   3.961  19.837  0.00  0.00    +0.000 C 
BRANCH  11  12
ATOM     12  S   UNL     1       2.032   2.818  18.833  0.00  0.00    +0.000 S 
ATOM     13  C   UNL     1       3.222   1.951  17.835  0.00  0.00    +0.000 C 
ATOM     14  O   UNL     1       1.383   1.851  19.703  0.00  0.00    +0.000 OA
ATOM     15  O   UNL     1       1.231   3.620  17.923  0.00  0.00    +0.000 OA
ENDBRANCH  11  12
ENDBRANCH   8  11
ENDBRANCH   2   5
BRANCH   1  17
ATOM     16  C   UNL     1       1.543  12.501  20.373  0.00  0.00    +0.000 C 
ATOM     17  C   UNL     1       0.940  11.645  19.255  0.00  0.00    +0.000 C 
BRANCH  17  18
ATOM     18  C   UNL     1      -0.564  11.836  19.189  0.00  0.00    +0.000 A 
ATOM     19  C   UNL     1      -1.216  12.529  20.212  0.00  0.00    +0.000 A 
ATOM     20  C   UNL     1      -2.609  12.644  20.218  0.00  0.00    +0.000 A 
ATOM     21  C   UNL     1      -3.404  12.097  19.195  0.00  0.00    +0.000 A 
ATOM     22  C   UNL     1      -2.733  11.441  18.149  0.00  0.00    +0.000 A 
ATOM     23  C   UNL     1      -1.337  11.309  18.145  0.00  0.00    +0.000 A 
BRANCH  21  24
ATOM     24  C   UNL     1      -4.883  12.194  19.238  0.00  0.00    +0.000 A 
ATOM     25  C   UNL     1      -5.573  12.300  20.460  0.00  0.00    +0.000 A 
ATOM     26  C   UNL     1      -6.969  12.341  20.514  0.00  0.00    +0.000 A 
ATOM     27  C   UNL     1      -7.713  12.297  19.340  0.00  0.00    +0.000 A 
ATOM     28  C   UNL     1      -7.060  12.211  18.115  0.00  0.00    +0.000 A 
ATOM     29  C   UNL     1      -5.662  12.154  18.067  0.00  0.00    +0.000 A 
ENDBRANCH  21  24
ENDBRANCH  17  18
ENDBRANCH   1  17
TORSDOF 6
ENDMDL
MODEL 6
REMARK VINA RESULT:      -7.2      1.867      2.662
REMARK  Name = 
REMARK  8 active torsions:
REMARK  status: ('A' for Active; 'I' for Inactive)
REMARK    1  A    between atoms: C_1  and  C_2
REMARK    2  A    between atoms: C_2  and  N_3
REMARK    3  A    between atoms: C_2  and  C_17
REMARK    4  A    between atoms: C_4  and  C_6
REMARK    5  A    between atoms: C_9  and  C_10
REMARK    6  A    between atoms: C_10  and  S_11
REMARK    7  A    between atoms: S_11  and  C_12
REMARK    8  A    between atoms: C_20  and  C_21
REMARK                            x       y       z     vdW  Elec       q    Type
REMARK                         _______ _______ _______ _____ _____    ______ ____
ROOT
ATOM      1  N   UNL     1       1.188  10.291  19.308  0.00  0.00    +0.000 N 
ATOM      2  C   UNL     1       1.847   9.580  18.327  0.00  0.00    +0.000 C 
ATOM      3  O   UNL     1       2.103  10.025  17.217  0.00  0.00    +0.000 OA
ATOM      4  H   UNL     1       0.875   9.819  20.144  0.00  0.00    +0.000 HD
ENDROOT
BRANCH   2   5
ATOM      5  C   UNL     1       2.234   8.185  18.684  0.00  0.00    +0.000 A 
ATOM      6  C   UNL     1       2.982   7.433  17.768  0.00  0.00    +0.000 A 
ATOM      7  C   UNL     1       3.381   6.129  18.084  0.00  0.00    +0.000 A 
ATOM      8  C   UNL     1       3.067   5.569  19.330  0.00  0.00    +0.000 A 
ATOM      9  C   UNL     1       2.320   6.329  20.243  0.00  0.00    +0.000 A 
ATOM     10  C   UNL     1       1.908   7.626  19.923  0.00  0.00    +0.000 A 
BRANCH   8  11
ATOM     11  C   UNL     1       3.507   4.170  19.681  0.00  0.00    +0.000 C 
BRANCH  11  12
ATOM     12  S   UNL     1       2.239   2.956  19.326  0.00  0.00    +0.000 S 
ATOM     13  C   UNL     1       1.510   2.544  20.896  0.00  0.00    +0.000 C 
ATOM     14  O   UNL     1       1.214   3.571  18.500  0.00  0.00    +0.000 OA
ATOM     15  O   UNL     1       2.920   1.760  18.857  0.00  0.00    +0.000 OA
ENDBRANCH  11  12
ENDBRANCH   8  11
ENDBRANCH   2   5
BRANCH   1  17
ATOM     16  C   UNL     1       1.950  12.632  19.439  0.00  0.00    +0.000 C 
ATOM     17  C   UNL     1       0.793  11.676  19.130  0.00  0.00    +0.000 C 
BRANCH  17  18
ATOM     18  C   UNL     1      -0.412  12.001  19.993  0.00  0.00    +0.000 A 
ATOM     19  C   UNL     1      -0.277  12.030  21.383  0.00  0.00    +0.000 A 
ATOM     20  C   UNL     1      -1.389  12.242  22.203  0.00  0.00    +0.000 A 
ATOM     21  C   UNL     1      -2.672  12.457  21.672  0.00  0.00    +0.000 A 
ATOM     22  C   UNL     1      -2.787  12.470  20.271  0.00  0.00    +0.000 A 
ATOM     23  C   UNL     1      -1.679  12.243  19.444  0.00  0.00    +0.000 A 
BRANCH  21  24
ATOM     24  C   UNL     1      -3.848  12.641  22.556  0.00  0.00    +0.000 A 
ATOM     25  C   UNL     1      -5.048  13.192  22.070  0.00  0.00    +0.000 A 
ATOM     26  C   UNL     1      -6.146  13.417  22.906  0.00  0.00    +0.000 A 
ATOM     27  C   UNL     1      -6.077  13.074  24.251  0.00  0.00    +0.000 A 
ATOM     28  C   UNL     1      -4.911  12.508  24.759  0.00  0.00    +0.000 A 
ATOM     29  C   UNL     1      -3.810  12.302  23.921  0.00  0.00    +0.000 A 
ENDBRANCH  21  24
ENDBRANCH  17  18
ENDBRANCH   1  17
TORSDOF 6
ENDMDL
MODEL 7
REMARK VINA RESULT:      -7.2      2.201      3.108
REMARK  Name = 
REMARK  8 active torsions:
REMARK  status: ('A' for Active; 'I' for Inactive)
REMARK    1  A    between atoms: C_1  and  C_2
REMARK    2  A    between atoms: C_2  and  N_3
REMARK    3  A    between atoms: C_2  and  C_17
REMARK    4  A    between atoms: C_4  and  C_6
REMARK    5  A    between atoms: C_9  and  C_10
REMARK    6  A    between atoms: C_10  and  S_11
REMARK    7  A    between atoms: S_11  and  C_12
REMARK    8  A    between atoms: C_20  and  C_21
REMARK                            x       y       z     vdW  Elec       q    Type
REMARK                         _______ _______ _______ _____ _____    ______ ____
ROOT
ATOM      1  N   UNL     1       1.551  10.970  19.140  0.00  0.00    +0.000 N 
ATOM      2  C   UNL     1       1.040   9.860  18.501  0.00  0.00    +0.000 C 
ATOM      3  O   UNL     1       0.039   9.877  17.799  0.00  0.00    +0.000 OA
ATOM      4  H   UNL     1       2.287  10.861  19.822  0.00  0.00    +0.000 HD
ENDROOT
BRANCH   2   5
ATOM      5  C   UNL     1       1.779   8.584  18.724  0.00  0.00    +0.000 A 
ATOM      6  C   UNL     1       2.686   8.146  17.749  0.00  0.00    +0.000 A 
ATOM      7  C   UNL     1       3.413   6.966  17.941  0.00  0.00    +0.000 A 
ATOM      8  C   UNL     1       3.268   6.222  19.120  0.00  0.00    +0.000 A 
ATOM      9  C   UNL     1       2.360   6.668  20.092  0.00  0.00    +0.000 A 
ATOM     10  C   UNL     1       1.623   7.839  19.897  0.00  0.00    +0.000 A 
BRANCH   8  11
ATOM     11  C   UNL     1       4.059   4.957  19.337  0.00  0.00    +0.000 C 
BRANCH  11  12
ATOM     12  S   UNL     1       3.494   3.620  18.288  0.00  0.00    +0.000 S 
ATOM     13  C   UNL     1       4.460   3.732  16.798  0.00  0.00    +0.000 C 
ATOM     14  O   UNL     1       3.801   2.353  18.930  0.00  0.00    +0.000 OA
ATOM     15  O   UNL     1       2.122   3.926  17.917  0.00  0.00    +0.000 OA
ENDBRANCH  11  12
ENDBRANCH   8  11
ENDBRANCH   2   5
BRANCH   1  17
ATOM     16  C   UNL     1       2.009  13.391  19.238  0.00  0.00    +0.000 C 
ATOM     17  C   UNL     1       0.973  12.292  18.980  0.00  0.00    +0.000 C 
BRANCH  17  18
ATOM     18  C   UNL     1      -0.226  12.464  19.894  0.00  0.00    +0.000 A 
ATOM     19  C   UNL     1      -0.089  12.222  21.263  0.00  0.00    +0.000 A 
ATOM     20  C   UNL     1      -1.196  12.290  22.113  0.00  0.00    +0.000 A 
ATOM     21  C   UNL     1      -2.476  12.625  21.639  0.00  0.00    +0.000 A 
ATOM     22  C   UNL     1      -2.593  12.909  20.267  0.00  0.00    +0.000 A 
ATOM     23  C   UNL     1      -1.489  12.828  19.407  0.00  0.00    +0.000 A 
BRANCH  21  24
ATOM     24  C   UNL     1      -3.648  12.653  22.546  0.00  0.00    +0.000 A 
ATOM     25  C   UNL     1      -3.515  12.375  23.920  0.00  0.00    +0.000 A 
ATOM     26  C   UNL     1      -4.620  12.349  24.775  0.00  0.00    +0.000 A 
ATOM     27  C   UNL     1      -5.890  12.623  24.280  0.00  0.00    +0.000 A 
ATOM     28  C   UNL     1      -6.053  12.921  22.930  0.00  0.00    +0.000 A 
ATOM     29  C   UNL     1      -4.945  12.929  22.075  0.00  0.00    +0.000 A 
ENDBRANCH  21  24
ENDBRANCH  17  18
ENDBRANCH   1  17
TORSDOF 6
ENDMDL
MODEL 8
REMARK VINA RESULT:      -7.2      3.744      6.283
REMARK  Name = 
REMARK  8 active torsions:
REMARK  status: ('A' for Active; 'I' for Inactive)
REMARK    1  A    between atoms: C_1  and  C_2
REMARK    2  A    between atoms: C_2  and  N_3
REMARK    3  A    between atoms: C_2  and  C_17
REMARK    4  A    between atoms: C_4  and  C_6
REMARK    5  A    between atoms: C_9  and  C_10
REMARK    6  A    between atoms: C_10  and  S_11
REMARK    7  A    between atoms: S_11  and  C_12
REMARK    8  A    between atoms: C_20  and  C_21
REMARK                            x       y       z     vdW  Elec       q    Type
REMARK                         _______ _______ _______ _____ _____    ______ ____
ROOT
ATOM      1  N   UNL     1       1.258   9.219  18.746  0.00  0.00    +0.000 N 
ATOM      2  C   UNL     1       1.762   8.238  19.574  0.00  0.00    +0.000 C 
ATOM      3  O   UNL     1       1.485   8.139  20.761  0.00  0.00    +0.000 OA
ATOM      4  H   UNL     1       1.640   9.337  17.819  0.00  0.00    +0.000 HD
ENDROOT
BRANCH   2   5
ATOM      5  C   UNL     1       2.709   7.276  18.941  0.00  0.00    +0.000 A 
ATOM      6  C   UNL     1       3.331   7.631  17.736  0.00  0.00    +0.000 A 
ATOM      7  C   UNL     1       4.243   6.760  17.130  0.00  0.00    +0.000 A 
ATOM      8  C   UNL     1       4.572   5.537  17.732  0.00  0.00    +0.000 A 
ATOM      9  C   UNL     1       3.946   5.190  18.939  0.00  0.00    +0.000 A 
ATOM     10  C   UNL     1       3.024   6.052  19.539  0.00  0.00    +0.000 A 
BRANCH   8  11
ATOM     11  C   UNL     1       5.565   4.602  17.090  0.00  0.00    +0.000 C 
BRANCH  11  12
ATOM     12  S   UNL     1       7.242   5.218  17.206  0.00  0.00    +0.000 S 
ATOM     13  C   UNL     1       7.378   5.952  18.821  0.00  0.00    +0.000 C 
ATOM     14  O   UNL     1       8.163   4.095  17.142  0.00  0.00    +0.000 OA
ATOM     15  O   UNL     1       7.361   6.302  16.246  0.00  0.00    +0.000 OA
ENDBRANCH  11  12
ENDBRANCH   8  11
ENDBRANCH   2   5
BRANCH   1  17
ATOM     16  C   UNL     1      -0.885  10.320  18.222  0.00  0.00    +0.000 C 
ATOM     17  C   UNL     1       0.285  10.196  19.202  0.00  0.00    +0.000 C 
BRANCH  17  18
ATOM     18  C   UNL     1       0.947  11.545  19.416  0.00  0.00    +0.000 A 
ATOM     19  C   UNL     1       1.837  12.036  18.457  0.00  0.00    +0.000 A 
ATOM     20  C   UNL     1       2.525  13.234  18.671  0.00  0.00    +0.000 A 
ATOM     21  C   UNL     1       2.334  14.002  19.833  0.00  0.00    +0.000 A 
ATOM     22  C   UNL     1       1.404  13.520  20.769  0.00  0.00    +0.000 A 
ATOM     23  C   UNL     1       0.722  12.311  20.568  0.00  0.00    +0.000 A 
BRANCH  21  24
ATOM     24  C   UNL     1       3.101  15.250  20.062  0.00  0.00    +0.000 A 
ATOM     25  C   UNL     1       4.505  15.274  19.963  0.00  0.00    +0.000 A 
ATOM     26  C   UNL     1       5.241  16.433  20.226  0.00  0.00    +0.000 A 
ATOM     27  C   UNL     1       4.586  17.608  20.577  0.00  0.00    +0.000 A 
ATOM     28  C   UNL     1       3.198  17.622  20.665  0.00  0.00    +0.000 A 
ATOM     29  C   UNL     1       2.467  16.455  20.417  0.00  0.00    +0.000 A 
ENDBRANCH  21  24
ENDBRANCH  17  18
ENDBRANCH   1  17
TORSDOF 6
ENDMDL
MODEL 9
REMARK VINA RESULT:      -7.2      5.586      9.900
REMARK  Name = 
REMARK  8 active torsions:
REMARK  status: ('A' for Active; 'I' for Inactive)
REMARK    1  A    between atoms: C_1  and  C_2
REMARK    2  A    between atoms: C_2  and  N_3
REMARK    3  A    between atoms: C_2  and  C_17
REMARK    4  A    between atoms: C_4  and  C_6
REMARK    5  A    between atoms: C_9  and  C_10
REMARK    6  A    between atoms: C_10  and  S_11
REMARK    7  A    between atoms: S_11  and  C_12
REMARK    8  A    between atoms: C_20  and  C_21
REMARK                            x       y       z     vdW  Elec       q    Type
REMARK                         _______ _______ _______ _____ _____    ______ ____
ROOT
ATOM      1  N   UNL     1       1.573  12.171  19.857  0.00  0.00    +0.000 N 
ATOM      2  C   UNL     1       1.423  13.308  19.090  0.00  0.00    +0.000 C 
ATOM      3  O   UNL     1       0.463  13.517  18.363  0.00  0.00    +0.000 OA
ATOM      4  H   UNL     1       2.454  11.989  20.317  0.00  0.00    +0.000 HD
ENDROOT
BRANCH   2   5
ATOM      5  C   UNL     1       2.532  14.300  19.176  0.00  0.00    +0.000 A 
ATOM      6  C   UNL     1       2.654  15.269  18.170  0.00  0.00    +0.000 A 
ATOM      7  C   UNL     1       3.669  16.229  18.235  0.00  0.00    +0.000 A 
ATOM      8  C   UNL     1       4.559  16.257  19.318  0.00  0.00    +0.000 A 
ATOM      9  C   UNL     1       4.429  15.285  20.322  0.00  0.00    +0.000 A 
ATOM     10  C   UNL     1       3.424  14.316  20.252  0.00  0.00    +0.000 A 
BRANCH   8  11
ATOM     11  C   UNL     1       5.646  17.298  19.399  0.00  0.00    +0.000 C 
BRANCH  11  12
ATOM     12  S   UNL     1       7.215  16.682  18.794  0.00  0.00    +0.000 S 
ATOM     13  C   UNL     1       8.093  16.102  20.229  0.00  0.00    +0.000 C 
ATOM     14  O   UNL     1       6.973  15.544  17.924  0.00  0.00    +0.000 OA
ATOM     15  O   UNL     1       7.953  17.829  18.292  0.00  0.00    +0.000 OA
ENDBRANCH  11  12
ENDBRANCH   8  11
ENDBRANCH   2   5
BRANCH   1  17
ATOM     16  C   UNL     1      -0.008  10.993  21.338  0.00  0.00    +0.000 C 
ATOM     17  C   UNL     1       0.556  11.137  19.921  0.00  0.00    +0.000 C 
BRANCH  17  18
ATOM     18  C   UNL     1       1.112   9.813  19.431  0.00  0.00    +0.000 A 
ATOM     19  C   UNL     1       1.360   8.788  20.347  0.00  0.00    +0.000 A 
ATOM     20  C   UNL     1       1.951   7.590  19.934  0.00  0.00    +0.000 A 
ATOM     21  C   UNL     1       2.295   7.357  18.591  0.00  0.00    +0.000 A 
ATOM     22  C   UNL     1       2.001   8.378  17.672  0.00  0.00    +0.000 A 
ATOM     23  C   UNL     1       1.422   9.587  18.082  0.00  0.00    +0.000 A 
BRANCH  21  24
ATOM     24  C   UNL     1       2.958   6.097  18.177  0.00  0.00    +0.000 A 
ATOM     25  C   UNL     1       4.347   6.041  17.957  0.00  0.00    +0.000 A 
ATOM     26  C   UNL     1       4.975   4.873  17.517  0.00  0.00    +0.000 A 
ATOM     27  C   UNL     1       4.229   3.719  17.305  0.00  0.00    +0.000 A 
ATOM     28  C   UNL     1       2.856   3.736  17.531  0.00  0.00    +0.000 A 
ATOM     29  C   UNL     1       2.230   4.914  17.956  0.00  0.00    +0.000 A 
ENDBRANCH  21  24
ENDBRANCH  17  18
ENDBRANCH   1  17
TORSDOF 6
ENDMDL
