MODEL 1
REMARK VINA RESULT:      -8.5      0.000      0.000
REMARK  Name = 
REMARK  4 active torsions:
REMARK  status: ('A' for Active; 'I' for Inactive)
REMARK    1  A    between atoms: C_6  and  C_7
REMARK    2  A    between atoms: C_10  and  C_11
REMARK    3  A    between atoms: N_14  and  C_15
REMARK    4  A    between atoms: C_15  and  C_16
REMARK                            x       y       z     vdW  Elec       q    Type
REMARK                         _______ _______ _______ _____ _____    ______ ____
ROOT
ATOM      1  C   UNL     1       0.799   3.958  20.639  0.00  0.00    +0.000 C 
ATOM      2  C   UNL     1       1.854   3.171  21.432  0.00  0.00    +0.000 C 
ATOM      3  C   UNL     1       3.110   2.872  20.621  0.00  0.00    +0.000 C 
ATOM      4  N   UNL     1       2.793   2.188  19.361  0.00  0.00    +0.000 NA
ATOM      5  C   UNL     1       1.878   3.006  18.544  0.00  0.00    +0.000 C 
ATOM      6  C   UNL     1       0.572   3.303  19.275  0.00  0.00    +0.000 C 
ENDROOT
BRANCH   1  10
ATOM      7  C   UNL     1       1.137   7.611  20.729  0.00  0.00    +0.000 A 
ATOM      8  C   UNL     1       2.194   7.513  19.851  0.00  0.00    +0.000 A 
ATOM      9  S   UNL     1       2.491   5.868  19.478  0.00  0.00    +0.000 S 
ATOM     10  C   UNL     1       1.177   5.412  20.493  0.00  0.00    +0.000 A 
ATOM     11  N   UNL     1       0.564   6.410  21.099  0.00  0.00    +0.000 NA
BRANCH   7  17
ATOM     12  C   UNL     1      -1.368  12.637  23.045  0.00  0.00    +0.000 A 
ATOM     13  C   UNL     1      -0.580  13.221  22.053  0.00  0.00    +0.000 A 
ATOM     14  C   UNL     1       0.261  12.443  21.245  0.00  0.00    +0.000 A 
ATOM     15  C   UNL     1       0.236  11.064  21.445  0.00  0.00    +0.000 A 
ATOM     16  O   UNL     1       0.961  10.139  20.768  0.00  0.00    +0.000 OA
ATOM     17  C   UNL     1       0.592   8.907  21.237  0.00  0.00    +0.000 A 
ATOM     18  C   UNL     1      -0.343   9.052  22.238  0.00  0.00    +0.000 A 
ATOM     19  C   UNL     1      -0.571  10.443  22.385  0.00  0.00    +0.000 A 
ATOM     20  C   UNL     1      -1.383  11.234  23.211  0.00  0.00    +0.000 A 
ENDBRANCH   7  17
ENDBRANCH   1  10
BRANCH   4  21
ATOM     21  C   UNL     1       4.057   1.926  18.630  0.00  0.00    +0.000 C 
BRANCH  21  22
ATOM     22  C   UNL     1       4.827   3.177  18.310  0.00  0.00    +0.000 A 
ATOM     23  N   UNL     1       5.531   3.820  19.218  0.00  0.00    +0.000 NA
ATOM     24  C   UNL     1       6.160   4.894  18.642  0.00  0.00    +0.000 A 
ATOM     25  C   UNL     1       7.024   5.781  19.298  0.00  0.00    +0.000 A 
ATOM     26  C   UNL     1       7.968   6.443  18.528  0.00  0.00    +0.000 A 
ATOM     27  C   UNL     1       7.753   6.591  17.159  0.00  0.00    +0.000 A 
ATOM     28  C   UNL     1       6.630   6.023  16.544  0.00  0.00    +0.000 A 
ATOM     29  C   UNL     1       5.934   5.059  17.273  0.00  0.00    +0.000 A 
ATOM     30  S   UNL     1       4.729   3.933  16.774  0.00  0.00    +0.000 S 
ENDBRANCH  21  22
ENDBRANCH   4  21
TORSDOF 4
ENDMDL
MODEL 2
REMARK VINA RESULT:      -8.4      4.625     11.217
REMARK  Name = 
REMARK  4 active torsions:
REMARK  status: ('A' for Active; 'I' for Inactive)
REMARK    1  A    between atoms: C_6  and  C_7
REMARK    2  A    between atoms: C_10  and  C_11
REMARK    3  A    between atoms: N_14  and  C_15
REMARK    4  A    between atoms: C_15  and  C_16
REMARK                            x       y       z     vdW  Elec       q    Type
REMARK                         _______ _______ _______ _____ _____    ______ ____
ROOT
ATOM      1  C   UNL     1      -0.004  12.360  20.475  0.00  0.00    +0.000 C 
ATOM      2  C   UNL     1      -1.046  12.997  21.407  0.00  0.00    +0.000 C 
ATOM      3  C   UNL     1      -2.465  12.509  21.140  0.00  0.00    +0.000 C 
ATOM      4  N   UNL     1      -2.847  12.693  19.735  0.00  0.00    +0.000 NA
ATOM      5  C   UNL     1      -1.917  11.972  18.847  0.00  0.00    +0.000 C 
ATOM      6  C   UNL     1      -0.478  12.447  19.023  0.00  0.00    +0.000 C 
ENDROOT
BRANCH   1  10
ATOM      7  C   UNL     1       1.063   8.860  20.761  0.00  0.00    +0.000 A 
ATOM      8  C   UNL     1       0.442   8.794  21.989  0.00  0.00    +0.000 A 
ATOM      9  S   UNL     1      -0.254  10.312  22.373  0.00  0.00    +0.000 S 
ATOM     10  C   UNL     1       0.302  10.935  20.867  0.00  0.00    +0.000 A 
ATOM     11  N   UNL     1       0.987  10.085  20.127  0.00  0.00    +0.000 NA
BRANCH   7  17
ATOM     12  C   UNL     1       3.728   3.904  18.474  0.00  0.00    +0.000 A 
ATOM     13  C   UNL     1       4.166   4.842  17.538  0.00  0.00    +0.000 A 
ATOM     14  C   UNL     1       3.758   6.181  17.609  0.00  0.00    +0.000 A 
ATOM     15  C   UNL     1       2.940   6.540  18.679  0.00  0.00    +0.000 A 
ATOM     16  O   UNL     1       2.446   7.777  18.935  0.00  0.00    +0.000 OA
ATOM     17  C   UNL     1       1.744   7.702  20.108  0.00  0.00    +0.000 A 
ATOM     18  C   UNL     1       1.763   6.407  20.579  0.00  0.00    +0.000 A 
ATOM     19  C   UNL     1       2.526   5.649  19.656  0.00  0.00    +0.000 A 
ATOM     20  C   UNL     1       2.912   4.304  19.556  0.00  0.00    +0.000 A 
ENDBRANCH   7  17
ENDBRANCH   1  10
BRANCH   4  21
ATOM     21  C   UNL     1      -4.235  12.201  19.551  0.00  0.00    +0.000 C 
BRANCH  21  22
ATOM     22  C   UNL     1      -5.213  12.810  20.516  0.00  0.00    +0.000 A 
ATOM     23  N   UNL     1      -5.840  12.096  21.427  0.00  0.00    +0.000 NA
ATOM     24  C   UNL     1      -6.633  12.911  22.192  0.00  0.00    +0.000 A 
ATOM     25  C   UNL     1      -7.415  12.500  23.279  0.00  0.00    +0.000 A 
ATOM     26  C   UNL     1      -7.711  13.447  24.249  0.00  0.00    +0.000 A 
ATOM     27  C   UNL     1      -7.657  14.801  23.923  0.00  0.00    +0.000 A 
ATOM     28  C   UNL     1      -7.244  15.216  22.651  0.00  0.00    +0.000 A 
ATOM     29  C   UNL     1      -6.598  14.268  21.859  0.00  0.00    +0.000 A 
ATOM     30  S   UNL     1      -5.688  14.455  20.407  0.00  0.00    +0.000 S 
ENDBRANCH  21  22
ENDBRANCH   4  21
TORSDOF 4
ENDMDL
MODEL 3
REMARK VINA RESULT:      -8.3      4.158      7.906
REMARK  Name = 
REMARK  4 active torsions:
REMARK  status: ('A' for Active; 'I' for Inactive)
REMARK    1  A    between atoms: C_6  and  C_7
REMARK    2  A    between atoms: C_10  and  C_11
REMARK    3  A    between atoms: N_14  and  C_15
REMARK    4  A    between atoms: C_15  and  C_16
REMARK                            x       y       z     vdW  Elec       q    Type
REMARK                         _______ _______ _______ _____ _____    ______ ____
ROOT
ATOM      1  C   UNL     1       7.521   5.240  18.238  0.00  0.00    +0.000 C 
ATOM      2  C   UNL     1       6.855   4.475  17.084  0.00  0.00    +0.000 C 
ATOM      3  C   UNL     1       5.337   4.604  17.079  0.00  0.00    +0.000 C 
ATOM      4  N   UNL     1       4.754   4.207  18.366  0.00  0.00    +0.000 NA
ATOM      5  C   UNL     1       5.301   5.032  19.459  0.00  0.00    +0.000 C 
ATOM      6  C   UNL     1       6.819   4.912  19.557  0.00  0.00    +0.000 C 
ENDROOT
BRANCH   1  10
ATOM      7  C   UNL     1       8.183   8.845  18.050  0.00  0.00    +0.000 A 
ATOM      8  C   UNL     1       7.040   8.993  17.296  0.00  0.00    +0.000 A 
ATOM      9  S   UNL     1       6.302   7.468  17.050  0.00  0.00    +0.000 S 
ATOM     10  C   UNL     1       7.544   6.728  17.985  0.00  0.00    +0.000 A 
ATOM     11  N   UNL     1       8.472   7.550  18.435  0.00  0.00    +0.000 NA
BRANCH   7  17
ATOM     12  C   UNL     1      11.555  13.414  20.207  0.00  0.00    +0.000 A 
ATOM     13  C   UNL     1      11.786  13.594  18.843  0.00  0.00    +0.000 A 
ATOM     14  C   UNL     1      11.242  12.717  17.894  0.00  0.00    +0.000 A 
ATOM     15  C   UNL     1      10.425  11.694  18.370  0.00  0.00    +0.000 A 
ATOM     16  O   UNL     1       9.797  10.752  17.624  0.00  0.00    +0.000 OA
ATOM     17  C   UNL     1       9.054   9.982  18.478  0.00  0.00    +0.000 A 
ATOM     18  C   UNL     1       9.238  10.415  19.773  0.00  0.00    +0.000 A 
ATOM     19  C   UNL     1      10.130  11.514  19.712  0.00  0.00    +0.000 A 
ATOM     20  C   UNL     1      10.707  12.377  20.656  0.00  0.00    +0.000 A 
ENDBRANCH   7  17
ENDBRANCH   1  10
BRANCH   4  21
ATOM     21  C   UNL     1       3.279   4.354  18.287  0.00  0.00    +0.000 C 
BRANCH  21  22
ATOM     22  C   UNL     1       2.796   5.717  18.696  0.00  0.00    +0.000 A 
ATOM     23  N   UNL     1       2.841   6.752  17.884  0.00  0.00    +0.000 NA
ATOM     24  C   UNL     1       2.299   7.850  18.500  0.00  0.00    +0.000 A 
ATOM     25  C   UNL     1       2.146   9.118  17.922  0.00  0.00    +0.000 A 
ATOM     26  C   UNL     1       1.142   9.933  18.423  0.00  0.00    +0.000 A 
ATOM     27  C   UNL     1       0.656   9.710  19.710  0.00  0.00    +0.000 A 
ATOM     28  C   UNL     1       1.124   8.634  20.476  0.00  0.00    +0.000 A 
ATOM     29  C   UNL     1       1.827   7.638  19.798  0.00  0.00    +0.000 A 
ATOM     30  S   UNL     1       2.282   6.053  20.298  0.00  0.00    +0.000 S 
ENDBRANCH  21  22
ENDBRANCH   4  21
TORSDOF 4
ENDMDL
MODEL 4
REMARK VINA RESULT:      -8.3      4.619      9.965
REMARK  Name = 
REMARK  4 active torsions:
REMARK  status: ('A' for Active; 'I' for Inactive)
REMARK    1  A    between atoms: C_6  and  C_7
REMARK    2  A    between atoms: C_10  and  C_11
REMARK    3  A    between atoms: N_14  and  C_15
REMARK    4  A    between atoms: C_15  and  C_16
REMARK                            x       y       z     vdW  Elec       q    Type
REMARK                         _______ _______ _______ _____ _____    ______ ____
ROOT
ATOM      1  C   UNL     1      -0.434  10.121  19.659  0.00  0.00    +0.000 C 
ATOM      2  C   UNL     1      -0.101  11.087  18.512  0.00  0.00    +0.000 C 
ATOM      3  C   UNL     1       1.002  12.077  18.866  0.00  0.00    +0.000 C 
ATOM      4  N   UNL     1       0.693  12.820  20.094  0.00  0.00    +0.000 NA
ATOM      5  C   UNL     1       0.499  11.893  21.224  0.00  0.00    +0.000 C 
ATOM      6  C   UNL     1      -0.630  10.902  20.961  0.00  0.00    +0.000 C 
ENDROOT
BRANCH   1  10
ATOM      7  C   UNL     1       2.197   7.588  19.302  0.00  0.00    +0.000 A 
ATOM      8  C   UNL     1       2.108   7.337  20.653  0.00  0.00    +0.000 A 
ATOM      9  S   UNL     1       0.937   8.366  21.362  0.00  0.00    +0.000 S 
ATOM     10  C   UNL     1       0.619   9.051  19.815  0.00  0.00    +0.000 A 
ATOM     11  N   UNL     1       1.351   8.572  18.828  0.00  0.00    +0.000 NA
BRANCH   7  17
ATOM     12  C   UNL     1       5.956   4.959  15.321  0.00  0.00    +0.000 A 
ATOM     13  C   UNL     1       5.416   3.812  15.904  0.00  0.00    +0.000 A 
ATOM     14  C   UNL     1       4.496   3.900  16.959  0.00  0.00    +0.000 A 
ATOM     15  C   UNL     1       4.113   5.178  17.361  0.00  0.00    +0.000 A 
ATOM     16  O   UNL     1       3.233   5.482  18.348  0.00  0.00    +0.000 OA
ATOM     17  C   UNL     1       3.101   6.844  18.373  0.00  0.00    +0.000 A 
ATOM     18  C   UNL     1       3.924   7.408  17.423  0.00  0.00    +0.000 A 
ATOM     19  C   UNL     1       4.588   6.339  16.772  0.00  0.00    +0.000 A 
ATOM     20  C   UNL     1       5.533   6.239  15.741  0.00  0.00    +0.000 A 
ENDBRANCH   7  17
ENDBRANCH   1  10
BRANCH   4  21
ATOM     21  C   UNL     1       1.804  13.763  20.373  0.00  0.00    +0.000 C 
BRANCH  21  22
ATOM     22  C   UNL     1       1.709  15.041  19.588  0.00  0.00    +0.000 A 
ATOM     23  N   UNL     1       2.512  15.309  18.581  0.00  0.00    +0.000 NA
ATOM     24  C   UNL     1       2.174  16.516  18.026  0.00  0.00    +0.000 A 
ATOM     25  C   UNL     1       2.789  17.102  16.911  0.00  0.00    +0.000 A 
ATOM     26  C   UNL     1       2.038  17.995  16.161  0.00  0.00    +0.000 A 
ATOM     27  C   UNL     1       0.943  18.629  16.745  0.00  0.00    +0.000 A 
ATOM     28  C   UNL     1       0.555  18.326  18.056  0.00  0.00    +0.000 A 
ATOM     29  C   UNL     1       1.088  17.167  18.618  0.00  0.00    +0.000 A 
ATOM     30  S   UNL     1       0.637  16.303  20.039  0.00  0.00    +0.000 S 
ENDBRANCH  21  22
ENDBRANCH   4  21
TORSDOF 4
ENDMDL
MODEL 5
REMARK VINA RESULT:      -8.2      4.228     10.563
REMARK  Name = 
REMARK  4 active torsions:
REMARK  status: ('A' for Active; 'I' for Inactive)
REMARK    1  A    between atoms: C_6  and  C_7
REMARK    2  A    between atoms: C_10  and  C_11
REMARK    3  A    between atoms: N_14  and  C_15
REMARK    4  A    between atoms: C_15  and  C_16
REMARK                            x       y       z     vdW  Elec       q    Type
REMARK                         _______ _______ _______ _____ _____    ______ ____
ROOT
ATOM      1  C   UNL     1       1.145  10.372  20.853  0.00  0.00    +0.000 C 
ATOM      2  C   UNL     1      -0.301  10.093  21.292  0.00  0.00    +0.000 C 
ATOM      3  C   UNL     1      -1.336  10.579  20.285  0.00  0.00    +0.000 C 
ATOM      4  N   UNL     1      -1.158  12.001  19.966  0.00  0.00    +0.000 NA
ATOM      5  C   UNL     1       0.190  12.244  19.423  0.00  0.00    +0.000 C 
ATOM      6  C   UNL     1       1.283  11.828  20.403  0.00  0.00    +0.000 C 
ENDROOT
BRANCH   1  10
ATOM      7  C   UNL     1       2.235   7.553  18.772  0.00  0.00    +0.000 A 
ATOM      8  C   UNL     1       2.342   8.413  17.701  0.00  0.00    +0.000 A 
ATOM      9  S   UNL     1       1.879   9.993  18.174  0.00  0.00    +0.000 S 
ATOM     10  C   UNL     1       1.596   9.419  19.772  0.00  0.00    +0.000 A 
ATOM     11  N   UNL     1       1.803   8.129  19.950  0.00  0.00    +0.000 NA
BRANCH   7  17
ATOM     12  C   UNL     1       3.338   1.602  18.252  0.00  0.00    +0.000 A 
ATOM     13  C   UNL     1       4.201   1.895  19.309  0.00  0.00    +0.000 A 
ATOM     14  C   UNL     1       4.348   3.207  19.782  0.00  0.00    +0.000 A 
ATOM     15  C   UNL     1       3.561   4.189  19.184  0.00  0.00    +0.000 A 
ATOM     16  O   UNL     1       3.544   5.508  19.498  0.00  0.00    +0.000 OA
ATOM     17  C   UNL     1       2.592   6.103  18.715  0.00  0.00    +0.000 A 
ATOM     18  C   UNL     1       2.027   5.165  17.878  0.00  0.00    +0.000 A 
ATOM     19  C   UNL     1       2.656   3.928  18.168  0.00  0.00    +0.000 A 
ATOM     20  C   UNL     1       2.541   2.619  17.680  0.00  0.00    +0.000 A 
ENDBRANCH   7  17
ENDBRANCH   1  10
BRANCH   4  21
ATOM     21  C   UNL     1      -2.198  12.403  18.987  0.00  0.00    +0.000 C 
BRANCH  21  22
ATOM     22  C   UNL     1      -3.590  12.372  19.553  0.00  0.00    +0.000 A 
ATOM     23  N   UNL     1      -4.580  11.748  18.950  0.00  0.00    +0.000 NA
ATOM     24  C   UNL     1      -5.719  11.846  19.707  0.00  0.00    +0.000 A 
ATOM     25  C   UNL     1      -6.958  11.269  19.394  0.00  0.00    +0.000 A 
ATOM     26  C   UNL     1      -7.818  10.990  20.446  0.00  0.00    +0.000 A 
ATOM     27  C   UNL     1      -7.672  11.676  21.651  0.00  0.00    +0.000 A 
ATOM     28  C   UNL     1      -6.628  12.592  21.832  0.00  0.00    +0.000 A 
ATOM     29  C   UNL     1      -5.584  12.548  20.908  0.00  0.00    +0.000 A 
ATOM     30  S   UNL     1      -4.018  13.265  20.953  0.00  0.00    +0.000 S 
ENDBRANCH  21  22
ENDBRANCH   4  21
TORSDOF 4
ENDMDL
MODEL 6
REMARK VINA RESULT:      -8.2      8.047     12.072
REMARK  Name = 
REMARK  4 active torsions:
REMARK  status: ('A' for Active; 'I' for Inactive)
REMARK    1  A    between atoms: C_6  and  C_7
REMARK    2  A    between atoms: C_10  and  C_11
REMARK    3  A    between atoms: N_14  and  C_15
REMARK    4  A    between atoms: C_15  and  C_16
REMARK                            x       y       z     vdW  Elec       q    Type
REMARK                         _______ _______ _______ _____ _____    ______ ____
ROOT
ATOM      1  C   UNL     1       3.414  15.113  17.795  0.00  0.00    +0.000 C 
ATOM      2  C   UNL     1       2.467  16.153  18.412  0.00  0.00    +0.000 C 
ATOM      3  C   UNL     1       2.210  15.922  19.897  0.00  0.00    +0.000 C 
ATOM      4  N   UNL     1       1.725  14.562  20.158  0.00  0.00    +0.000 NA
ATOM      5  C   UNL     1       2.697  13.563  19.679  0.00  0.00    +0.000 C 
ATOM      6  C   UNL     1       2.966  13.702  18.183  0.00  0.00    +0.000 C 
ENDROOT
BRANCH   1  10
ATOM      7  C   UNL     1       6.995  14.992  18.590  0.00  0.00    +0.000 A 
ATOM      8  C   UNL     1       6.932  16.313  18.975  0.00  0.00    +0.000 A 
ATOM      9  S   UNL     1       5.341  16.908  18.756  0.00  0.00    +0.000 S 
ATOM     10  C   UNL     1       4.851  15.359  18.189  0.00  0.00    +0.000 A 
ATOM     11  N   UNL     1       5.808  14.453  18.135  0.00  0.00    +0.000 NA
BRANCH   7  17
ATOM     12  C   UNL     1      11.904  11.414  18.556  0.00  0.00    +0.000 A 
ATOM     13  C   UNL     1      11.978  11.878  19.870  0.00  0.00    +0.000 A 
ATOM     14  C   UNL     1      11.054  12.811  20.362  0.00  0.00    +0.000 A 
ATOM     15  C   UNL     1      10.037  13.212  19.499  0.00  0.00    +0.000 A 
ATOM     16  O   UNL     1       9.043  14.092  19.780  0.00  0.00    +0.000 OA
ATOM     17  C   UNL     1       8.230  14.156  18.681  0.00  0.00    +0.000 A 
ATOM     18  C   UNL     1       8.728  13.341  17.687  0.00  0.00    +0.000 A 
ATOM     19  C   UNL     1       9.900  12.736  18.205  0.00  0.00    +0.000 A 
ATOM     20  C   UNL     1      10.849  11.829  17.712  0.00  0.00    +0.000 A 
ENDBRANCH   7  17
ENDBRANCH   1  10
BRANCH   4  21
ATOM     21  C   UNL     1       1.494  14.411  21.616  0.00  0.00    +0.000 C 
BRANCH  21  22
ATOM     22  C   UNL     1       0.055  14.151  21.965  0.00  0.00    +0.000 A 
ATOM     23  N   UNL     1      -0.360  12.988  22.421  0.00  0.00    +0.000 NA
ATOM     24  C   UNL     1      -1.702  13.047  22.694  0.00  0.00    +0.000 A 
ATOM     25  C   UNL     1      -2.472  12.006  23.230  0.00  0.00    +0.000 A 
ATOM     26  C   UNL     1      -3.615  12.353  23.934  0.00  0.00    +0.000 A 
ATOM     27  C   UNL     1      -4.212  13.592  23.705  0.00  0.00    +0.000 A 
ATOM     28  C   UNL     1      -3.633  14.514  22.824  0.00  0.00    +0.000 A 
ATOM     29  C   UNL     1      -2.310  14.282  22.450  0.00  0.00    +0.000 A 
ATOM     30  S   UNL     1      -1.174  15.309  21.661  0.00  0.00    +0.000 S 
ENDBRANCH  21  22
ENDBRANCH   4  21
TORSDOF 4
ENDMDL
MODEL 7
REMARK VINA RESULT:      -8.1      6.777     10.280
REMARK  Name = 
REMARK  4 active torsions:
REMARK  status: ('A' for Active; 'I' for Inactive)
REMARK    1  A    between atoms: C_6  and  C_7
REMARK    2  A    between atoms: C_10  and  C_11
REMARK    3  A    between atoms: N_14  and  C_15
REMARK    4  A    between atoms: C_15  and  C_16
REMARK                            x       y       z     vdW  Elec       q    Type
REMARK                         _______ _______ _______ _____ _____    ______ ____
ROOT
ATOM      1  C   UNL     1      -5.999  13.595  23.477  0.00  0.00    +0.000 C 
ATOM      2  C   UNL     1      -5.441  14.995  23.776  0.00  0.00    +0.000 C 
ATOM      3  C   UNL     1      -3.948  15.117  23.492  0.00  0.00    +0.000 C 
ATOM      4  N   UNL     1      -3.175  14.089  24.200  0.00  0.00    +0.000 NA
ATOM      5  C   UNL     1      -3.629  12.741  23.813  0.00  0.00    +0.000 C 
ATOM      6  C   UNL     1      -5.108  12.529  24.118  0.00  0.00    +0.000 C 
ENDROOT
BRANCH   1  10
ATOM      7  C   UNL     1      -5.740  12.654  19.939  0.00  0.00    +0.000 A 
ATOM      8  C   UNL     1      -6.897  13.359  19.690  0.00  0.00    +0.000 A 
ATOM      9  S   UNL     1      -7.494  14.034  21.147  0.00  0.00    +0.000 S 
ATOM     10  C   UNL     1      -6.156  13.359  21.994  0.00  0.00    +0.000 A 
ATOM     11  N   UNL     1      -5.325  12.651  21.257  0.00  0.00    +0.000 NA
BRANCH   7  17
ATOM     12  C   UNL     1      -2.185   9.746  15.966  0.00  0.00    +0.000 A 
ATOM     13  C   UNL     1      -3.075  10.340  15.071  0.00  0.00    +0.000 A 
ATOM     14  C   UNL     1      -4.157  11.106  15.527  0.00  0.00    +0.000 A 
ATOM     15  C   UNL     1      -4.272  11.286  16.904  0.00  0.00    +0.000 A 
ATOM     16  O   UNL     1      -5.233  11.996  17.546  0.00  0.00    +0.000 OA
ATOM     17  C   UNL     1      -4.940  11.965  18.883  0.00  0.00    +0.000 A 
ATOM     18  C   UNL     1      -3.810  11.205  19.093  0.00  0.00    +0.000 A 
ATOM     19  C   UNL     1      -3.378  10.755  17.820  0.00  0.00    +0.000 A 
ATOM     20  C   UNL     1      -2.319   9.962  17.355  0.00  0.00    +0.000 A 
ENDBRANCH   7  17
ENDBRANCH   1  10
BRANCH   4  21
ATOM     21  C   UNL     1      -1.737  14.271  23.880  0.00  0.00    +0.000 C 
BRANCH  21  22
ATOM     22  C   UNL     1      -1.186  13.190  22.992  0.00  0.00    +0.000 A 
ATOM     23  N   UNL     1      -0.893  11.989  23.445  0.00  0.00    +0.000 NA
ATOM     24  C   UNL     1      -0.452  11.199  22.416  0.00  0.00    +0.000 A 
ATOM     25  C   UNL     1      -0.088   9.850  22.521  0.00  0.00    +0.000 A 
ATOM     26  C   UNL     1      -0.190   9.069  21.380  0.00  0.00    +0.000 A 
ATOM     27  C   UNL     1      -0.179   9.680  20.127  0.00  0.00    +0.000 A 
ATOM     28  C   UNL     1      -0.133  11.076  20.011  0.00  0.00    +0.000 A 
ATOM     29  C   UNL     1      -0.421  11.812  21.160  0.00  0.00    +0.000 A 
ATOM     30  S   UNL     1      -0.768  13.488  21.356  0.00  0.00    +0.000 S 
ENDBRANCH  21  22
ENDBRANCH   4  21
TORSDOF 4
ENDMDL
MODEL 8
REMARK VINA RESULT:      -8.1      4.237     10.947
REMARK  Name = 
REMARK  4 active torsions:
REMARK  status: ('A' for Active; 'I' for Inactive)
REMARK    1  A    between atoms: C_6  and  C_7
REMARK    2  A    between atoms: C_10  and  C_11
REMARK    3  A    between atoms: N_14  and  C_15
REMARK    4  A    between atoms: C_15  and  C_16
REMARK                            x       y       z     vdW  Elec       q    Type
REMARK                         _______ _______ _______ _____ _____    ______ ____
ROOT
ATOM      1  C   UNL     1       0.953  11.626  20.844  0.00  0.00    +0.000 C 
ATOM      2  C   UNL     1      -0.201  11.330  21.814  0.00  0.00    +0.000 C 
ATOM      3  C   UNL     1      -1.566  11.334  21.137  0.00  0.00    +0.000 C 
ATOM      4  N   UNL     1      -1.810  12.586  20.412  0.00  0.00    +0.000 NA
ATOM      5  C   UNL     1      -0.768  12.804  19.391  0.00  0.00    +0.000 C 
ATOM      6  C   UNL     1       0.627  12.864  20.005  0.00  0.00    +0.000 C 
ENDROOT
BRANCH   1  10
ATOM      7  C   UNL     1       1.770   8.372  19.358  0.00  0.00    +0.000 A 
ATOM      8  C   UNL     1       1.761   8.962  18.114  0.00  0.00    +0.000 A 
ATOM      9  S   UNL     1       1.371  10.623  18.260  0.00  0.00    +0.000 S 
ATOM     10  C   UNL     1       1.269  10.438  19.968  0.00  0.00    +0.000 A 
ATOM     11  N   UNL     1       1.482   9.215  20.413  0.00  0.00    +0.000 NA
BRANCH   7  17
ATOM     12  C   UNL     1       3.290   2.516  19.904  0.00  0.00    +0.000 A 
ATOM     13  C   UNL     1       2.551   2.662  21.078  0.00  0.00    +0.000 A 
ATOM     14  C   UNL     1       2.008   3.903  21.443  0.00  0.00    +0.000 A 
ATOM     15  C   UNL     1       2.199   4.963  20.560  0.00  0.00    +0.000 A 
ATOM     16  O   UNL     1       1.750   6.233  20.718  0.00  0.00    +0.000 OA
ATOM     17  C   UNL     1       2.104   6.935  19.597  0.00  0.00    +0.000 A 
ATOM     18  C   UNL     1       2.808   6.117  18.740  0.00  0.00    +0.000 A 
ATOM     19  C   UNL     1       2.882   4.844  19.360  0.00  0.00    +0.000 A 
ATOM     20  C   UNL     1       3.450   3.607  19.022  0.00  0.00    +0.000 A 
ENDBRANCH   7  17
ENDBRANCH   1  10
BRANCH   4  21
ATOM     21  C   UNL     1      -3.153  12.520  19.784  0.00  0.00    +0.000 C 
BRANCH  21  22
ATOM     22  C   UNL     1      -4.267  12.874  20.729  0.00  0.00    +0.000 A 
ATOM     23  N   UNL     1      -5.395  12.197  20.770  0.00  0.00    +0.000 NA
ATOM     24  C   UNL     1      -6.208  12.709  21.748  0.00  0.00    +0.000 A 
ATOM     25  C   UNL     1      -7.471  12.214  22.100  0.00  0.00    +0.000 A 
ATOM     26  C   UNL     1      -7.916  12.455  23.391  0.00  0.00    +0.000 A 
ATOM     27  C   UNL     1      -7.377  13.518  24.115  0.00  0.00    +0.000 A 
ATOM     28  C   UNL     1      -6.346  14.300  23.577  0.00  0.00    +0.000 A 
ATOM     29  C   UNL     1      -5.681  13.786  22.465  0.00  0.00    +0.000 A 
ATOM     30  S   UNL     1      -4.203  14.270  21.723  0.00  0.00    +0.000 S 
ENDBRANCH  21  22
ENDBRANCH   4  21
TORSDOF 4
ENDMDL
MODEL 9
REMARK VINA RESULT:      -8.0      5.812      9.323
REMARK  Name = 
REMARK  4 active torsions:
REMARK  status: ('A' for Active; 'I' for Inactive)
REMARK    1  A    between atoms: C_6  and  C_7
REMARK    2  A    between atoms: C_10  and  C_11
REMARK    3  A    between atoms: N_14  and  C_15
REMARK    4  A    between atoms: C_15  and  C_16
REMARK                            x       y       z     vdW  Elec       q    Type
REMARK                         _______ _______ _______ _____ _____    ______ ____
ROOT
ATOM      1  C   UNL     1       0.734  13.897  20.748  0.00  0.00    +0.000 C 
ATOM      2  C   UNL     1       0.326  15.015  19.776  0.00  0.00    +0.000 C 
ATOM      3  C   UNL     1       1.270  15.147  18.587  0.00  0.00    +0.000 C 
ATOM      4  N   UNL     1       2.664  15.317  19.015  0.00  0.00    +0.000 NA
ATOM      5  C   UNL     1       3.093  14.176  19.844  0.00  0.00    +0.000 C 
ATOM      6  C   UNL     1       2.221  14.014  21.086  0.00  0.00    +0.000 C 
ENDROOT
BRANCH   1  10
ATOM      7  C   UNL     1       0.651  10.440  19.517  0.00  0.00    +0.000 A 
ATOM      8  C   UNL     1      -0.688  10.597  19.233  0.00  0.00    +0.000 A 
ATOM      9  S   UNL     1      -1.200  12.168  19.684  0.00  0.00    +0.000 S 
ATOM     10  C   UNL     1       0.402  12.530  20.200  0.00  0.00    +0.000 A 
ATOM     11  N   UNL     1       1.268  11.543  20.075  0.00  0.00    +0.000 NA
BRANCH   7  17
ATOM     12  C   UNL     1       3.870   5.553  17.889  0.00  0.00    +0.000 A 
ATOM     13  C   UNL     1       3.387   5.100  19.117  0.00  0.00    +0.000 A 
ATOM     14  C   UNL     1       2.601   5.924  19.936  0.00  0.00    +0.000 A 
ATOM     15  C   UNL     1       2.286   7.190  19.446  0.00  0.00    +0.000 A 
ATOM     16  O   UNL     1       1.535   8.131  20.071  0.00  0.00    +0.000 OA
ATOM     17  C   UNL     1       1.426   9.198  19.220  0.00  0.00    +0.000 A 
ATOM     18  C   UNL     1       2.138   8.948  18.067  0.00  0.00    +0.000 A 
ATOM     19  C   UNL     1       2.704   7.656  18.210  0.00  0.00    +0.000 A 
ATOM     20  C   UNL     1       3.518   6.836  17.415  0.00  0.00    +0.000 A 
ENDBRANCH   7  17
ENDBRANCH   1  10
BRANCH   4  21
ATOM     21  C   UNL     1       3.521  15.442  17.811  0.00  0.00    +0.000 C 
BRANCH  21  22
ATOM     22  C   UNL     1       4.988  15.507  18.131  0.00  0.00    +0.000 A 
ATOM     23  N   UNL     1       5.811  14.515  17.861  0.00  0.00    +0.000 NA
ATOM     24  C   UNL     1       7.088  14.862  18.218  0.00  0.00    +0.000 A 
ATOM     25  C   UNL     1       8.229  14.067  18.041  0.00  0.00    +0.000 A 
ATOM     26  C   UNL     1       9.451  14.715  17.936  0.00  0.00    +0.000 A 
ATOM     27  C   UNL     1       9.592  16.000  18.457  0.00  0.00    +0.000 A 
ATOM     28  C   UNL     1       8.499  16.667  19.025  0.00  0.00    +0.000 A 
ATOM     29  C   UNL     1       7.234  16.142  18.758  0.00  0.00    +0.000 A 
ATOM     30  S   UNL     1       5.669  16.821  18.998  0.00  0.00    +0.000 S 
ENDBRANCH  21  22
ENDBRANCH   4  21
TORSDOF 4
ENDMDL
