MODEL 1
REMARK VINA RESULT:      -7.9      0.000      0.000
REMARK  Name = 
REMARK  3 active torsions:
REMARK  status: ('A' for Active; 'I' for Inactive)
REMARK    1  A    between atoms: C_1  and  C_2
REMARK    2  A    between atoms: C_5  and  N_6
REMARK    3  A    between atoms: N_6  and  N_7
REMARK                            x       y       z     vdW  Elec       q    Type
REMARK                         _______ _______ _______ _____ _____    ______ ____
ROOT
ATOM      1  N   UNL     1       3.924   6.771  17.881  0.00  0.00    +0.000 NA
ATOM      2  C   UNL     1       4.254   5.558  18.199  0.00  0.00    +0.000 C 
ATOM      3  C   UNL     1       5.708   5.139  18.481  0.00  0.00    +0.000 C 
ATOM      4  O   UNL     1       6.697   5.831  18.378  0.00  0.00    +0.000 OA
ATOM      5  N   UNL     1       5.634   3.828  18.906  0.00  0.00    +0.000 N 
ATOM      6  C   UNL     1       4.323   3.366  18.870  0.00  0.00    +0.000 A 
ATOM      7  C   UNL     1       3.882   2.099  19.201  0.00  0.00    +0.000 A 
ATOM      8  C   UNL     1       2.515   1.837  19.058  0.00  0.00    +0.000 A 
ATOM      9  C   UNL     1       1.647   2.826  18.576  0.00  0.00    +0.000 A 
ATOM     10  F   UNL     1       0.347   2.540  18.429  0.00  0.00    +0.000 F 
ATOM     11  C   UNL     1       2.098   4.099  18.244  0.00  0.00    +0.000 A 
ATOM     12  C   UNL     1       3.444   4.355  18.423  0.00  0.00    +0.000 A 
ATOM     13  H   UNL     1       6.449   3.297  19.176  0.00  0.00    +0.000 HD
ENDROOT
BRANCH   1  14
ATOM     14  N   UNL     1       2.584   7.023  17.861  0.00  0.00    +0.000 N 
ATOM     15  H   UNL     1       2.009   6.178  17.875  0.00  0.00    +0.000 HD
BRANCH  14  20
ATOM     16  C   UNL     1       0.146  10.566  21.656  0.00  0.00    +0.000 C 
ATOM     17  C   UNL     1       0.811   9.670  20.655  0.00  0.00    +0.000 A 
ATOM     18  C   UNL     1       0.942  10.053  19.316  0.00  0.00    +0.000 A 
ATOM     19  C   UNL     1       1.553   9.201  18.389  0.00  0.00    +0.000 A 
ATOM     20  C   UNL     1       2.064   7.961  18.785  0.00  0.00    +0.000 A 
ATOM     21  C   UNL     1       1.899   7.571  20.122  0.00  0.00    +0.000 A 
ATOM     22  C   UNL     1       1.293   8.419  21.051  0.00  0.00    +0.000 A 
ENDBRANCH  14  20
ENDBRANCH   1  14
TORSDOF 2
ENDMDL
MODEL 2
REMARK VINA RESULT:      -7.8      4.177      5.922
REMARK  Name = 
REMARK  3 active torsions:
REMARK  status: ('A' for Active; 'I' for Inactive)
REMARK    1  A    between atoms: C_1  and  C_2
REMARK    2  A    between atoms: C_5  and  N_6
REMARK    3  A    between atoms: N_6  and  N_7
REMARK                            x       y       z     vdW  Elec       q    Type
REMARK                         _______ _______ _______ _____ _____    ______ ____
ROOT
ATOM      1  N   UNL     1       5.059   4.875  16.525  0.00  0.00    +0.000 NA
ATOM      2  C   UNL     1       5.903   4.978  15.546  0.00  0.00    +0.000 C 
ATOM      3  C   UNL     1       7.216   5.775  15.662  0.00  0.00    +0.000 C 
ATOM      4  O   UNL     1       7.582   6.439  16.606  0.00  0.00    +0.000 OA
ATOM      5  N   UNL     1       7.890   5.540  14.480  0.00  0.00    +0.000 N 
ATOM      6  C   UNL     1       7.136   4.742  13.626  0.00  0.00    +0.000 A 
ATOM      7  C   UNL     1       7.485   4.329  12.355  0.00  0.00    +0.000 A 
ATOM      8  C   UNL     1       6.556   3.554  11.654  0.00  0.00    +0.000 A 
ATOM      9  C   UNL     1       5.315   3.238  12.226  0.00  0.00    +0.000 A 
ATOM     10  F   UNL     1       4.437   2.512  11.522  0.00  0.00    +0.000 F 
ATOM     11  C   UNL     1       4.971   3.658  13.506  0.00  0.00    +0.000 A 
ATOM     12  C   UNL     1       5.912   4.393  14.201  0.00  0.00    +0.000 A 
ATOM     13  H   UNL     1       8.799   5.933  14.286  0.00  0.00    +0.000 HD
ENDROOT
BRANCH   1  14
ATOM     14  N   UNL     1       4.052   3.976  16.332  0.00  0.00    +0.000 N 
ATOM     15  H   UNL     1       4.347   3.130  15.842  0.00  0.00    +0.000 HD
BRANCH  14  20
ATOM     16  C   UNL     1       1.042   2.783  21.067  0.00  0.00    +0.000 C 
ATOM     17  C   UNL     1       1.809   3.064  19.809  0.00  0.00    +0.000 A 
ATOM     18  C   UNL     1       2.561   2.066  19.182  0.00  0.00    +0.000 A 
ATOM     19  C   UNL     1       3.282   2.346  18.016  0.00  0.00    +0.000 A 
ATOM     20  C   UNL     1       3.248   3.620  17.442  0.00  0.00    +0.000 A 
ATOM     21  C   UNL     1       2.517   4.623  18.095  0.00  0.00    +0.000 A 
ATOM     22  C   UNL     1       1.793   4.348  19.256  0.00  0.00    +0.000 A 
ENDBRANCH  14  20
ENDBRANCH   1  14
TORSDOF 2
ENDMDL
MODEL 3
REMARK VINA RESULT:      -7.8      1.002      1.331
REMARK  Name = 
REMARK  3 active torsions:
REMARK  status: ('A' for Active; 'I' for Inactive)
REMARK    1  A    between atoms: C_1  and  C_2
REMARK    2  A    between atoms: C_5  and  N_6
REMARK    3  A    between atoms: N_6  and  N_7
REMARK                            x       y       z     vdW  Elec       q    Type
REMARK                         _______ _______ _______ _____ _____    ______ ____
ROOT
ATOM      1  N   UNL     1       3.819   6.332  19.693  0.00  0.00    +0.000 NA
ATOM      2  C   UNL     1       4.094   5.119  19.323  0.00  0.00    +0.000 C 
ATOM      3  C   UNL     1       5.537   4.612  19.146  0.00  0.00    +0.000 C 
ATOM      4  O   UNL     1       6.554   5.261  19.250  0.00  0.00    +0.000 OA
ATOM      5  N   UNL     1       5.418   3.262  18.880  0.00  0.00    +0.000 N 
ATOM      6  C   UNL     1       4.082   2.883  18.817  0.00  0.00    +0.000 A 
ATOM      7  C   UNL     1       3.593   1.619  18.547  0.00  0.00    +0.000 A 
ATOM      8  C   UNL     1       2.203   1.466  18.498  0.00  0.00    +0.000 A 
ATOM      9  C   UNL     1       1.358   2.567  18.695  0.00  0.00    +0.000 A 
ATOM     10  F   UNL     1       0.031   2.394  18.621  0.00  0.00    +0.000 F 
ATOM     11  C   UNL     1       1.858   3.836  18.967  0.00  0.00    +0.000 A 
ATOM     12  C   UNL     1       3.231   3.966  19.047  0.00  0.00    +0.000 A 
ATOM     13  H   UNL     1       6.219   2.665  18.732  0.00  0.00    +0.000 HD
ENDROOT
BRANCH   1  14
ATOM     14  N   UNL     1       2.510   6.564  19.996  0.00  0.00    +0.000 N 
ATOM     15  H   UNL     1       2.264   6.321  20.957  0.00  0.00    +0.000 HD
BRANCH  14  20
ATOM     16  C   UNL     1      -0.090  11.522  18.745  0.00  0.00    +0.000 C 
ATOM     17  C   UNL     1       0.626  10.243  19.060  0.00  0.00    +0.000 A 
ATOM     18  C   UNL     1       1.368   9.570  18.084  0.00  0.00    +0.000 A 
ATOM     19  C   UNL     1       2.020   8.370  18.388  0.00  0.00    +0.000 A 
ATOM     20  C   UNL     1       1.963   7.830  19.676  0.00  0.00    +0.000 A 
ATOM     21  C   UNL     1       1.190   8.494  20.640  0.00  0.00    +0.000 A 
ATOM     22  C   UNL     1       0.541   9.694  20.343  0.00  0.00    +0.000 A 
ENDBRANCH  14  20
ENDBRANCH   1  14
TORSDOF 2
ENDMDL
MODEL 4
REMARK VINA RESULT:      -7.7      2.033      2.636
REMARK  Name = 
REMARK  3 active torsions:
REMARK  status: ('A' for Active; 'I' for Inactive)
REMARK    1  A    between atoms: C_1  and  C_2
REMARK    2  A    between atoms: C_5  and  N_6
REMARK    3  A    between atoms: N_6  and  N_7
REMARK                            x       y       z     vdW  Elec       q    Type
REMARK                         _______ _______ _______ _____ _____    ______ ____
ROOT
ATOM      1  N   UNL     1       2.146   7.750  19.731  0.00  0.00    +0.000 NA
ATOM      2  C   UNL     1       2.541   6.609  19.258  0.00  0.00    +0.000 C 
ATOM      3  C   UNL     1       3.438   6.492  18.012  0.00  0.00    +0.000 C 
ATOM      4  O   UNL     1       3.815   7.396  17.300  0.00  0.00    +0.000 OA
ATOM      5  N   UNL     1       3.743   5.149  17.908  0.00  0.00    +0.000 N 
ATOM      6  C   UNL     1       3.103   4.415  18.900  0.00  0.00    +0.000 A 
ATOM      7  C   UNL     1       3.160   3.046  19.083  0.00  0.00    +0.000 A 
ATOM      8  C   UNL     1       2.407   2.507  20.131  0.00  0.00    +0.000 A 
ATOM      9  C   UNL     1       1.614   3.335  20.938  0.00  0.00    +0.000 A 
ATOM     10  F   UNL     1       0.886   2.788  21.921  0.00  0.00    +0.000 F 
ATOM     11  C   UNL     1       1.561   4.712  20.747  0.00  0.00    +0.000 A 
ATOM     12  C   UNL     1       2.338   5.235  19.731  0.00  0.00    +0.000 A 
ATOM     13  H   UNL     1       4.336   4.782  17.178  0.00  0.00    +0.000 HD
ENDROOT
BRANCH   1  14
ATOM     14  N   UNL     1       1.529   7.693  20.945  0.00  0.00    +0.000 N 
ATOM     15  H   UNL     1       2.132   7.352  21.695  0.00  0.00    +0.000 HD
BRANCH  14  20
ATOM     16  C   UNL     1      -1.663  12.077  22.817  0.00  0.00    +0.000 C 
ATOM     17  C   UNL     1      -0.800  10.958  22.316  0.00  0.00    +0.000 A 
ATOM     18  C   UNL     1      -0.369  10.917  20.986  0.00  0.00    +0.000 A 
ATOM     19  C   UNL     1       0.426   9.861  20.528  0.00  0.00    +0.000 A 
ATOM     20  C   UNL     1       0.823   8.837  21.393  0.00  0.00    +0.000 A 
ATOM     21  C   UNL     1       0.360   8.869  22.716  0.00  0.00    +0.000 A 
ATOM     22  C   UNL     1      -0.429   9.923  23.179  0.00  0.00    +0.000 A 
ENDBRANCH  14  20
ENDBRANCH   1  14
TORSDOF 2
ENDMDL
MODEL 5
REMARK VINA RESULT:      -7.7      2.032      2.847
REMARK  Name = 
REMARK  3 active torsions:
REMARK  status: ('A' for Active; 'I' for Inactive)
REMARK    1  A    between atoms: C_1  and  C_2
REMARK    2  A    between atoms: C_5  and  N_6
REMARK    3  A    between atoms: N_6  and  N_7
REMARK                            x       y       z     vdW  Elec       q    Type
REMARK                         _______ _______ _______ _____ _____    ______ ____
ROOT
ATOM      1  N   UNL     1       2.073   7.742  19.797  0.00  0.00    +0.000 NA
ATOM      2  C   UNL     1       2.495   6.613  19.318  0.00  0.00    +0.000 C 
ATOM      3  C   UNL     1       3.423   6.527  18.091  0.00  0.00    +0.000 C 
ATOM      4  O   UNL     1       3.802   7.447  17.401  0.00  0.00    +0.000 OA
ATOM      5  N   UNL     1       3.750   5.191  17.975  0.00  0.00    +0.000 N 
ATOM      6  C   UNL     1       3.098   4.433  18.942  0.00  0.00    +0.000 A 
ATOM      7  C   UNL     1       3.171   3.063  19.108  0.00  0.00    +0.000 A 
ATOM      8  C   UNL     1       2.402   2.498  20.130  0.00  0.00    +0.000 A 
ATOM      9  C   UNL     1       1.578   3.303  20.930  0.00  0.00    +0.000 A 
ATOM     10  F   UNL     1       0.836   2.731  21.888  0.00  0.00    +0.000 F 
ATOM     11  C   UNL     1       1.510   4.681  20.757  0.00  0.00    +0.000 A 
ATOM     12  C   UNL     1       2.302   5.230  19.766  0.00  0.00    +0.000 A 
ATOM     13  H   UNL     1       4.365   4.843  17.255  0.00  0.00    +0.000 HD
ENDROOT
BRANCH   1  14
ATOM     14  N   UNL     1       1.428   7.659  20.996  0.00  0.00    +0.000 N 
ATOM     15  H   UNL     1       2.024   7.333  21.759  0.00  0.00    +0.000 HD
BRANCH  14  20
ATOM     16  C   UNL     1      -1.252  12.403  22.789  0.00  0.00    +0.000 C 
ATOM     17  C   UNL     1      -0.586  11.142  22.326  0.00  0.00    +0.000 A 
ATOM     18  C   UNL     1      -0.559  10.000  23.133  0.00  0.00    +0.000 A 
ATOM     19  C   UNL     1       0.076   8.833  22.693  0.00  0.00    +0.000 A 
ATOM     20  C   UNL     1       0.677   8.777  21.432  0.00  0.00    +0.000 A 
ATOM     21  C   UNL     1       0.673   9.937  20.643  0.00  0.00    +0.000 A 
ATOM     22  C   UNL     1       0.037  11.102  21.076  0.00  0.00    +0.000 A 
ENDBRANCH  14  20
ENDBRANCH   1  14
TORSDOF 2
ENDMDL
MODEL 6
REMARK VINA RESULT:      -7.7      1.009      1.589
REMARK  Name = 
REMARK  3 active torsions:
REMARK  status: ('A' for Active; 'I' for Inactive)
REMARK    1  A    between atoms: C_1  and  C_2
REMARK    2  A    between atoms: C_5  and  N_6
REMARK    3  A    between atoms: N_6  and  N_7
REMARK                            x       y       z     vdW  Elec       q    Type
REMARK                         _______ _______ _______ _____ _____    ______ ____
ROOT
ATOM      1  N   UNL     1       3.767   6.328  19.716  0.00  0.00    +0.000 NA
ATOM      2  C   UNL     1       4.058   5.122  19.337  0.00  0.00    +0.000 C 
ATOM      3  C   UNL     1       5.508   4.635  19.159  0.00  0.00    +0.000 C 
ATOM      4  O   UNL     1       6.516   5.298  19.270  0.00  0.00    +0.000 OA
ATOM      5  N   UNL     1       5.408   3.286  18.883  0.00  0.00    +0.000 N 
ATOM      6  C   UNL     1       4.077   2.889  18.814  0.00  0.00    +0.000 A 
ATOM      7  C   UNL     1       3.605   1.622  18.532  0.00  0.00    +0.000 A 
ATOM      8  C   UNL     1       2.218   1.450  18.479  0.00  0.00    +0.000 A 
ATOM      9  C   UNL     1       1.357   2.538  18.684  0.00  0.00    +0.000 A 
ATOM     10  F   UNL     1       0.034   2.348  18.606  0.00  0.00    +0.000 F 
ATOM     11  C   UNL     1       1.840   3.812  18.966  0.00  0.00    +0.000 A 
ATOM     12  C   UNL     1       3.211   3.959  19.050  0.00  0.00    +0.000 A 
ATOM     13  H   UNL     1       6.216   2.701  18.732  0.00  0.00    +0.000 HD
ENDROOT
BRANCH   1  14
ATOM     14  N   UNL     1       2.454   6.540  20.017  0.00  0.00    +0.000 N 
ATOM     15  H   UNL     1       2.210   6.295  20.979  0.00  0.00    +0.000 HD
BRANCH  14  20
ATOM     16  C   UNL     1       0.551  11.784  18.679  0.00  0.00    +0.000 C 
ATOM     17  C   UNL     1       1.010  10.403  19.040  0.00  0.00    +0.000 A 
ATOM     18  C   UNL     1       0.791   9.878  20.317  0.00  0.00    +0.000 A 
ATOM     19  C   UNL     1       1.235   8.592  20.644  0.00  0.00    +0.000 A 
ATOM     20  C   UNL     1       1.887   7.798  19.696  0.00  0.00    +0.000 A 
ATOM     21  C   UNL     1       2.132   8.344  18.428  0.00  0.00    +0.000 A 
ATOM     22  C   UNL     1       1.687   9.625  18.096  0.00  0.00    +0.000 A 
ENDBRANCH  14  20
ENDBRANCH   1  14
TORSDOF 2
ENDMDL
MODEL 7
REMARK VINA RESULT:      -7.6      2.730      3.641
REMARK  Name = 
REMARK  3 active torsions:
REMARK  status: ('A' for Active; 'I' for Inactive)
REMARK    1  A    between atoms: C_1  and  C_2
REMARK    2  A    between atoms: C_5  and  N_6
REMARK    3  A    between atoms: N_6  and  N_7
REMARK                            x       y       z     vdW  Elec       q    Type
REMARK                         _______ _______ _______ _____ _____    ______ ____
ROOT
ATOM      1  N   UNL     1       2.345   5.186  19.469  0.00  0.00    +0.000 NA
ATOM      2  C   UNL     1       3.032   4.597  18.539  0.00  0.00    +0.000 C 
ATOM      3  C   UNL     1       2.486   3.405  17.732  0.00  0.00    +0.000 C 
ATOM      4  O   UNL     1       1.428   2.838  17.898  0.00  0.00    +0.000 OA
ATOM      5  N   UNL     1       3.440   3.150  16.768  0.00  0.00    +0.000 N 
ATOM      6  C   UNL     1       4.532   3.999  16.911  0.00  0.00    +0.000 A 
ATOM      7  C   UNL     1       5.678   4.010  16.140  0.00  0.00    +0.000 A 
ATOM      8  C   UNL     1       6.673   4.932  16.482  0.00  0.00    +0.000 A 
ATOM      9  C   UNL     1       6.505   5.787  17.580  0.00  0.00    +0.000 A 
ATOM     10  F   UNL     1       7.484   6.645  17.897  0.00  0.00    +0.000 F 
ATOM     11  C   UNL     1       5.348   5.769  18.352  0.00  0.00    +0.000 A 
ATOM     12  C   UNL     1       4.359   4.878  17.982  0.00  0.00    +0.000 A 
ATOM     13  H   UNL     1       3.336   2.418  16.080  0.00  0.00    +0.000 HD
ENDROOT
BRANCH   1  14
ATOM     14  N   UNL     1       2.887   6.342  19.946  0.00  0.00    +0.000 N 
ATOM     15  H   UNL     1       3.888   6.430  19.766  0.00  0.00    +0.000 HD
BRANCH  14  20
ATOM     16  C   UNL     1      -0.087  11.095  18.732  0.00  0.00    +0.000 C 
ATOM     17  C   UNL     1       0.724   9.871  19.035  0.00  0.00    +0.000 A 
ATOM     18  C   UNL     1       1.470   9.233  18.039  0.00  0.00    +0.000 A 
ATOM     19  C   UNL     1       2.214   8.084  18.334  0.00  0.00    +0.000 A 
ATOM     20  C   UNL     1       2.244   7.564  19.631  0.00  0.00    +0.000 A 
ATOM     21  C   UNL     1       1.467   8.191  20.616  0.00  0.00    +0.000 A 
ATOM     22  C   UNL     1       0.727   9.340  20.328  0.00  0.00    +0.000 A 
ENDBRANCH  14  20
ENDBRANCH   1  14
TORSDOF 2
ENDMDL
MODEL 8
REMARK VINA RESULT:      -7.6      2.734      3.809
REMARK  Name = 
REMARK  3 active torsions:
REMARK  status: ('A' for Active; 'I' for Inactive)
REMARK    1  A    between atoms: C_1  and  C_2
REMARK    2  A    between atoms: C_5  and  N_6
REMARK    3  A    between atoms: N_6  and  N_7
REMARK                            x       y       z     vdW  Elec       q    Type
REMARK                         _______ _______ _______ _____ _____    ______ ____
ROOT
ATOM      1  N   UNL     1       2.640   5.000  19.213  0.00  0.00    +0.000 NA
ATOM      2  C   UNL     1       3.558   4.512  18.438  0.00  0.00    +0.000 C 
ATOM      3  C   UNL     1       3.282   3.371  17.441  0.00  0.00    +0.000 C 
ATOM      4  O   UNL     1       2.246   2.758  17.306  0.00  0.00    +0.000 OA
ATOM      5  N   UNL     1       4.451   3.226  16.721  0.00  0.00    +0.000 N 
ATOM      6  C   UNL     1       5.432   4.097  17.183  0.00  0.00    +0.000 A 
ATOM      7  C   UNL     1       6.727   4.208  16.715  0.00  0.00    +0.000 A 
ATOM      8  C   UNL     1       7.563   5.132  17.352  0.00  0.00    +0.000 A 
ATOM      9  C   UNL     1       7.093   5.890  18.434  0.00  0.00    +0.000 A 
ATOM     10  F   UNL     1       7.922   6.751  19.038  0.00  0.00    +0.000 F 
ATOM     11  C   UNL     1       5.788   5.771  18.900  0.00  0.00    +0.000 A 
ATOM     12  C   UNL     1       4.963   4.881  18.240  0.00  0.00    +0.000 A 
ATOM     13  H   UNL     1       4.552   2.549  15.979  0.00  0.00    +0.000 HD
ENDROOT
BRANCH   1  14
ATOM     14  N   UNL     1       2.991   6.132  19.888  0.00  0.00    +0.000 N 
ATOM     15  H   UNL     1       3.992   6.335  19.852  0.00  0.00    +0.000 HD
BRANCH  14  20
ATOM     16  C   UNL     1       0.404  11.137  18.812  0.00  0.00    +0.000 C 
ATOM     17  C   UNL     1       1.044   9.813  19.104  0.00  0.00    +0.000 A 
ATOM     18  C   UNL     1       0.931   9.219  20.365  0.00  0.00    +0.000 A 
ATOM     19  C   UNL     1       1.544   7.988  20.627  0.00  0.00    +0.000 A 
ATOM     20  C   UNL     1       2.261   7.318  19.632  0.00  0.00    +0.000 A 
ATOM     21  C   UNL     1       2.396   7.937  18.381  0.00  0.00    +0.000 A 
ATOM     22  C   UNL     1       1.783   9.163  18.113  0.00  0.00    +0.000 A 
ENDBRANCH  14  20
ENDBRANCH   1  14
TORSDOF 2
ENDMDL
MODEL 9
REMARK VINA RESULT:      -7.6      0.276      1.111
REMARK  Name = 
REMARK  3 active torsions:
REMARK  status: ('A' for Active; 'I' for Inactive)
REMARK    1  A    between atoms: C_1  and  C_2
REMARK    2  A    between atoms: C_5  and  N_6
REMARK    3  A    between atoms: N_6  and  N_7
REMARK                            x       y       z     vdW  Elec       q    Type
REMARK                         _______ _______ _______ _____ _____    ______ ____
ROOT
ATOM      1  N   UNL     1       4.145   6.742  17.823  0.00  0.00    +0.000 NA
ATOM      2  C   UNL     1       4.442   5.554  18.252  0.00  0.00    +0.000 C 
ATOM      3  C   UNL     1       5.856   5.174  18.730  0.00  0.00    +0.000 C 
ATOM      4  O   UNL     1       6.845   5.872  18.702  0.00  0.00    +0.000 OA
ATOM      5  N   UNL     1       5.740   3.890  19.223  0.00  0.00    +0.000 N 
ATOM      6  C   UNL     1       4.446   3.408  19.061  0.00  0.00    +0.000 A 
ATOM      7  C   UNL     1       3.977   2.158  19.416  0.00  0.00    +0.000 A 
ATOM      8  C   UNL     1       2.639   1.868  19.129  0.00  0.00    +0.000 A 
ATOM      9  C   UNL     1       1.827   2.814  18.487  0.00  0.00    +0.000 A 
ATOM     10  F   UNL     1       0.556   2.502  18.206  0.00  0.00    +0.000 F 
ATOM     11  C   UNL     1       2.306   4.071  18.133  0.00  0.00    +0.000 A 
ATOM     12  C   UNL     1       3.620   4.356  18.453  0.00  0.00    +0.000 A 
ATOM     13  H   UNL     1       6.521   3.388  19.620  0.00  0.00    +0.000 HD
ENDROOT
BRANCH   1  14
ATOM     14  N   UNL     1       2.815   6.972  17.629  0.00  0.00    +0.000 N 
ATOM     15  H   UNL     1       2.273   6.123  17.457  0.00  0.00    +0.000 HD
BRANCH  14  20
ATOM     16  C   UNL     1       0.362  10.540  21.392  0.00  0.00    +0.000 C 
ATOM     17  C   UNL     1       0.975   9.578  20.418  0.00  0.00    +0.000 A 
ATOM     18  C   UNL     1       1.446   8.329  20.835  0.00  0.00    +0.000 A 
ATOM     19  C   UNL     1       2.027   7.446  19.918  0.00  0.00    +0.000 A 
ATOM     20  C   UNL     1       2.131   7.784  18.566  0.00  0.00    +0.000 A 
ATOM     21  C   UNL     1       1.687   9.052  18.163  0.00  0.00    +0.000 A 
ATOM     22  C   UNL     1       1.102   9.934  19.073  0.00  0.00    +0.000 A 
ENDBRANCH  14  20
ENDBRANCH   1  14
TORSDOF 2
ENDMDL
