MODEL 1
REMARK VINA RESULT:      -6.5      0.000      0.000
REMARK  Name = 
REMARK  6 active torsions:
REMARK  status: ('A' for Active; 'I' for Inactive)
REMARK    1  A    between atoms: C_2  and  C_3
REMARK    2  A    between atoms: C_3  and  N_4
REMARK    3  A    between atoms: N_4  and  C_5
REMARK    4  A    between atoms: N_4  and  C_6
REMARK    5  A    between atoms: C_6  and  C_7
REMARK    6  A    between atoms: C_12  and  O_13
REMARK                            x       y       z     vdW  Elec       q    Type
REMARK                         _______ _______ _______ _____ _____    ______ ____
ROOT
ATOM      1  C   UNL     1       4.156   5.074  17.229  0.00  0.00    +0.000 A 
ATOM      2  C   UNL     1       3.920   6.417  17.553  0.00  0.00    +0.000 A 
ATOM      3  C   UNL     1       2.981   6.714  18.524  0.00  0.00    +0.000 A 
ATOM      4  N   UNL     1       2.234   5.785  19.153  0.00  0.00    +0.000 NA
ATOM      5  C   UNL     1       2.459   4.488  18.850  0.00  0.00    +0.000 A 
ATOM      6  C   UNL     1       1.645   3.523  19.439  0.00  0.00    +0.000 A 
ATOM      7  C   UNL     1       1.794   2.161  19.203  0.00  0.00    +0.000 A 
ATOM      8  C   UNL     1       2.831   1.731  18.390  0.00  0.00    +0.000 A 
ATOM      9  C   UNL     1       3.656   2.672  17.773  0.00  0.00    +0.000 A 
ATOM     10  C   UNL     1       3.449   4.065  17.936  0.00  0.00    +0.000 A 
ENDROOT
BRANCH   6  11
ATOM     11  O   UNL     1       0.628   3.918  20.276  0.00  0.00    +0.000 OA
ATOM     12  H   UNL     1       0.136   3.088  20.450  0.00  0.00    +0.000 HD
ENDBRANCH   6  11
BRANCH   1  13
ATOM     13  C   UNL     1       5.000   4.757  16.009  0.00  0.00    +0.000 C 
BRANCH  13  14
ATOM     14  N   UNL     1       6.414   5.170  16.064  0.00  0.00    +0.000 NA
ATOM     15  C   UNL     1       7.011   4.896  14.745  0.00  0.00    +0.000 C 
BRANCH  14  16
ATOM     16  C   UNL     1       7.140   4.448  17.123  0.00  0.00    +0.000 C 
BRANCH  16  18
ATOM     17  C   UNL     1       7.899   6.124  19.062  0.00  0.00    +0.000 C 
ATOM     18  C   UNL     1       7.583   5.362  18.190  0.00  0.00    +0.000 C 
ENDBRANCH  16  18
ENDBRANCH  14  16
ENDBRANCH  13  14
ENDBRANCH   1  13
TORSDOF 5
ENDMDL
MODEL 2
REMARK VINA RESULT:      -6.5      1.392      3.244
REMARK  Name = 
REMARK  6 active torsions:
REMARK  status: ('A' for Active; 'I' for Inactive)
REMARK    1  A    between atoms: C_2  and  C_3
REMARK    2  A    between atoms: C_3  and  N_4
REMARK    3  A    between atoms: N_4  and  C_5
REMARK    4  A    between atoms: N_4  and  C_6
REMARK    5  A    between atoms: C_6  and  C_7
REMARK    6  A    between atoms: C_12  and  O_13
REMARK                            x       y       z     vdW  Elec       q    Type
REMARK                         _______ _______ _______ _____ _____    ______ ____
ROOT
ATOM      1  C   UNL     1       4.033   4.266  17.458  0.00  0.00    +0.000 A 
ATOM      2  C   UNL     1       3.962   2.908  17.119  0.00  0.00    +0.000 A 
ATOM      3  C   UNL     1       3.065   2.099  17.791  0.00  0.00    +0.000 A 
ATOM      4  N   UNL     1       2.277   2.528  18.798  0.00  0.00    +0.000 NA
ATOM      5  C   UNL     1       2.337   3.836  19.127  0.00  0.00    +0.000 A 
ATOM      6  C   UNL     1       1.582   4.278  20.212  0.00  0.00    +0.000 A 
ATOM      7  C   UNL     1       1.563   5.602  20.632  0.00  0.00    +0.000 A 
ATOM      8  C   UNL     1       2.280   6.544  19.911  0.00  0.00    +0.000 A 
ATOM      9  C   UNL     1       3.058   6.134  18.828  0.00  0.00    +0.000 A 
ATOM     10  C   UNL     1       3.154   4.770  18.454  0.00  0.00    +0.000 A 
ENDROOT
BRANCH   6  11
ATOM     11  O   UNL     1       0.834   3.371  20.926  0.00  0.00    +0.000 OA
ATOM     12  H   UNL     1       1.279   2.515  20.752  0.00  0.00    +0.000 HD
ENDBRANCH   6  11
BRANCH   1  13
ATOM     13  C   UNL     1       5.172   5.098  16.898  0.00  0.00    +0.000 C 
BRANCH  13  14
ATOM     14  N   UNL     1       6.446   4.394  16.665  0.00  0.00    +0.000 NA
ATOM     15  C   UNL     1       7.350   4.726  17.781  0.00  0.00    +0.000 C 
BRANCH  14  16
ATOM     16  C   UNL     1       7.045   4.785  15.378  0.00  0.00    +0.000 C 
BRANCH  16  18
ATOM     17  C   UNL     1       5.766   3.691  13.300  0.00  0.00    +0.000 C 
ATOM     18  C   UNL     1       6.316   4.189  14.243  0.00  0.00    +0.000 C 
ENDBRANCH  16  18
ENDBRANCH  14  16
ENDBRANCH  13  14
ENDBRANCH   1  13
TORSDOF 5
ENDMDL
MODEL 3
REMARK VINA RESULT:      -6.3      0.801      2.197
REMARK  Name = 
REMARK  6 active torsions:
REMARK  status: ('A' for Active; 'I' for Inactive)
REMARK    1  A    between atoms: C_2  and  C_3
REMARK    2  A    between atoms: C_3  and  N_4
REMARK    3  A    between atoms: N_4  and  C_5
REMARK    4  A    between atoms: N_4  and  C_6
REMARK    5  A    between atoms: C_6  and  C_7
REMARK    6  A    between atoms: C_12  and  O_13
REMARK                            x       y       z     vdW  Elec       q    Type
REMARK                         _______ _______ _______ _____ _____    ______ ____
ROOT
ATOM      1  C   UNL     1       4.043   5.406  17.458  0.00  0.00    +0.000 A 
ATOM      2  C   UNL     1       3.764   6.671  17.992  0.00  0.00    +0.000 A 
ATOM      3  C   UNL     1       2.805   6.781  18.982  0.00  0.00    +0.000 A 
ATOM      4  N   UNL     1       2.079   5.742  19.441  0.00  0.00    +0.000 NA
ATOM      5  C   UNL     1       2.346   4.518  18.935  0.00  0.00    +0.000 A 
ATOM      6  C   UNL     1       1.554   3.448  19.346  0.00  0.00    +0.000 A 
ATOM      7  C   UNL     1       1.746   2.147  18.896  0.00  0.00    +0.000 A 
ATOM      8  C   UNL     1       2.805   1.884  18.041  0.00  0.00    +0.000 A 
ATOM      9  C   UNL     1       3.609   2.934  17.598  0.00  0.00    +0.000 A 
ATOM     10  C   UNL     1       3.359   4.276  17.981  0.00  0.00    +0.000 A 
ENDROOT
BRANCH   6  11
ATOM     11  O   UNL     1       0.516   3.674  20.220  0.00  0.00    +0.000 OA
ATOM     12  H   UNL     1      -0.184   3.060  19.912  0.00  0.00    +0.000 HD
ENDBRANCH   6  11
BRANCH   1  13
ATOM     13  C   UNL     1       4.911   5.315  16.217  0.00  0.00    +0.000 C 
BRANCH  13  14
ATOM     14  N   UNL     1       6.187   4.591  16.360  0.00  0.00    +0.000 NA
ATOM     15  C   UNL     1       6.898   5.164  17.516  0.00  0.00    +0.000 C 
BRANCH  14  16
ATOM     16  C   UNL     1       7.004   4.703  15.140  0.00  0.00    +0.000 C 
BRANCH  16  18
ATOM     17  C   UNL     1       5.811   3.592  13.021  0.00  0.00    +0.000 C 
ATOM     18  C   UNL     1       6.338   4.070  13.987  0.00  0.00    +0.000 C 
ENDBRANCH  16  18
ENDBRANCH  14  16
ENDBRANCH  13  14
ENDBRANCH   1  13
TORSDOF 5
ENDMDL
MODEL 4
REMARK VINA RESULT:      -6.3      2.535      5.064
REMARK  Name = 
REMARK  6 active torsions:
REMARK  status: ('A' for Active; 'I' for Inactive)
REMARK    1  A    between atoms: C_2  and  C_3
REMARK    2  A    between atoms: C_3  and  N_4
REMARK    3  A    between atoms: N_4  and  C_5
REMARK    4  A    between atoms: N_4  and  C_6
REMARK    5  A    between atoms: C_6  and  C_7
REMARK    6  A    between atoms: C_12  and  O_13
REMARK                            x       y       z     vdW  Elec       q    Type
REMARK                         _______ _______ _______ _____ _____    ______ ____
ROOT
ATOM      1  C   UNL     1       3.125   4.635  17.386  0.00  0.00    +0.000 A 
ATOM      2  C   UNL     1       2.433   5.681  18.014  0.00  0.00    +0.000 A 
ATOM      3  C   UNL     1       3.048   6.914  18.128  0.00  0.00    +0.000 A 
ATOM      4  N   UNL     1       4.305   7.166  17.711  0.00  0.00    +0.000 NA
ATOM      5  C   UNL     1       4.976   6.165  17.100  0.00  0.00    +0.000 A 
ATOM      6  C   UNL     1       6.300   6.389  16.729  0.00  0.00    +0.000 A 
ATOM      7  C   UNL     1       7.080   5.433  16.089  0.00  0.00    +0.000 A 
ATOM      8  C   UNL     1       6.505   4.218  15.751  0.00  0.00    +0.000 A 
ATOM      9  C   UNL     1       5.186   3.954  16.120  0.00  0.00    +0.000 A 
ATOM     10  C   UNL     1       4.417   4.891  16.856  0.00  0.00    +0.000 A 
ENDROOT
BRANCH   6  11
ATOM     11  O   UNL     1       6.887   7.598  17.023  0.00  0.00    +0.000 OA
ATOM     12  H   UNL     1       6.154   8.242  16.921  0.00  0.00    +0.000 HD
ENDBRANCH   6  11
BRANCH   1  13
ATOM     13  C   UNL     1       2.556   3.231  17.472  0.00  0.00    +0.000 C 
BRANCH  13  14
ATOM     14  N   UNL     1       2.838   2.484  18.710  0.00  0.00    +0.000 NA
ATOM     15  C   UNL     1       3.662   1.316  18.348  0.00  0.00    +0.000 C 
BRANCH  14  16
ATOM     16  C   UNL     1       1.594   2.056  19.371  0.00  0.00    +0.000 C 
BRANCH  16  18
ATOM     17  C   UNL     1       1.530   2.920  21.900  0.00  0.00    +0.000 C 
ATOM     18  C   UNL     1       1.532   2.537  20.763  0.00  0.00    +0.000 C 
ENDBRANCH  16  18
ENDBRANCH  14  16
ENDBRANCH  13  14
ENDBRANCH   1  13
TORSDOF 5
ENDMDL
MODEL 5
REMARK VINA RESULT:      -6.2      3.105      6.025
REMARK  Name = 
REMARK  6 active torsions:
REMARK  status: ('A' for Active; 'I' for Inactive)
REMARK    1  A    between atoms: C_2  and  C_3
REMARK    2  A    between atoms: C_3  and  N_4
REMARK    3  A    between atoms: N_4  and  C_5
REMARK    4  A    between atoms: N_4  and  C_6
REMARK    5  A    between atoms: C_6  and  C_7
REMARK    6  A    between atoms: C_12  and  O_13
REMARK                            x       y       z     vdW  Elec       q    Type
REMARK                         _______ _______ _______ _____ _____    ______ ____
ROOT
ATOM      1  C   UNL     1       5.225   4.348  16.301  0.00  0.00    +0.000 A 
ATOM      2  C   UNL     1       5.766   5.195  17.278  0.00  0.00    +0.000 A 
ATOM      3  C   UNL     1       6.842   5.997  16.945  0.00  0.00    +0.000 A 
ATOM      4  N   UNL     1       7.442   5.983  15.738  0.00  0.00    +0.000 NA
ATOM      5  C   UNL     1       6.922   5.174  14.789  0.00  0.00    +0.000 A 
ATOM      6  C   UNL     1       7.576   5.096  13.561  0.00  0.00    +0.000 A 
ATOM      7  C   UNL     1       7.125   4.302  12.513  0.00  0.00    +0.000 A 
ATOM      8  C   UNL     1       5.943   3.595  12.668  0.00  0.00    +0.000 A 
ATOM      9  C   UNL     1       5.271   3.639  13.890  0.00  0.00    +0.000 A 
ATOM     10  C   UNL     1       5.777   4.374  14.992  0.00  0.00    +0.000 A 
ENDROOT
BRANCH   6  11
ATOM     11  O   UNL     1       8.734   5.812  13.366  0.00  0.00    +0.000 OA
ATOM     12  H   UNL     1       8.414   6.710  13.136  0.00  0.00    +0.000 HD
ENDBRANCH   6  11
BRANCH   1  13
ATOM     13  C   UNL     1       4.212   3.302  16.725  0.00  0.00    +0.000 C 
BRANCH  13  14
ATOM     14  N   UNL     1       3.592   3.487  18.049  0.00  0.00    +0.000 NA
ATOM     15  C   UNL     1       3.723   2.216  18.784  0.00  0.00    +0.000 C 
BRANCH  14  16
ATOM     16  C   UNL     1       2.176   3.873  17.927  0.00  0.00    +0.000 C 
BRANCH  16  18
ATOM     17  C   UNL     1       1.010   4.107  20.320  0.00  0.00    +0.000 C 
ATOM     18  C   UNL     1       1.544   4.026  19.249  0.00  0.00    +0.000 C 
ENDBRANCH  16  18
ENDBRANCH  14  16
ENDBRANCH  13  14
ENDBRANCH   1  13
TORSDOF 5
ENDMDL
MODEL 6
REMARK VINA RESULT:      -6.2      3.068      5.873
REMARK  Name = 
REMARK  6 active torsions:
REMARK  status: ('A' for Active; 'I' for Inactive)
REMARK    1  A    between atoms: C_2  and  C_3
REMARK    2  A    between atoms: C_3  and  N_4
REMARK    3  A    between atoms: N_4  and  C_5
REMARK    4  A    between atoms: N_4  and  C_6
REMARK    5  A    between atoms: C_6  and  C_7
REMARK    6  A    between atoms: C_12  and  O_13
REMARK                            x       y       z     vdW  Elec       q    Type
REMARK                         _______ _______ _______ _____ _____    ______ ____
ROOT
ATOM      1  C   UNL     1       5.246   4.418  16.288  0.00  0.00    +0.000 A 
ATOM      2  C   UNL     1       5.828   5.244  17.260  0.00  0.00    +0.000 A 
ATOM      3  C   UNL     1       6.930   6.006  16.915  0.00  0.00    +0.000 A 
ATOM      4  N   UNL     1       7.516   5.969  15.702  0.00  0.00    +0.000 NA
ATOM      5  C   UNL     1       6.958   5.180  14.759  0.00  0.00    +0.000 A 
ATOM      6  C   UNL     1       7.595   5.077  13.524  0.00  0.00    +0.000 A 
ATOM      7  C   UNL     1       7.104   4.301  12.481  0.00  0.00    +0.000 A 
ATOM      8  C   UNL     1       5.898   3.638  12.649  0.00  0.00    +0.000 A 
ATOM      9  C   UNL     1       5.241   3.708  13.878  0.00  0.00    +0.000 A 
ATOM     10  C   UNL     1       5.785   4.423  14.974  0.00  0.00    +0.000 A 
ENDROOT
BRANCH   6  11
ATOM     11  O   UNL     1       8.777   5.750  13.317  0.00  0.00    +0.000 OA
ATOM     12  H   UNL     1       9.460   5.118  13.626  0.00  0.00    +0.000 HD
ENDBRANCH   6  11
BRANCH   1  13
ATOM     13  C   UNL     1       4.198   3.410  16.723  0.00  0.00    +0.000 C 
BRANCH  13  14
ATOM     14  N   UNL     1       3.554   3.654  18.025  0.00  0.00    +0.000 NA
ATOM     15  C   UNL     1       3.377   2.349  18.687  0.00  0.00    +0.000 C 
BRANCH  14  16
ATOM     16  C   UNL     1       2.257   4.332  17.860  0.00  0.00    +0.000 C 
BRANCH  16  18
ATOM     17  C   UNL     1       2.477   6.940  18.402  0.00  0.00    +0.000 C 
ATOM     18  C   UNL     1       2.366   5.776  18.136  0.00  0.00    +0.000 C 
ENDBRANCH  16  18
ENDBRANCH  14  16
ENDBRANCH  13  14
ENDBRANCH   1  13
TORSDOF 5
ENDMDL
MODEL 7
REMARK VINA RESULT:      -6.2      2.711      5.342
REMARK  Name = 
REMARK  6 active torsions:
REMARK  status: ('A' for Active; 'I' for Inactive)
REMARK    1  A    between atoms: C_2  and  C_3
REMARK    2  A    between atoms: C_3  and  N_4
REMARK    3  A    between atoms: N_4  and  C_5
REMARK    4  A    between atoms: N_4  and  C_6
REMARK    5  A    between atoms: C_6  and  C_7
REMARK    6  A    between atoms: C_12  and  O_13
REMARK                            x       y       z     vdW  Elec       q    Type
REMARK                         _______ _______ _______ _____ _____    ______ ____
ROOT
ATOM      1  C   UNL     1       4.170   3.864  18.033  0.00  0.00    +0.000 A 
ATOM      2  C   UNL     1       4.403   4.463  19.279  0.00  0.00    +0.000 A 
ATOM      3  C   UNL     1       5.383   5.433  19.381  0.00  0.00    +0.000 A 
ATOM      4  N   UNL     1       6.172   5.812  18.355  0.00  0.00    +0.000 NA
ATOM      5  C   UNL     1       5.950   5.243  17.150  0.00  0.00    +0.000 A 
ATOM      6  C   UNL     1       6.804   5.572  16.099  0.00  0.00    +0.000 A 
ATOM      7  C   UNL     1       6.663   5.052  14.818  0.00  0.00    +0.000 A 
ATOM      8  C   UNL     1       5.595   4.211  14.550  0.00  0.00    +0.000 A 
ATOM      9  C   UNL     1       4.729   3.850  15.582  0.00  0.00    +0.000 A 
ATOM     10  C   UNL     1       4.924   4.303  16.912  0.00  0.00    +0.000 A 
ENDROOT
BRANCH   6  11
ATOM     11  O   UNL     1       7.854   6.430  16.328  0.00  0.00    +0.000 OA
ATOM     12  H   UNL     1       7.489   7.311  16.096  0.00  0.00    +0.000 HD
ENDBRANCH   6  11
BRANCH   1  13
ATOM     13  C   UNL     1       3.273   2.642  17.968  0.00  0.00    +0.000 C 
BRANCH  13  14
ATOM     14  N   UNL     1       1.846   2.890  17.698  0.00  0.00    +0.000 NA
ATOM     15  C   UNL     1       1.634   4.348  17.720  0.00  0.00    +0.000 C 
BRANCH  14  16
ATOM     16  C   UNL     1       0.990   2.226  18.696  0.00  0.00    +0.000 C 
BRANCH  16  18
ATOM     17  C   UNL     1       1.371   3.222  21.147  0.00  0.00    +0.000 C 
ATOM     18  C   UNL     1       1.188   2.798  20.040  0.00  0.00    +0.000 C 
ENDBRANCH  16  18
ENDBRANCH  14  16
ENDBRANCH  13  14
ENDBRANCH   1  13
TORSDOF 5
ENDMDL
MODEL 8
REMARK VINA RESULT:      -6.1      2.846      5.429
REMARK  Name = 
REMARK  6 active torsions:
REMARK  status: ('A' for Active; 'I' for Inactive)
REMARK    1  A    between atoms: C_2  and  C_3
REMARK    2  A    between atoms: C_3  and  N_4
REMARK    3  A    between atoms: N_4  and  C_5
REMARK    4  A    between atoms: N_4  and  C_6
REMARK    5  A    between atoms: C_6  and  C_7
REMARK    6  A    between atoms: C_12  and  O_13
REMARK                            x       y       z     vdW  Elec       q    Type
REMARK                         _______ _______ _______ _____ _____    ______ ____
ROOT
ATOM      1  C   UNL     1       5.614   4.892  18.063  0.00  0.00    +0.000 A 
ATOM      2  C   UNL     1       6.443   5.809  18.725  0.00  0.00    +0.000 A 
ATOM      3  C   UNL     1       7.415   6.473  18.000  0.00  0.00    +0.000 A 
ATOM      4  N   UNL     1       7.651   6.259  16.690  0.00  0.00    +0.000 NA
ATOM      5  C   UNL     1       6.852   5.381  16.044  0.00  0.00    +0.000 A 
ATOM      6  C   UNL     1       7.131   5.096  14.709  0.00  0.00    +0.000 A 
ATOM      7  C   UNL     1       6.370   4.216  13.948  0.00  0.00    +0.000 A 
ATOM      8  C   UNL     1       5.250   3.632  14.519  0.00  0.00    +0.000 A 
ATOM      9  C   UNL     1       4.951   3.884  15.858  0.00  0.00    +0.000 A 
ATOM     10  C   UNL     1       5.777   4.708  16.664  0.00  0.00    +0.000 A 
ENDROOT
BRANCH   6  11
ATOM     11  O   UNL     1       8.217   5.686  14.106  0.00  0.00    +0.000 OA
ATOM     12  H   UNL     1       7.889   6.577  13.859  0.00  0.00    +0.000 HD
ENDBRANCH   6  11
BRANCH   1  13
ATOM     13  C   UNL     1       4.716   3.993  18.892  0.00  0.00    +0.000 C 
BRANCH  13  14
ATOM     14  N   UNL     1       3.513   4.619  19.469  0.00  0.00    +0.000 NA
ATOM     15  C   UNL     1       2.896   3.641  20.382  0.00  0.00    +0.000 C 
BRANCH  14  16
ATOM     16  C   UNL     1       2.563   5.019  18.417  0.00  0.00    +0.000 C 
BRANCH  16  18
ATOM     17  C   UNL     1       2.539   7.678  18.147  0.00  0.00    +0.000 C 
ATOM     18  C   UNL     1       2.537   6.482  18.245  0.00  0.00    +0.000 C 
ENDBRANCH  16  18
ENDBRANCH  14  16
ENDBRANCH  13  14
ENDBRANCH   1  13
TORSDOF 5
ENDMDL
MODEL 9
REMARK VINA RESULT:      -6.1      2.853      5.490
REMARK  Name = 
REMARK  6 active torsions:
REMARK  status: ('A' for Active; 'I' for Inactive)
REMARK    1  A    between atoms: C_2  and  C_3
REMARK    2  A    between atoms: C_3  and  N_4
REMARK    3  A    between atoms: N_4  and  C_5
REMARK    4  A    between atoms: N_4  and  C_6
REMARK    5  A    between atoms: C_6  and  C_7
REMARK    6  A    between atoms: C_12  and  O_13
REMARK                            x       y       z     vdW  Elec       q    Type
REMARK                         _______ _______ _______ _____ _____    ______ ____
ROOT
ATOM      1  C   UNL     1       5.626   4.675  18.392  0.00  0.00    +0.000 A 
ATOM      2  C   UNL     1       6.535   5.494  19.077  0.00  0.00    +0.000 A 
ATOM      3  C   UNL     1       7.503   6.167  18.354  0.00  0.00    +0.000 A 
ATOM      4  N   UNL     1       7.660   6.048  17.020  0.00  0.00    +0.000 NA
ATOM      5  C   UNL     1       6.784   5.265  16.353  0.00  0.00    +0.000 A 
ATOM      6  C   UNL     1       6.979   5.076  14.986  0.00  0.00    +0.000 A 
ATOM      7  C   UNL     1       6.135   4.298  14.202  0.00  0.00    +0.000 A 
ATOM      8  C   UNL     1       5.016   3.726  14.786  0.00  0.00    +0.000 A 
ATOM      9  C   UNL     1       4.799   3.883  16.155  0.00  0.00    +0.000 A 
ATOM     10  C   UNL     1       5.708   4.597  16.976  0.00  0.00    +0.000 A 
ENDROOT
BRANCH   6  11
ATOM     11  O   UNL     1       8.062   5.660  14.372  0.00  0.00    +0.000 OA
ATOM     12  H   UNL     1       8.723   4.935  14.330  0.00  0.00    +0.000 HD
ENDBRANCH   6  11
BRANCH   1  13
ATOM     13  C   UNL     1       4.725   3.757  19.196  0.00  0.00    +0.000 C 
BRANCH  13  14
ATOM     14  N   UNL     1       3.753   4.409  20.091  0.00  0.00    +0.000 NA
ATOM     15  C   UNL     1       2.905   3.355  20.674  0.00  0.00    +0.000 C 
BRANCH  14  16
ATOM     16  C   UNL     1       2.932   5.391  19.362  0.00  0.00    +0.000 C 
BRANCH  16  18
ATOM     17  C   UNL     1       1.348   4.231  17.548  0.00  0.00    +0.000 C 
ATOM     18  C   UNL     1       2.079   4.737  18.353  0.00  0.00    +0.000 C 
ENDBRANCH  16  18
ENDBRANCH  14  16
ENDBRANCH  13  14
ENDBRANCH   1  13
TORSDOF 5
ENDMDL
