MODEL 1
REMARK VINA RESULT:      -8.6      0.000      0.000
REMARK  Name = 
REMARK  5 active torsions:
REMARK  status: ('A' for Active; 'I' for Inactive)
REMARK    1  A    between atoms: C_1  and  O_2
REMARK    2  A    between atoms: O_2  and  C_3
REMARK    3  A    between atoms: C_9  and  C_10
REMARK    4  A    between atoms: C_10  and  N_11
REMARK    5  A    between atoms: C_14  and  N_15
REMARK                            x       y       z     vdW  Elec       q    Type
REMARK                         _______ _______ _______ _____ _____    ______ ____
ROOT
ATOM      1  N   UNL     1       1.767   9.533  18.890  0.00  0.00    +0.000 NA
ATOM      2  C   UNL     1       1.909  10.806  18.198  0.00  0.00    +0.000 C 
ATOM      3  C   UNL     1       1.286  12.063  18.818  0.00  0.00    +0.000 C 
ATOM      4  C   UNL     1       0.152  11.844  19.814  0.00  0.00    +0.000 C 
ATOM      5  C   UNL     1       0.545  10.712  20.761  0.00  0.00    +0.000 C 
ATOM      6  C   UNL     1       0.857   9.418  20.019  0.00  0.00    +0.000 C 
ENDROOT
BRANCH   4   7
ATOM      7  N   UNL     1      -1.233  11.795  19.370  0.00  0.00    +0.000 N 
ATOM      8  C   UNL     1      -2.207  12.653  19.964  0.00  0.00    +0.000 A 
ATOM      9  O   UNL     1      -2.052  13.430  20.895  0.00  0.00    +0.000 OA
ATOM     10  N   UNL     1      -3.394  12.481  19.255  0.00  0.00    +0.000 N 
ATOM     11  C   UNL     1      -3.185  11.570  18.232  0.00  0.00    +0.000 A 
ATOM     12  C   UNL     1      -4.086  11.172  17.264  0.00  0.00    +0.000 A 
ATOM     13  C   UNL     1      -3.624  10.278  16.302  0.00  0.00    +0.000 A 
ATOM     14  C   UNL     1      -2.305   9.800  16.354  0.00  0.00    +0.000 A 
ATOM     15  C   UNL     1      -1.419  10.217  17.361  0.00  0.00    +0.000 A 
ATOM     16  C   UNL     1      -1.860  11.125  18.296  0.00  0.00    +0.000 A 
ATOM     17  H   UNL     1      -4.235  13.006  19.436  0.00  0.00    +0.000 HD
ENDBRANCH   4   7
BRANCH   1  18
ATOM     18  C   UNL     1       1.760   8.347  17.990  0.00  0.00    +0.000 C 
BRANCH  18  25
ATOM     19  C   UNL     1       5.596   5.789  16.487  0.00  0.00    +0.000 A 
ATOM     20  C   UNL     1       5.979   4.856  17.447  0.00  0.00    +0.000 A 
ATOM     21  C   UNL     1       5.292   4.756  18.659  0.00  0.00    +0.000 A 
ATOM     22  C   UNL     1       4.196   5.602  18.875  0.00  0.00    +0.000 A 
ATOM     23  N   UNL     1       3.351   5.653  19.952  0.00  0.00    +0.000 N 
ATOM     24  C   UNL     1       2.395   6.599  19.747  0.00  0.00    +0.000 A 
ATOM     25  C   UNL     1       2.625   7.240  18.542  0.00  0.00    +0.000 A 
ATOM     26  C   UNL     1       3.775   6.570  17.956  0.00  0.00    +0.000 A 
ATOM     27  C   UNL     1       4.509   6.660  16.743  0.00  0.00    +0.000 A 
ATOM     28  H   UNL     1       3.396   5.059  20.771  0.00  0.00    +0.000 HD
BRANCH  19  30
ATOM     29  C   UNL     1       6.773   4.808  14.643  0.00  0.00    +0.000 C 
ATOM     30  O   UNL     1       6.214   5.960  15.271  0.00  0.00    +0.000 OA
ENDBRANCH  19  30
ENDBRANCH  18  25
ENDBRANCH   1  18
TORSDOF 4
ENDMDL
MODEL 2
REMARK VINA RESULT:      -8.4      1.985      2.772
REMARK  Name = 
REMARK  5 active torsions:
REMARK  status: ('A' for Active; 'I' for Inactive)
REMARK    1  A    between atoms: C_1  and  O_2
REMARK    2  A    between atoms: O_2  and  C_3
REMARK    3  A    between atoms: C_9  and  C_10
REMARK    4  A    between atoms: C_10  and  N_11
REMARK    5  A    between atoms: C_14  and  N_15
REMARK                            x       y       z     vdW  Elec       q    Type
REMARK                         _______ _______ _______ _____ _____    ______ ____
ROOT
ATOM      1  N   UNL     1       1.801   9.181  18.762  0.00  0.00    +0.000 NA
ATOM      2  C   UNL     1       2.013  10.453  18.085  0.00  0.00    +0.000 C 
ATOM      3  C   UNL     1       1.556  11.747  18.771  0.00  0.00    +0.000 C 
ATOM      4  C   UNL     1       0.480  11.609  19.842  0.00  0.00    +0.000 C 
ATOM      5  C   UNL     1       0.830  10.423  20.738  0.00  0.00    +0.000 C 
ATOM      6  C   UNL     1       0.967   9.124  19.952  0.00  0.00    +0.000 C 
ENDROOT
BRANCH   4   7
ATOM      7  N   UNL     1      -0.932  11.699  19.499  0.00  0.00    +0.000 N 
ATOM      8  C   UNL     1      -1.773  12.640  20.166  0.00  0.00    +0.000 A 
ATOM      9  O   UNL     1      -1.477  13.386  21.088  0.00  0.00    +0.000 OA
ATOM     10  N   UNL     1      -3.019  12.591  19.543  0.00  0.00    +0.000 N 
ATOM     11  C   UNL     1      -2.972  11.677  18.504  0.00  0.00    +0.000 A 
ATOM     12  C   UNL     1      -3.974  11.379  17.601  0.00  0.00    +0.000 A 
ATOM     13  C   UNL     1      -3.671  10.456  16.603  0.00  0.00    +0.000 A 
ATOM     14  C   UNL     1      -2.404   9.853  16.558  0.00  0.00    +0.000 A 
ATOM     15  C   UNL     1      -1.412  10.170  17.501  0.00  0.00    +0.000 A 
ATOM     16  C   UNL     1      -1.695  11.105  18.470  0.00  0.00    +0.000 A 
ATOM     17  H   UNL     1      -3.789  13.193  19.787  0.00  0.00    +0.000 HD
ENDBRANCH   4   7
BRANCH   1  18
ATOM     18  C   UNL     1       1.619   8.024  17.844  0.00  0.00    +0.000 C 
BRANCH  18  25
ATOM     19  C   UNL     1       2.378   3.599  19.679  0.00  0.00    +0.000 A 
ATOM     20  C   UNL     1       3.697   3.200  19.485  0.00  0.00    +0.000 A 
ATOM     21  C   UNL     1       4.605   4.032  18.825  0.00  0.00    +0.000 A 
ATOM     22  C   UNL     1       4.161   5.285  18.383  0.00  0.00    +0.000 A 
ATOM     23  N   UNL     1       4.872   6.277  17.762  0.00  0.00    +0.000 N 
ATOM     24  C   UNL     1       4.067   7.350  17.530  0.00  0.00    +0.000 A 
ATOM     25  C   UNL     1       2.779   7.062  17.946  0.00  0.00    +0.000 A 
ATOM     26  C   UNL     1       2.844   5.734  18.533  0.00  0.00    +0.000 A 
ATOM     27  C   UNL     1       1.941   4.854  19.189  0.00  0.00    +0.000 A 
ATOM     28  H   UNL     1       5.858   6.247  17.534  0.00  0.00    +0.000 HD
BRANCH  19  30
ATOM     29  C   UNL     1       1.573   2.613  21.710  0.00  0.00    +0.000 C 
ATOM     30  O   UNL     1       1.417   2.848  20.312  0.00  0.00    +0.000 OA
ENDBRANCH  19  30
ENDBRANCH  18  25
ENDBRANCH   1  18
TORSDOF 4
ENDMDL
MODEL 3
REMARK VINA RESULT:      -8.2      1.030      1.177
REMARK  Name = 
REMARK  5 active torsions:
REMARK  status: ('A' for Active; 'I' for Inactive)
REMARK    1  A    between atoms: C_1  and  O_2
REMARK    2  A    between atoms: O_2  and  C_3
REMARK    3  A    between atoms: C_9  and  C_10
REMARK    4  A    between atoms: C_10  and  N_11
REMARK    5  A    between atoms: C_14  and  N_15
REMARK                            x       y       z     vdW  Elec       q    Type
REMARK                         _______ _______ _______ _____ _____    ______ ____
ROOT
ATOM      1  N   UNL     1       1.822   8.979  18.819  0.00  0.00    +0.000 NA
ATOM      2  C   UNL     1       2.052  10.197  18.054  0.00  0.00    +0.000 C 
ATOM      3  C   UNL     1       1.632  11.544  18.655  0.00  0.00    +0.000 C 
ATOM      4  C   UNL     1       0.567  11.504  19.745  0.00  0.00    +0.000 C 
ATOM      5  C   UNL     1       0.903  10.373  20.716  0.00  0.00    +0.000 C 
ATOM      6  C   UNL     1       1.002   9.021  20.019  0.00  0.00    +0.000 C 
ENDROOT
BRANCH   4   7
ATOM      7  N   UNL     1      -0.847  11.601  19.412  0.00  0.00    +0.000 N 
ATOM      8  C   UNL     1      -1.677  12.550  20.082  0.00  0.00    +0.000 A 
ATOM      9  O   UNL     1      -1.369  13.299  20.998  0.00  0.00    +0.000 OA
ATOM     10  N   UNL     1      -2.928  12.507  19.469  0.00  0.00    +0.000 N 
ATOM     11  C   UNL     1      -2.895  11.588  18.433  0.00  0.00    +0.000 A 
ATOM     12  C   UNL     1      -3.906  11.292  17.539  0.00  0.00    +0.000 A 
ATOM     13  C   UNL     1      -3.616  10.363  16.543  0.00  0.00    +0.000 A 
ATOM     14  C   UNL     1      -2.354   9.751  16.492  0.00  0.00    +0.000 A 
ATOM     15  C   UNL     1      -1.353  10.067  17.425  0.00  0.00    +0.000 A 
ATOM     16  C   UNL     1      -1.622  11.007  18.392  0.00  0.00    +0.000 A 
ATOM     17  H   UNL     1      -3.692  13.115  19.716  0.00  0.00    +0.000 HD
ENDBRANCH   4   7
BRANCH   1  18
ATOM     18  C   UNL     1       1.604   7.766  17.984  0.00  0.00    +0.000 C 
BRANCH  18  25
ATOM     19  C   UNL     1       6.264   6.497  17.545  0.00  0.00    +0.000 A 
ATOM     20  C   UNL     1       6.514   5.290  18.193  0.00  0.00    +0.000 A 
ATOM     21  C   UNL     1       5.492   4.616  18.864  0.00  0.00    +0.000 A 
ATOM     22  C   UNL     1       4.206   5.171  18.852  0.00  0.00    +0.000 A 
ATOM     23  N   UNL     1       3.051   4.673  19.393  0.00  0.00    +0.000 N 
ATOM     24  C   UNL     1       2.013   5.513  19.126  0.00  0.00    +0.000 A 
ATOM     25  C   UNL     1       2.478   6.625  18.445  0.00  0.00    +0.000 A 
ATOM     26  C   UNL     1       3.897   6.389  18.234  0.00  0.00    +0.000 A 
ATOM     27  C   UNL     1       4.965   7.060  17.579  0.00  0.00    +0.000 A 
ATOM     28  H   UNL     1       2.958   3.796  19.890  0.00  0.00    +0.000 HD
BRANCH  19  30
ATOM     29  C   UNL     1       7.929   8.222  17.593  0.00  0.00    +0.000 C 
ATOM     30  O   UNL     1       7.206   7.231  16.864  0.00  0.00    +0.000 OA
ENDBRANCH  19  30
ENDBRANCH  18  25
ENDBRANCH   1  18
TORSDOF 4
ENDMDL
MODEL 4
REMARK VINA RESULT:      -8.0      2.204      8.630
REMARK  Name = 
REMARK  5 active torsions:
REMARK  status: ('A' for Active; 'I' for Inactive)
REMARK    1  A    between atoms: C_1  and  O_2
REMARK    2  A    between atoms: O_2  and  C_3
REMARK    3  A    between atoms: C_9  and  C_10
REMARK    4  A    between atoms: C_10  and  N_11
REMARK    5  A    between atoms: C_14  and  N_15
REMARK                            x       y       z     vdW  Elec       q    Type
REMARK                         _______ _______ _______ _____ _____    ______ ____
ROOT
ATOM      1  N   UNL     1       1.614   7.666  18.822  0.00  0.00    +0.000 NA
ATOM      2  C   UNL     1       1.478   6.795  17.662  0.00  0.00    +0.000 C 
ATOM      3  C   UNL     1       1.694   5.286  17.835  0.00  0.00    +0.000 C 
ATOM      4  C   UNL     1       2.516   4.847  19.042  0.00  0.00    +0.000 C 
ATOM      5  C   UNL     1       2.052   5.637  20.264  0.00  0.00    +0.000 C 
ATOM      6  C   UNL     1       2.170   7.143  20.060  0.00  0.00    +0.000 C 
ENDROOT
BRANCH   4   7
ATOM      7  N   UNL     1       3.961   4.695  18.946  0.00  0.00    +0.000 N 
ATOM      8  C   UNL     1       4.588   3.503  19.421  0.00  0.00    +0.000 A 
ATOM      9  O   UNL     1       4.064   2.558  19.991  0.00  0.00    +0.000 OA
ATOM     10  N   UNL     1       5.937   3.585  19.079  0.00  0.00    +0.000 N 
ATOM     11  C   UNL     1       6.160   4.766  18.390  0.00  0.00    +0.000 A 
ATOM     12  C   UNL     1       7.344   5.196  17.823  0.00  0.00    +0.000 A 
ATOM     13  C   UNL     1       7.309   6.404  17.130  0.00  0.00    +0.000 A 
ATOM     14  C   UNL     1       6.117   7.141  17.052  0.00  0.00    +0.000 A 
ATOM     15  C   UNL     1       4.934   6.680  17.653  0.00  0.00    +0.000 A 
ATOM     16  C   UNL     1       4.955   5.472  18.311  0.00  0.00    +0.000 A 
ATOM     17  H   UNL     1       6.603   2.850  19.254  0.00  0.00    +0.000 HD
ENDBRANCH   4   7
BRANCH   1  18
ATOM     18  C   UNL     1       2.063   9.048  18.498  0.00  0.00    +0.000 C 
BRANCH  18  25
ATOM     19  C   UNL     1      -2.414  10.249  17.071  0.00  0.00    +0.000 A 
ATOM     20  C   UNL     1      -2.906  11.314  17.821  0.00  0.00    +0.000 A 
ATOM     21  C   UNL     1      -2.138  11.886  18.838  0.00  0.00    +0.000 A 
ATOM     22  C   UNL     1      -0.854  11.376  19.071  0.00  0.00    +0.000 A 
ATOM     23  N   UNL     1       0.088  11.800  19.970  0.00  0.00    +0.000 N 
ATOM     24  C   UNL     1       1.217  11.049  19.849  0.00  0.00    +0.000 A 
ATOM     25  C   UNL     1       1.020  10.065  18.896  0.00  0.00    +0.000 A 
ATOM     26  C   UNL     1      -0.312  10.296  18.363  0.00  0.00    +0.000 A 
ATOM     27  C   UNL     1      -1.128   9.724  17.350  0.00  0.00    +0.000 A 
ATOM     28  H   UNL     1      -0.011  12.577  20.611  0.00  0.00    +0.000 HD
BRANCH  19  30
ATOM     29  C   UNL     1      -3.132  10.267  14.784  0.00  0.00    +0.000 C 
ATOM     30  O   UNL     1      -3.098   9.624  16.057  0.00  0.00    +0.000 OA
ENDBRANCH  19  30
ENDBRANCH  18  25
ENDBRANCH   1  18
TORSDOF 4
ENDMDL
MODEL 5
REMARK VINA RESULT:      -7.8      1.097      1.244
REMARK  Name = 
REMARK  5 active torsions:
REMARK  status: ('A' for Active; 'I' for Inactive)
REMARK    1  A    between atoms: C_1  and  O_2
REMARK    2  A    between atoms: O_2  and  C_3
REMARK    3  A    between atoms: C_9  and  C_10
REMARK    4  A    between atoms: C_10  and  N_11
REMARK    5  A    between atoms: C_14  and  N_15
REMARK                            x       y       z     vdW  Elec       q    Type
REMARK                         _______ _______ _______ _____ _____    ______ ____
ROOT
ATOM      1  N   UNL     1       1.146  10.070  19.513  0.00  0.00    +0.000 NA
ATOM      2  C   UNL     1       1.249  11.429  18.999  0.00  0.00    +0.000 C 
ATOM      3  C   UNL     1       0.326  12.513  19.572  0.00  0.00    +0.000 C 
ATOM      4  C   UNL     1      -0.954  12.034  20.247  0.00  0.00    +0.000 C 
ATOM      5  C   UNL     1      -0.619  10.847  21.147  0.00  0.00    +0.000 C 
ATOM      6  C   UNL     1       0.036   9.705  20.379  0.00  0.00    +0.000 C 
ENDROOT
BRANCH   4   7
ATOM      7  N   UNL     1      -2.185  11.875  19.486  0.00  0.00    +0.000 N 
ATOM      8  C   UNL     1      -3.362  12.586  19.869  0.00  0.00    +0.000 A 
ATOM      9  O   UNL     1      -3.516  13.306  20.845  0.00  0.00    +0.000 OA
ATOM     10  N   UNL     1      -4.326  12.343  18.892  0.00  0.00    +0.000 N 
ATOM     11  C   UNL     1      -3.782  11.532  17.909  0.00  0.00    +0.000 A 
ATOM     12  C   UNL     1      -4.383  11.113  16.739  0.00  0.00    +0.000 A 
ATOM     13  C   UNL     1      -3.611  10.340  15.874  0.00  0.00    +0.000 A 
ATOM     14  C   UNL     1      -2.294   9.997  16.217  0.00  0.00    +0.000 A 
ATOM     15  C   UNL     1      -1.718  10.431  17.422  0.00  0.00    +0.000 A 
ATOM     16  C   UNL     1      -2.465  11.221  18.266  0.00  0.00    +0.000 A 
ATOM     17  H   UNL     1      -5.240  12.765  18.892  0.00  0.00    +0.000 HD
ENDBRANCH   4   7
BRANCH   1  18
ATOM     18  C   UNL     1       1.512   9.016  18.528  0.00  0.00    +0.000 C 
BRANCH  18  25
ATOM     19  C   UNL     1       4.399   5.282  17.414  0.00  0.00    +0.000 A 
ATOM     20  C   UNL     1       4.501   4.396  18.483  0.00  0.00    +0.000 A 
ATOM     21  C   UNL     1       3.831   4.645  19.682  0.00  0.00    +0.000 A 
ATOM     22  C   UNL     1       3.037   5.796  19.776  0.00  0.00    +0.000 A 
ATOM     23  N   UNL     1       2.259   6.218  20.821  0.00  0.00    +0.000 N 
ATOM     24  C   UNL     1       1.623   7.375  20.488  0.00  0.00    +0.000 A 
ATOM     25  C   UNL     1       2.018   7.775  19.223  0.00  0.00    +0.000 A 
ATOM     26  C   UNL     1       2.910   6.732  18.743  0.00  0.00    +0.000 A 
ATOM     27  C   UNL     1       3.622   6.459  17.544  0.00  0.00    +0.000 A 
ATOM     28  H   UNL     1       2.136   5.737  21.703  0.00  0.00    +0.000 HD
BRANCH  19  30
ATOM     29  C   UNL     1       5.278   6.291  15.424  0.00  0.00    +0.000 C 
ATOM     30  O   UNL     1       5.024   5.121  16.200  0.00  0.00    +0.000 OA
ENDBRANCH  19  30
ENDBRANCH  18  25
ENDBRANCH   1  18
TORSDOF 4
ENDMDL
MODEL 6
REMARK VINA RESULT:      -7.5      1.431      3.082
REMARK  Name = 
REMARK  5 active torsions:
REMARK  status: ('A' for Active; 'I' for Inactive)
REMARK    1  A    between atoms: C_1  and  O_2
REMARK    2  A    between atoms: O_2  and  C_3
REMARK    3  A    between atoms: C_9  and  C_10
REMARK    4  A    between atoms: C_10  and  N_11
REMARK    5  A    between atoms: C_14  and  N_15
REMARK                            x       y       z     vdW  Elec       q    Type
REMARK                         _______ _______ _______ _____ _____    ______ ____
ROOT
ATOM      1  N   UNL     1       0.855   9.178  18.783  0.00  0.00    +0.000 NA
ATOM      2  C   UNL     1       1.030   9.568  20.175  0.00  0.00    +0.000 C 
ATOM      3  C   UNL     1      -0.019  10.476  20.831  0.00  0.00    +0.000 C 
ATOM      4  C   UNL     1      -0.879  11.315  19.892  0.00  0.00    +0.000 C 
ATOM      5  C   UNL     1      -1.336  10.437  18.729  0.00  0.00    +0.000 C 
ATOM      6  C   UNL     1      -0.164   9.824  17.971  0.00  0.00    +0.000 C 
ENDROOT
BRANCH   4   7
ATOM      7  N   UNL     1      -0.467  12.655  19.500  0.00  0.00    +0.000 N 
ATOM      8  C   UNL     1      -1.310  13.774  19.774  0.00  0.00    +0.000 A 
ATOM      9  O   UNL     1      -2.429  13.764  20.266  0.00  0.00    +0.000 OA
ATOM     10  N   UNL     1      -0.604  14.919  19.412  0.00  0.00    +0.000 N 
ATOM     11  C   UNL     1       0.649  14.554  18.949  0.00  0.00    +0.000 A 
ATOM     12  C   UNL     1       1.675  15.389  18.553  0.00  0.00    +0.000 A 
ATOM     13  C   UNL     1       2.871  14.784  18.174  0.00  0.00    +0.000 A 
ATOM     14  C   UNL     1       2.990  13.386  18.180  0.00  0.00    +0.000 A 
ATOM     15  C   UNL     1       1.921  12.565  18.576  0.00  0.00    +0.000 A 
ATOM     16  C   UNL     1       0.747  13.158  18.982  0.00  0.00    +0.000 A 
ATOM     17  H   UNL     1      -0.951  15.855  19.547  0.00  0.00    +0.000 HD
ENDBRANCH   4   7
BRANCH   1  18
ATOM     18  C   UNL     1       2.129   8.922  18.057  0.00  0.00    +0.000 C 
BRANCH  18  25
ATOM     19  C   UNL     1       5.431   5.825  16.318  0.00  0.00    +0.000 A 
ATOM     20  C   UNL     1       5.612   4.752  17.186  0.00  0.00    +0.000 A 
ATOM     21  C   UNL     1       4.897   4.674  18.384  0.00  0.00    +0.000 A 
ATOM     22  C   UNL     1       3.979   5.691  18.679  0.00  0.00    +0.000 A 
ATOM     23  N   UNL     1       3.141   5.803  19.757  0.00  0.00    +0.000 N 
ATOM     24  C   UNL     1       2.387   6.931  19.642  0.00  0.00    +0.000 A 
ATOM     25  C   UNL     1       2.757   7.624  18.503  0.00  0.00    +0.000 A 
ATOM     26  C   UNL     1       3.768   6.803  17.856  0.00  0.00    +0.000 A 
ATOM     27  C   UNL     1       4.526   6.861  16.656  0.00  0.00    +0.000 A 
ATOM     28  H   UNL     1       3.058   5.139  20.516  0.00  0.00    +0.000 HD
BRANCH  19  30
ATOM     29  C   UNL     1       6.642   4.823  14.508  0.00  0.00    +0.000 C 
ATOM     30  O   UNL     1       6.091   5.986  15.124  0.00  0.00    +0.000 OA
ENDBRANCH  19  30
ENDBRANCH  18  25
ENDBRANCH   1  18
TORSDOF 4
ENDMDL
MODEL 7
REMARK VINA RESULT:      -7.5      4.265      9.172
REMARK  Name = 
REMARK  5 active torsions:
REMARK  status: ('A' for Active; 'I' for Inactive)
REMARK    1  A    between atoms: C_1  and  O_2
REMARK    2  A    between atoms: O_2  and  C_3
REMARK    3  A    between atoms: C_9  and  C_10
REMARK    4  A    between atoms: C_10  and  N_11
REMARK    5  A    between atoms: C_14  and  N_15
REMARK                            x       y       z     vdW  Elec       q    Type
REMARK                         _______ _______ _______ _____ _____    ______ ____
ROOT
ATOM      1  N   UNL     1      -1.368  13.489  21.934  0.00  0.00    +0.000 NA
ATOM      2  C   UNL     1      -1.686  12.143  22.391  0.00  0.00    +0.000 C 
ATOM      3  C   UNL     1      -0.752  10.988  22.006  0.00  0.00    +0.000 C 
ATOM      4  C   UNL     1       0.135  11.203  20.786  0.00  0.00    +0.000 C 
ATOM      5  C   UNL     1       0.742  12.602  20.862  0.00  0.00    +0.000 C 
ATOM      6  C   UNL     1      -0.321  13.691  20.944  0.00  0.00    +0.000 C 
ENDROOT
BRANCH   4   7
ATOM      7  N   UNL     1      -0.319  10.823  19.456  0.00  0.00    +0.000 N 
ATOM      8  C   UNL     1       0.496   9.990  18.631  0.00  0.00    +0.000 A 
ATOM      9  O   UNL     1       1.620   9.573  18.868  0.00  0.00    +0.000 OA
ATOM     10  N   UNL     1      -0.246   9.690  17.490  0.00  0.00    +0.000 N 
ATOM     11  C   UNL     1      -1.493  10.283  17.590  0.00  0.00    +0.000 A 
ATOM     12  C   UNL     1      -2.547  10.178  16.703  0.00  0.00    +0.000 A 
ATOM     13  C   UNL     1      -3.730  10.828  17.048  0.00  0.00    +0.000 A 
ATOM     14  C   UNL     1      -3.809  11.570  18.237  0.00  0.00    +0.000 A 
ATOM     15  C   UNL     1      -2.713  11.665  19.110  0.00  0.00    +0.000 A 
ATOM     16  C   UNL     1      -1.552  11.000  18.791  0.00  0.00    +0.000 A 
ATOM     17  H   UNL     1       0.076   9.074  16.761  0.00  0.00    +0.000 HD
ENDBRANCH   4   7
BRANCH   1  18
ATOM     18  C   UNL     1      -2.557  14.364  21.738  0.00  0.00    +0.000 C 
BRANCH  18  25
ATOM     19  C   UNL     1      -6.915  12.250  21.503  0.00  0.00    +0.000 A 
ATOM     20  C   UNL     1      -7.511  12.198  22.760  0.00  0.00    +0.000 A 
ATOM     21  C   UNL     1      -6.853  12.705  23.883  0.00  0.00    +0.000 A 
ATOM     22  C   UNL     1      -5.590  13.285  23.710  0.00  0.00    +0.000 A 
ATOM     23  N   UNL     1      -4.786  13.883  24.644  0.00  0.00    +0.000 N 
ATOM     24  C   UNL     1      -3.651  14.346  24.051  0.00  0.00    +0.000 A 
ATOM     25  C   UNL     1      -3.657  14.009  22.708  0.00  0.00    +0.000 A 
ATOM     26  C   UNL     1      -4.932  13.350  22.476  0.00  0.00    +0.000 A 
ATOM     27  C   UNL     1      -5.620  12.806  21.358  0.00  0.00    +0.000 A 
ATOM     28  H   UNL     1      -5.002  14.002  25.626  0.00  0.00    +0.000 HD
BRANCH  19  30
ATOM     29  C   UNL     1      -7.135  10.456  19.928  0.00  0.00    +0.000 C 
ATOM     30  O   UNL     1      -7.484  11.774  20.346  0.00  0.00    +0.000 OA
ENDBRANCH  19  30
ENDBRANCH  18  25
ENDBRANCH   1  18
TORSDOF 4
ENDMDL
MODEL 8
REMARK VINA RESULT:      -7.4      2.743      8.611
REMARK  Name = 
REMARK  5 active torsions:
REMARK  status: ('A' for Active; 'I' for Inactive)
REMARK    1  A    between atoms: C_1  and  O_2
REMARK    2  A    between atoms: O_2  and  C_3
REMARK    3  A    between atoms: C_9  and  C_10
REMARK    4  A    between atoms: C_10  and  N_11
REMARK    5  A    between atoms: C_14  and  N_15
REMARK                            x       y       z     vdW  Elec       q    Type
REMARK                         _______ _______ _______ _____ _____    ______ ____
ROOT
ATOM      1  N   UNL     1       1.738   7.791  18.655  0.00  0.00    +0.000 NA
ATOM      2  C   UNL     1       1.498   6.845  17.573  0.00  0.00    +0.000 C 
ATOM      3  C   UNL     1       1.605   5.343  17.861  0.00  0.00    +0.000 C 
ATOM      4  C   UNL     1       2.431   4.937  19.077  0.00  0.00    +0.000 C 
ATOM      5  C   UNL     1       2.068   5.853  20.244  0.00  0.00    +0.000 C 
ATOM      6  C   UNL     1       2.293   7.325  19.915  0.00  0.00    +0.000 C 
ENDROOT
BRANCH   4   7
ATOM      7  N   UNL     1       3.856   4.665  18.955  0.00  0.00    +0.000 N 
ATOM      8  C   UNL     1       4.394   3.433  19.437  0.00  0.00    +0.000 A 
ATOM      9  O   UNL     1       3.807   2.542  20.034  0.00  0.00    +0.000 OA
ATOM     10  N   UNL     1       5.737   3.399  19.067  0.00  0.00    +0.000 N 
ATOM     11  C   UNL     1       6.041   4.547  18.354  0.00  0.00    +0.000 A 
ATOM     12  C   UNL     1       7.244   4.870  17.755  0.00  0.00    +0.000 A 
ATOM     13  C   UNL     1       7.292   6.066  17.043  0.00  0.00    +0.000 A 
ATOM     14  C   UNL     1       6.163   6.897  16.977  0.00  0.00    +0.000 A 
ATOM     15  C   UNL     1       4.960   6.543  17.609  0.00  0.00    +0.000 A 
ATOM     16  C   UNL     1       4.896   5.348  18.287  0.00  0.00    +0.000 A 
ATOM     17  H   UNL     1       6.345   2.615  19.241  0.00  0.00    +0.000 HD
ENDBRANCH   4   7
BRANCH   1  18
ATOM     18  C   UNL     1       2.279   9.104  18.209  0.00  0.00    +0.000 C 
BRANCH  18  25
ATOM     19  C   UNL     1       2.452  13.950  18.311  0.00  0.00    +0.000 A 
ATOM     20  C   UNL     1       1.241  14.482  18.745  0.00  0.00    +0.000 A 
ATOM     21  C   UNL     1       0.171  13.646  19.074  0.00  0.00    +0.000 A 
ATOM     22  C   UNL     1       0.354  12.260  18.976  0.00  0.00    +0.000 A 
ATOM     23  N   UNL     1      -0.524  11.255  19.286  0.00  0.00    +0.000 N 
ATOM     24  C   UNL     1       0.063  10.045  19.076  0.00  0.00    +0.000 A 
ATOM     25  C   UNL     1       1.335  10.228  18.561  0.00  0.00    +0.000 A 
ATOM     26  C   UNL     1       1.540  11.667  18.528  0.00  0.00    +0.000 A 
ATOM     27  C   UNL     1       2.601  12.547  18.182  0.00  0.00    +0.000 A 
ATOM     28  H   UNL     1      -1.460  11.376  19.652  0.00  0.00    +0.000 HD
BRANCH  19  30
ATOM     29  C   UNL     1       3.337  16.026  17.503  0.00  0.00    +0.000 C 
ATOM     30  O   UNL     1       3.554  14.693  17.963  0.00  0.00    +0.000 OA
ENDBRANCH  19  30
ENDBRANCH  18  25
ENDBRANCH   1  18
TORSDOF 4
ENDMDL
MODEL 9
REMARK VINA RESULT:      -7.4      1.721      3.273
REMARK  Name = 
REMARK  5 active torsions:
REMARK  status: ('A' for Active; 'I' for Inactive)
REMARK    1  A    between atoms: C_1  and  O_2
REMARK    2  A    between atoms: O_2  and  C_3
REMARK    3  A    between atoms: C_9  and  C_10
REMARK    4  A    between atoms: C_10  and  N_11
REMARK    5  A    between atoms: C_14  and  N_15
REMARK                            x       y       z     vdW  Elec       q    Type
REMARK                         _______ _______ _______ _____ _____    ______ ____
ROOT
ATOM      1  N   UNL     1       1.005   9.059  18.628  0.00  0.00    +0.000 NA
ATOM      2  C   UNL     1       1.133   9.400  20.038  0.00  0.00    +0.000 C 
ATOM      3  C   UNL     1       0.030  10.233  20.705  0.00  0.00    +0.000 C 
ATOM      4  C   UNL     1      -0.846  11.071  19.782  0.00  0.00    +0.000 C 
ATOM      5  C   UNL     1      -1.239  10.221  18.575  0.00  0.00    +0.000 C 
ATOM      6  C   UNL     1      -0.024   9.693  17.820  0.00  0.00    +0.000 C 
ENDROOT
BRANCH   4   7
ATOM      7  N   UNL     1      -0.486  12.442  19.452  0.00  0.00    +0.000 N 
ATOM      8  C   UNL     1      -1.393  13.508  19.735  0.00  0.00    +0.000 A 
ATOM      9  O   UNL     1      -2.527  13.428  20.184  0.00  0.00    +0.000 OA
ATOM     10  N   UNL     1      -0.732  14.699  19.440  0.00  0.00    +0.000 N 
ATOM     11  C   UNL     1       0.554  14.411  19.011  0.00  0.00    +0.000 A 
ATOM     12  C   UNL     1       1.551  15.309  18.684  0.00  0.00    +0.000 A 
ATOM     13  C   UNL     1       2.788  14.776  18.329  0.00  0.00    +0.000 A 
ATOM     14  C   UNL     1       2.975  13.386  18.289  0.00  0.00    +0.000 A 
ATOM     15  C   UNL     1       1.934  12.501  18.616  0.00  0.00    +0.000 A 
ATOM     16  C   UNL     1       0.719  13.022  18.998  0.00  0.00    +0.000 A 
ATOM     17  H   UNL     1      -1.129  15.612  19.595  0.00  0.00    +0.000 HD
ENDBRANCH   4   7
BRANCH   1  18
ATOM     18  C   UNL     1       2.305   8.890  17.921  0.00  0.00    +0.000 C 
BRANCH  18  25
ATOM     19  C   UNL     1       6.387   6.410  17.084  0.00  0.00    +0.000 A 
ATOM     20  C   UNL     1       6.165   5.039  17.182  0.00  0.00    +0.000 A 
ATOM     21  C   UNL     1       4.899   4.542  17.497  0.00  0.00    +0.000 A 
ATOM     22  C   UNL     1       3.854   5.455  17.691  0.00  0.00    +0.000 A 
ATOM     23  N   UNL     1       2.534   5.204  17.958  0.00  0.00    +0.000 N 
ATOM     24  C   UNL     1       1.847   6.376  18.042  0.00  0.00    +0.000 A 
ATOM     25  C   UNL     1       2.719   7.439  17.888  0.00  0.00    +0.000 A 
ATOM     26  C   UNL     1       4.019   6.843  17.624  0.00  0.00    +0.000 A 
ATOM     27  C   UNL     1       5.325   7.316  17.323  0.00  0.00    +0.000 A 
ATOM     28  H   UNL     1       2.110   4.289  18.048  0.00  0.00    +0.000 HD
BRANCH  19  30
ATOM     29  C   UNL     1       8.012   8.106  17.566  0.00  0.00    +0.000 C 
ATOM     30  O   UNL     1       7.597   6.988  16.783  0.00  0.00    +0.000 OA
ENDBRANCH  19  30
ENDBRANCH  18  25
ENDBRANCH   1  18
TORSDOF 4
ENDMDL
