MODEL 1
REMARK VINA RESULT:      -8.1      0.000      0.000
REMARK  Name = 
REMARK  10 active torsions:
REMARK  status: ('A' for Active; 'I' for Inactive)
REMARK    1  A    between atoms: C_1  and  O_2
REMARK    2  A    between atoms: O_2  and  C_3
REMARK    3  A    between atoms: C_5  and  C_6
REMARK    4  A    between atoms: C_6  and  C_7
REMARK    5  A    between atoms: C_7  and  C_8
REMARK    6  A    between atoms: C_11  and  N_12
REMARK    7  A    between atoms: C_13  and  C_15
REMARK    8  A    between atoms: C_18  and  C_19
REMARK    9  A    between atoms: C_21  and  O_22
REMARK   10  A    between atoms: C_27  and  O_28
REMARK                            x       y       z     vdW  Elec       q    Type
REMARK                         _______ _______ _______ _____ _____    ______ ____
ROOT
ATOM      1  C   UNL     1       6.536   5.141  17.375  0.00  0.00    +0.000 A 
ATOM      2  C   UNL     1       7.182   5.133  18.611  0.00  0.00    +0.000 A 
ATOM      3  C   UNL     1       7.919   6.231  19.044  0.00  0.00    +0.000 A 
ATOM      4  C   UNL     1       8.069   7.361  18.248  0.00  0.00    +0.000 A 
ATOM      5  C   UNL     1       7.445   7.377  16.996  0.00  0.00    +0.000 A 
ATOM      6  C   UNL     1       6.689   6.274  16.560  0.00  0.00    +0.000 A 
ENDROOT
BRANCH   4   7
ATOM      7  N   UNL     1       8.828   8.482  18.651  0.00  0.00    +0.000 N 
ATOM      8  C   UNL     1       8.618   9.791  18.253  0.00  0.00    +0.000 C 
ATOM      9  O   UNL     1       7.732  10.175  17.490  0.00  0.00    +0.000 OA
ATOM     10  H   UNL     1       9.594   8.323  19.298  0.00  0.00    +0.000 HD
BRANCH   8  11
ATOM     11  C   UNL     1       9.540  10.836  18.788  0.00  0.00    +0.000 A 
ATOM     12  C   UNL     1      10.214  11.615  17.829  0.00  0.00    +0.000 A 
ATOM     13  C   UNL     1      11.114  12.607  18.208  0.00  0.00    +0.000 A 
ATOM     14  C   UNL     1      11.358  12.849  19.559  0.00  0.00    +0.000 A 
ATOM     15  C   UNL     1      12.333  13.910  19.970  0.00  0.00    +0.000 C 
ATOM     16  C   UNL     1      10.686  12.086  20.526  0.00  0.00    +0.000 A 
ATOM     17  C   UNL     1       9.785  11.081  20.143  0.00  0.00    +0.000 A 
BRANCH  17  18
ATOM     18  O   UNL     1       9.159  10.346  21.117  0.00  0.00    +0.000 OA
ATOM     19  H   UNL     1       8.295  10.056  20.775  0.00  0.00    +0.000 HD
ENDBRANCH  17  18
ENDBRANCH   8  11
ENDBRANCH   4   7
BRANCH   1  20
ATOM     20  C   UNL     1       5.750   3.936  16.901  0.00  0.00    +0.000 C 
BRANCH  20  21
ATOM     21  C   UNL     1       4.224   4.117  16.991  0.00  0.00    +0.000 C 
BRANCH  21  24
ATOM     22  C   UNL     1       2.106   4.361  20.160  0.00  0.00    +0.000 A 
ATOM     23  C   UNL     1       2.670   4.636  18.907  0.00  0.00    +0.000 A 
ATOM     24  C   UNL     1       3.667   3.815  18.356  0.00  0.00    +0.000 A 
ATOM     25  C   UNL     1       4.112   2.710  19.078  0.00  0.00    +0.000 A 
ATOM     26  C   UNL     1       3.564   2.425  20.328  0.00  0.00    +0.000 A 
ATOM     27  C   UNL     1       2.567   3.246  20.868  0.00  0.00    +0.000 A 
BRANCH  22  29
ATOM     28  C   UNL     1       1.555   6.538  20.981  0.00  0.00    +0.000 C 
ATOM     29  O   UNL     1       1.141   5.263  20.516  0.00  0.00    +0.000 OA
ENDBRANCH  22  29
BRANCH  27  30
ATOM     30  O   UNL     1       2.064   2.922  22.097  0.00  0.00    +0.000 OA
ATOM     31  H   UNL     1       1.332   3.522  22.312  0.00  0.00    +0.000 HD
ENDBRANCH  27  30
ENDBRANCH  21  24
ENDBRANCH  20  21
ENDBRANCH   1  20
TORSDOF 8
ENDMDL
MODEL 2
REMARK VINA RESULT:      -8.0      1.018      2.075
REMARK  Name = 
REMARK  10 active torsions:
REMARK  status: ('A' for Active; 'I' for Inactive)
REMARK    1  A    between atoms: C_1  and  O_2
REMARK    2  A    between atoms: O_2  and  C_3
REMARK    3  A    between atoms: C_5  and  C_6
REMARK    4  A    between atoms: C_6  and  C_7
REMARK    5  A    between atoms: C_7  and  C_8
REMARK    6  A    between atoms: C_11  and  N_12
REMARK    7  A    between atoms: C_13  and  C_15
REMARK    8  A    between atoms: C_18  and  C_19
REMARK    9  A    between atoms: C_21  and  O_22
REMARK   10  A    between atoms: C_27  and  O_28
REMARK                            x       y       z     vdW  Elec       q    Type
REMARK                         _______ _______ _______ _____ _____    ______ ____
ROOT
ATOM      1  C   UNL     1       6.717   5.431  17.681  0.00  0.00    +0.000 A 
ATOM      2  C   UNL     1       6.806   6.520  16.813  0.00  0.00    +0.000 A 
ATOM      3  C   UNL     1       7.542   7.651  17.151  0.00  0.00    +0.000 A 
ATOM      4  C   UNL     1       8.187   7.754  18.380  0.00  0.00    +0.000 A 
ATOM      5  C   UNL     1       8.090   6.680  19.270  0.00  0.00    +0.000 A 
ATOM      6  C   UNL     1       7.357   5.530  18.927  0.00  0.00    +0.000 A 
ENDROOT
BRANCH   4   7
ATOM      7  N   UNL     1       8.924   8.897  18.760  0.00  0.00    +0.000 N 
ATOM      8  C   UNL     1       8.693  10.193  18.332  0.00  0.00    +0.000 C 
ATOM      9  O   UNL     1       7.804  10.543  17.557  0.00  0.00    +0.000 OA
ATOM     10  H   UNL     1       9.690   8.766  19.414  0.00  0.00    +0.000 HD
BRANCH   8  11
ATOM     11  C   UNL     1       9.594  11.266  18.846  0.00  0.00    +0.000 A 
ATOM     12  C   UNL     1      10.161  12.114  17.877  0.00  0.00    +0.000 A 
ATOM     13  C   UNL     1      11.033  13.139  18.236  0.00  0.00    +0.000 A 
ATOM     14  C   UNL     1      11.353  13.345  19.576  0.00  0.00    +0.000 A 
ATOM     15  C   UNL     1      12.298  14.442  19.964  0.00  0.00    +0.000 C 
ATOM     16  C   UNL     1      10.788  12.512  20.554  0.00  0.00    +0.000 A 
ATOM     17  C   UNL     1       9.916  11.476  20.191  0.00  0.00    +0.000 A 
BRANCH  17  18
ATOM     18  O   UNL     1       9.395  10.673  21.174  0.00  0.00    +0.000 OA
ATOM     19  H   UNL     1       9.791  10.933  22.025  0.00  0.00    +0.000 HD
ENDBRANCH  17  18
ENDBRANCH   8  11
ENDBRANCH   4   7
BRANCH   1  20
ATOM     20  C   UNL     1       5.900   4.210  17.314  0.00  0.00    +0.000 C 
BRANCH  20  21
ATOM     21  C   UNL     1       4.450   4.533  16.911  0.00  0.00    +0.000 C 
BRANCH  21  24
ATOM     22  C   UNL     1       2.547   5.228  20.149  0.00  0.00    +0.000 A 
ATOM     23  C   UNL     1       3.234   4.572  19.119  0.00  0.00    +0.000 A 
ATOM     24  C   UNL     1       3.681   5.261  17.981  0.00  0.00    +0.000 A 
ATOM     25  C   UNL     1       3.425   6.626  17.869  0.00  0.00    +0.000 A 
ATOM     26  C   UNL     1       2.738   7.293  18.883  0.00  0.00    +0.000 A 
ATOM     27  C   UNL     1       2.301   6.599  20.017  0.00  0.00    +0.000 A 
BRANCH  22  29
ATOM     28  C   UNL     1       1.560   3.171  20.864  0.00  0.00    +0.000 C 
ATOM     29  O   UNL     1       2.211   4.393  21.179  0.00  0.00    +0.000 OA
ENDBRANCH  22  29
BRANCH  27  30
ATOM     30  O   UNL     1       1.632   7.301  20.981  0.00  0.00    +0.000 OA
ATOM     31  H   UNL     1       2.015   8.190  21.054  0.00  0.00    +0.000 HD
ENDBRANCH  27  30
ENDBRANCH  21  24
ENDBRANCH  20  21
ENDBRANCH   1  20
TORSDOF 8
ENDMDL
MODEL 3
REMARK VINA RESULT:      -7.9      4.234      8.455
REMARK  Name = 
REMARK  10 active torsions:
REMARK  status: ('A' for Active; 'I' for Inactive)
REMARK    1  A    between atoms: C_1  and  O_2
REMARK    2  A    between atoms: O_2  and  C_3
REMARK    3  A    between atoms: C_5  and  C_6
REMARK    4  A    between atoms: C_6  and  C_7
REMARK    5  A    between atoms: C_7  and  C_8
REMARK    6  A    between atoms: C_11  and  N_12
REMARK    7  A    between atoms: C_13  and  C_15
REMARK    8  A    between atoms: C_18  and  C_19
REMARK    9  A    between atoms: C_21  and  O_22
REMARK   10  A    between atoms: C_27  and  O_28
REMARK                            x       y       z     vdW  Elec       q    Type
REMARK                         _______ _______ _______ _____ _____    ______ ____
ROOT
ATOM      1  C   UNL     1       3.320   5.395  19.214  0.00  0.00    +0.000 A 
ATOM      2  C   UNL     1       3.304   6.566  18.455  0.00  0.00    +0.000 A 
ATOM      3  C   UNL     1       2.508   7.647  18.818  0.00  0.00    +0.000 A 
ATOM      4  C   UNL     1       1.674   7.590  19.929  0.00  0.00    +0.000 A 
ATOM      5  C   UNL     1       1.662   6.416  20.689  0.00  0.00    +0.000 A 
ATOM      6  C   UNL     1       2.474   5.325  20.332  0.00  0.00    +0.000 A 
ENDROOT
BRANCH   4   7
ATOM      7  N   UNL     1       0.839   8.664  20.311  0.00  0.00    +0.000 N 
ATOM      8  C   UNL     1       0.903   9.357  21.508  0.00  0.00    +0.000 C 
ATOM      9  O   UNL     1       1.703   9.142  22.418  0.00  0.00    +0.000 OA
ATOM     10  H   UNL     1       0.131   8.967  19.650  0.00  0.00    +0.000 HD
BRANCH   8  11
ATOM     11  C   UNL     1      -0.079  10.459  21.725  0.00  0.00    +0.000 A 
ATOM     12  C   UNL     1      -0.776  10.436  22.947  0.00  0.00    +0.000 A 
ATOM     13  C   UNL     1      -1.730  11.402  23.254  0.00  0.00    +0.000 A 
ATOM     14  C   UNL     1      -2.007  12.421  22.345  0.00  0.00    +0.000 A 
ATOM     15  C   UNL     1      -3.042  13.457  22.668  0.00  0.00    +0.000 C 
ATOM     16  C   UNL     1      -1.314  12.462  21.126  0.00  0.00    +0.000 A 
ATOM     17  C   UNL     1      -0.358  11.485  20.815  0.00  0.00    +0.000 A 
BRANCH  17  18
ATOM     18  O   UNL     1       0.288  11.550  19.607  0.00  0.00    +0.000 OA
ATOM     19  H   UNL     1       0.947  12.266  19.649  0.00  0.00    +0.000 HD
ENDBRANCH  17  18
ENDBRANCH   8  11
ENDBRANCH   4   7
BRANCH   1  20
ATOM     20  C   UNL     1       4.175   4.214  18.803  0.00  0.00    +0.000 C 
BRANCH  20  21
ATOM     21  C   UNL     1       3.940   3.753  17.354  0.00  0.00    +0.000 C 
BRANCH  21  24
ATOM     22  C   UNL     1       6.973   5.607  15.956  0.00  0.00    +0.000 A 
ATOM     23  C   UNL     1       5.949   5.176  16.809  0.00  0.00    +0.000 A 
ATOM     24  C   UNL     1       5.005   4.222  16.399  0.00  0.00    +0.000 A 
ATOM     25  C   UNL     1       5.083   3.701  15.109  0.00  0.00    +0.000 A 
ATOM     26  C   UNL     1       6.095   4.122  14.246  0.00  0.00    +0.000 A 
ATOM     27  C   UNL     1       7.034   5.070  14.665  0.00  0.00    +0.000 A 
BRANCH  22  29
ATOM     28  C   UNL     1       7.380   7.129  17.754  0.00  0.00    +0.000 C 
ATOM     29  O   UNL     1       7.802   6.524  16.542  0.00  0.00    +0.000 OA
ENDBRANCH  22  29
BRANCH  27  30
ATOM     30  O   UNL     1       8.005   5.448  13.779  0.00  0.00    +0.000 OA
ATOM     31  H   UNL     1       8.470   4.660  13.458  0.00  0.00    +0.000 HD
ENDBRANCH  27  30
ENDBRANCH  21  24
ENDBRANCH  20  21
ENDBRANCH   1  20
TORSDOF 8
ENDMDL
MODEL 4
REMARK VINA RESULT:      -7.9      5.649      8.936
REMARK  Name = 
REMARK  10 active torsions:
REMARK  status: ('A' for Active; 'I' for Inactive)
REMARK    1  A    between atoms: C_1  and  O_2
REMARK    2  A    between atoms: O_2  and  C_3
REMARK    3  A    between atoms: C_5  and  C_6
REMARK    4  A    between atoms: C_6  and  C_7
REMARK    5  A    between atoms: C_7  and  C_8
REMARK    6  A    between atoms: C_11  and  N_12
REMARK    7  A    between atoms: C_13  and  C_15
REMARK    8  A    between atoms: C_18  and  C_19
REMARK    9  A    between atoms: C_21  and  O_22
REMARK   10  A    between atoms: C_27  and  O_28
REMARK                            x       y       z     vdW  Elec       q    Type
REMARK                         _______ _______ _______ _____ _____    ______ ____
ROOT
ATOM      1  C   UNL     1       2.451   8.179  18.265  0.00  0.00    +0.000 A 
ATOM      2  C   UNL     1       2.108   7.897  19.587  0.00  0.00    +0.000 A 
ATOM      3  C   UNL     1       1.086   8.589  20.229  0.00  0.00    +0.000 A 
ATOM      4  C   UNL     1       0.392   9.611  19.588  0.00  0.00    +0.000 A 
ATOM      5  C   UNL     1       0.738   9.920  18.269  0.00  0.00    +0.000 A 
ATOM      6  C   UNL     1       1.762   9.214  17.614  0.00  0.00    +0.000 A 
ENDROOT
BRANCH   4   7
ATOM      7  N   UNL     1      -0.636  10.345  20.219  0.00  0.00    +0.000 N 
ATOM      8  C   UNL     1      -0.460  11.351  21.155  0.00  0.00    +0.000 C 
ATOM      9  O   UNL     1       0.622  11.758  21.573  0.00  0.00    +0.000 OA
ATOM     10  H   UNL     1      -1.594  10.128  19.963  0.00  0.00    +0.000 HD
BRANCH   8  11
ATOM     11  C   UNL     1      -1.682  12.002  21.712  0.00  0.00    +0.000 A 
ATOM     12  C   UNL     1      -1.960  11.738  23.066  0.00  0.00    +0.000 A 
ATOM     13  C   UNL     1      -3.083  12.275  23.691  0.00  0.00    +0.000 A 
ATOM     14  C   UNL     1      -3.953  13.096  22.976  0.00  0.00    +0.000 A 
ATOM     15  C   UNL     1      -5.168  13.668  23.643  0.00  0.00    +0.000 C 
ATOM     16  C   UNL     1      -3.684  13.374  21.627  0.00  0.00    +0.000 A 
ATOM     17  C   UNL     1      -2.557  12.827  20.997  0.00  0.00    +0.000 A 
BRANCH  17  18
ATOM     18  O   UNL     1      -2.335  13.110  19.673  0.00  0.00    +0.000 OA
ATOM     19  H   UNL     1      -2.732  13.976  19.473  0.00  0.00    +0.000 HD
ENDBRANCH  17  18
ENDBRANCH   8  11
ENDBRANCH   4   7
BRANCH   1  20
ATOM     20  C   UNL     1       3.577   7.434  17.579  0.00  0.00    +0.000 C 
BRANCH  20  21
ATOM     21  C   UNL     1       4.378   6.517  18.519  0.00  0.00    +0.000 C 
BRANCH  21  24
ATOM     22  C   UNL     1       3.158   3.130  19.796  0.00  0.00    +0.000 A 
ATOM     23  C   UNL     1       3.652   4.441  19.751  0.00  0.00    +0.000 A 
ATOM     24  C   UNL     1       3.883   5.096  18.532  0.00  0.00    +0.000 A 
ATOM     25  C   UNL     1       3.625   4.422  17.339  0.00  0.00    +0.000 A 
ATOM     26  C   UNL     1       3.137   3.116  17.367  0.00  0.00    +0.000 A 
ATOM     27  C   UNL     1       2.905   2.472  18.587  0.00  0.00    +0.000 A 
BRANCH  22  29
ATOM     28  C   UNL     1       1.715   2.858  21.683  0.00  0.00    +0.000 C 
ATOM     29  O   UNL     1       2.983   2.673  21.073  0.00  0.00    +0.000 OA
ENDBRANCH  22  29
BRANCH  27  30
ATOM     30  O   UNL     1       2.426   1.192  18.558  0.00  0.00    +0.000 OA
ATOM     31  H   UNL     1       2.087   0.956  19.436  0.00  0.00    +0.000 HD
ENDBRANCH  27  30
ENDBRANCH  21  24
ENDBRANCH  20  21
ENDBRANCH   1  20
TORSDOF 8
ENDMDL
MODEL 5
REMARK VINA RESULT:      -7.9      6.293     10.352
REMARK  Name = 
REMARK  10 active torsions:
REMARK  status: ('A' for Active; 'I' for Inactive)
REMARK    1  A    between atoms: C_1  and  O_2
REMARK    2  A    between atoms: O_2  and  C_3
REMARK    3  A    between atoms: C_5  and  C_6
REMARK    4  A    between atoms: C_6  and  C_7
REMARK    5  A    between atoms: C_7  and  C_8
REMARK    6  A    between atoms: C_11  and  N_12
REMARK    7  A    between atoms: C_13  and  C_15
REMARK    8  A    between atoms: C_18  and  C_19
REMARK    9  A    between atoms: C_21  and  O_22
REMARK   10  A    between atoms: C_27  and  O_28
REMARK                            x       y       z     vdW  Elec       q    Type
REMARK                         _______ _______ _______ _____ _____    ______ ____
ROOT
ATOM      1  C   UNL     1      -0.301  10.270  21.999  0.00  0.00    +0.000 A 
ATOM      2  C   UNL     1       0.592   9.313  22.481  0.00  0.00    +0.000 A 
ATOM      3  C   UNL     1       1.390   8.572  21.615  0.00  0.00    +0.000 A 
ATOM      4  C   UNL     1       1.302   8.732  20.236  0.00  0.00    +0.000 A 
ATOM      5  C   UNL     1       0.397   9.673  19.735  0.00  0.00    +0.000 A 
ATOM      6  C   UNL     1      -0.402  10.432  20.608  0.00  0.00    +0.000 A 
ENDROOT
BRANCH   4   7
ATOM      7  N   UNL     1       2.083   7.981  19.330  0.00  0.00    +0.000 N 
ATOM      8  C   UNL     1       2.345   6.624  19.414  0.00  0.00    +0.000 C 
ATOM      9  O   UNL     1       1.929   5.867  20.290  0.00  0.00    +0.000 OA
ATOM     10  H   UNL     1       2.487   8.471  18.538  0.00  0.00    +0.000 HD
BRANCH   8  11
ATOM     11  C   UNL     1       3.205   6.016  18.356  0.00  0.00    +0.000 A 
ATOM     12  C   UNL     1       4.028   6.906  17.643  0.00  0.00    +0.000 A 
ATOM     13  C   UNL     1       4.861   6.458  16.620  0.00  0.00    +0.000 A 
ATOM     14  C   UNL     1       4.893   5.104  16.290  0.00  0.00    +0.000 A 
ATOM     15  C   UNL     1       5.780   4.621  15.183  0.00  0.00    +0.000 C 
ATOM     16  C   UNL     1       4.083   4.205  16.999  0.00  0.00    +0.000 A 
ATOM     17  C   UNL     1       3.240   4.658  18.024  0.00  0.00    +0.000 A 
BRANCH  17  18
ATOM     18  O   UNL     1       2.452   3.750  18.685  0.00  0.00    +0.000 OA
ATOM     19  H   UNL     1       2.344   4.049  19.605  0.00  0.00    +0.000 HD
ENDBRANCH  17  18
ENDBRANCH   8  11
ENDBRANCH   4   7
BRANCH   1  20
ATOM     20  C   UNL     1      -1.179  11.060  22.946  0.00  0.00    +0.000 C 
BRANCH  20  21
ATOM     21  C   UNL     1      -1.926  12.225  22.273  0.00  0.00    +0.000 C 
BRANCH  21  24
ATOM     22  C   UNL     1      -5.648  13.040  22.537  0.00  0.00    +0.000 A 
ATOM     23  C   UNL     1      -4.360  12.832  22.026  0.00  0.00    +0.000 A 
ATOM     24  C   UNL     1      -3.289  12.478  22.860  0.00  0.00    +0.000 A 
ATOM     25  C   UNL     1      -3.510  12.343  24.229  0.00  0.00    +0.000 A 
ATOM     26  C   UNL     1      -4.785  12.551  24.754  0.00  0.00    +0.000 A 
ATOM     27  C   UNL     1      -5.849  12.898  23.914  0.00  0.00    +0.000 A 
BRANCH  22  29
ATOM     28  C   UNL     1      -7.332  12.310  21.005  0.00  0.00    +0.000 C 
ATOM     29  O   UNL     1      -6.559  13.358  21.567  0.00  0.00    +0.000 OA
ENDBRANCH  22  29
BRANCH  27  30
ATOM     30  O   UNL     1      -7.078  13.091  24.481  0.00  0.00    +0.000 OA
ATOM     31  H   UNL     1      -6.986  13.661  25.260  0.00  0.00    +0.000 HD
ENDBRANCH  27  30
ENDBRANCH  21  24
ENDBRANCH  20  21
ENDBRANCH   1  20
TORSDOF 8
ENDMDL
MODEL 6
REMARK VINA RESULT:      -7.9      4.768      7.700
REMARK  Name = 
REMARK  10 active torsions:
REMARK  status: ('A' for Active; 'I' for Inactive)
REMARK    1  A    between atoms: C_1  and  O_2
REMARK    2  A    between atoms: O_2  and  C_3
REMARK    3  A    between atoms: C_5  and  C_6
REMARK    4  A    between atoms: C_6  and  C_7
REMARK    5  A    between atoms: C_7  and  C_8
REMARK    6  A    between atoms: C_11  and  N_12
REMARK    7  A    between atoms: C_13  and  C_15
REMARK    8  A    between atoms: C_18  and  C_19
REMARK    9  A    between atoms: C_21  and  O_22
REMARK   10  A    between atoms: C_27  and  O_28
REMARK                            x       y       z     vdW  Elec       q    Type
REMARK                         _______ _______ _______ _____ _____    ______ ____
ROOT
ATOM      1  C   UNL     1       2.369   5.739  19.138  0.00  0.00    +0.000 A 
ATOM      2  C   UNL     1       2.014   6.375  20.328  0.00  0.00    +0.000 A 
ATOM      3  C   UNL     1       1.710   7.732  20.356  0.00  0.00    +0.000 A 
ATOM      4  C   UNL     1       1.782   8.513  19.207  0.00  0.00    +0.000 A 
ATOM      5  C   UNL     1       2.157   7.896  18.010  0.00  0.00    +0.000 A 
ATOM      6  C   UNL     1       2.453   6.522  17.975  0.00  0.00    +0.000 A 
ENDROOT
BRANCH   4   7
ATOM      7  N   UNL     1       1.499   9.897  19.208  0.00  0.00    +0.000 N 
ATOM      8  C   UNL     1       0.238  10.469  19.217  0.00  0.00    +0.000 C 
ATOM      9  O   UNL     1      -0.827   9.853  19.232  0.00  0.00    +0.000 OA
ATOM     10  H   UNL     1       2.286  10.537  19.210  0.00  0.00    +0.000 HD
BRANCH   8  11
ATOM     11  C   UNL     1       0.152  11.958  19.207  0.00  0.00    +0.000 A 
ATOM     12  C   UNL     1      -0.938  12.519  19.899  0.00  0.00    +0.000 A 
ATOM     13  C   UNL     1      -1.134  13.897  19.944  0.00  0.00    +0.000 A 
ATOM     14  C   UNL     1      -0.238  14.750  19.301  0.00  0.00    +0.000 A 
ATOM     15  C   UNL     1      -0.452  16.233  19.339  0.00  0.00    +0.000 C 
ATOM     16  C   UNL     1       0.858  14.205  18.615  0.00  0.00    +0.000 A 
ATOM     17  C   UNL     1       1.050  12.817  18.565  0.00  0.00    +0.000 A 
BRANCH  17  18
ATOM     18  O   UNL     1       2.125  12.321  17.872  0.00  0.00    +0.000 OA
ATOM     19  H   UNL     1       2.934  12.521  18.375  0.00  0.00    +0.000 HD
ENDBRANCH  17  18
ENDBRANCH   8  11
ENDBRANCH   4   7
BRANCH   1  20
ATOM     20  C   UNL     1       2.717   4.265  19.118  0.00  0.00    +0.000 C 
BRANCH  20  21
ATOM     21  C   UNL     1       4.206   3.977  19.374  0.00  0.00    +0.000 C 
BRANCH  21  24
ATOM     22  C   UNL     1       6.978   5.867  17.549  0.00  0.00    +0.000 A 
ATOM     23  C   UNL     1       6.101   5.418  18.545  0.00  0.00    +0.000 A 
ATOM     24  C   UNL     1       5.107   4.466  18.272  0.00  0.00    +0.000 A 
ATOM     25  C   UNL     1       4.983   3.966  16.977  0.00  0.00    +0.000 A 
ATOM     26  C   UNL     1       5.846   4.406  15.974  0.00  0.00    +0.000 A 
ATOM     27  C   UNL     1       6.837   5.352  16.256  0.00  0.00    +0.000 A 
BRANCH  22  29
ATOM     28  C   UNL     1       7.725   8.137  17.633  0.00  0.00    +0.000 C 
ATOM     29  O   UNL     1       7.886   6.779  18.013  0.00  0.00    +0.000 OA
ENDBRANCH  22  29
BRANCH  27  30
ATOM     30  O   UNL     1       7.656   5.749  15.235  0.00  0.00    +0.000 OA
ATOM     31  H   UNL     1       8.419   6.223  15.603  0.00  0.00    +0.000 HD
ENDBRANCH  27  30
ENDBRANCH  21  24
ENDBRANCH  20  21
ENDBRANCH   1  20
TORSDOF 8
ENDMDL
MODEL 7
REMARK VINA RESULT:      -7.9      4.958      7.502
REMARK  Name = 
REMARK  10 active torsions:
REMARK  status: ('A' for Active; 'I' for Inactive)
REMARK    1  A    between atoms: C_1  and  O_2
REMARK    2  A    between atoms: O_2  and  C_3
REMARK    3  A    between atoms: C_5  and  C_6
REMARK    4  A    between atoms: C_6  and  C_7
REMARK    5  A    between atoms: C_7  and  C_8
REMARK    6  A    between atoms: C_11  and  N_12
REMARK    7  A    between atoms: C_13  and  C_15
REMARK    8  A    between atoms: C_18  and  C_19
REMARK    9  A    between atoms: C_21  and  O_22
REMARK   10  A    between atoms: C_27  and  O_28
REMARK                            x       y       z     vdW  Elec       q    Type
REMARK                         _______ _______ _______ _____ _____    ______ ____
ROOT
ATOM      1  C   UNL     1       2.399   5.754  18.955  0.00  0.00    +0.000 A 
ATOM      2  C   UNL     1       2.030   6.382  20.145  0.00  0.00    +0.000 A 
ATOM      3  C   UNL     1       1.790   7.751  20.193  0.00  0.00    +0.000 A 
ATOM      4  C   UNL     1       1.944   8.551  19.065  0.00  0.00    +0.000 A 
ATOM      5  C   UNL     1       2.334   7.942  17.869  0.00  0.00    +0.000 A 
ATOM      6  C   UNL     1       2.565   6.556  17.815  0.00  0.00    +0.000 A 
ENDROOT
BRANCH   4   7
ATOM      7  N   UNL     1       1.728   9.947  19.087  0.00  0.00    +0.000 N 
ATOM      8  C   UNL     1       0.637  10.609  18.551  0.00  0.00    +0.000 C 
ATOM      9  O   UNL     1      -0.313  10.077  17.979  0.00  0.00    +0.000 OA
ATOM     10  H   UNL     1       2.429  10.524  19.542  0.00  0.00    +0.000 HD
BRANCH   8  11
ATOM     11  C   UNL     1       0.601  12.097  18.670  0.00  0.00    +0.000 A 
ATOM     12  C   UNL     1       1.834  12.727  18.920  0.00  0.00    +0.000 A 
ATOM     13  C   UNL     1       1.922  14.108  19.070  0.00  0.00    +0.000 A 
ATOM     14  C   UNL     1       0.776  14.895  18.966  0.00  0.00    +0.000 A 
ATOM     15  C   UNL     1       0.866  16.382  19.136  0.00  0.00    +0.000 C 
ATOM     16  C   UNL     1      -0.459  14.281  18.708  0.00  0.00    +0.000 A 
ATOM     17  C   UNL     1      -0.547  12.889  18.565  0.00  0.00    +0.000 A 
BRANCH  17  18
ATOM     18  O   UNL     1      -1.774  12.323  18.329  0.00  0.00    +0.000 OA
ATOM     19  H   UNL     1      -1.988  11.730  19.070  0.00  0.00    +0.000 HD
ENDBRANCH  17  18
ENDBRANCH   8  11
ENDBRANCH   4   7
BRANCH   1  20
ATOM     20  C   UNL     1       2.676   4.266  18.914  0.00  0.00    +0.000 C 
BRANCH  20  21
ATOM     21  C   UNL     1       4.153   3.904  19.142  0.00  0.00    +0.000 C 
BRANCH  21  24
ATOM     22  C   UNL     1       6.969   5.608  17.205  0.00  0.00    +0.000 A 
ATOM     23  C   UNL     1       6.095   5.229  18.232  0.00  0.00    +0.000 A 
ATOM     24  C   UNL     1       5.051   4.319  18.007  0.00  0.00    +0.000 A 
ATOM     25  C   UNL     1       4.873   3.790  16.730  0.00  0.00    +0.000 A 
ATOM     26  C   UNL     1       5.733   4.161  15.696  0.00  0.00    +0.000 A 
ATOM     27  C   UNL     1       6.774   5.065  15.930  0.00  0.00    +0.000 A 
BRANCH  22  29
ATOM     28  C   UNL     1       7.646   7.876  17.546  0.00  0.00    +0.000 C 
ATOM     29  O   UNL     1       7.930   6.488  17.623  0.00  0.00    +0.000 OA
ENDBRANCH  22  29
BRANCH  27  30
ATOM     30  O   UNL     1       7.587   5.395  14.881  0.00  0.00    +0.000 OA
ATOM     31  H   UNL     1       8.446   4.957  14.991  0.00  0.00    +0.000 HD
ENDBRANCH  27  30
ENDBRANCH  21  24
ENDBRANCH  20  21
ENDBRANCH   1  20
TORSDOF 8
ENDMDL
MODEL 8
REMARK VINA RESULT:      -7.9      4.382      8.187
REMARK  Name = 
REMARK  10 active torsions:
REMARK  status: ('A' for Active; 'I' for Inactive)
REMARK    1  A    between atoms: C_1  and  O_2
REMARK    2  A    between atoms: O_2  and  C_3
REMARK    3  A    between atoms: C_5  and  C_6
REMARK    4  A    between atoms: C_6  and  C_7
REMARK    5  A    between atoms: C_7  and  C_8
REMARK    6  A    between atoms: C_11  and  N_12
REMARK    7  A    between atoms: C_13  and  C_15
REMARK    8  A    between atoms: C_18  and  C_19
REMARK    9  A    between atoms: C_21  and  O_22
REMARK   10  A    between atoms: C_27  and  O_28
REMARK                            x       y       z     vdW  Elec       q    Type
REMARK                         _______ _______ _______ _____ _____    ______ ____
ROOT
ATOM      1  C   UNL     1       2.716   5.442  19.388  0.00  0.00    +0.000 A 
ATOM      2  C   UNL     1       1.941   5.529  20.545  0.00  0.00    +0.000 A 
ATOM      3  C   UNL     1       1.302   6.713  20.895  0.00  0.00    +0.000 A 
ATOM      4  C   UNL     1       1.440   7.864  20.126  0.00  0.00    +0.000 A 
ATOM      5  C   UNL     1       2.231   7.800  18.975  0.00  0.00    +0.000 A 
ATOM      6  C   UNL     1       2.869   6.601  18.611  0.00  0.00    +0.000 A 
ENDROOT
BRANCH   4   7
ATOM      7  N   UNL     1       0.821   9.087  20.467  0.00  0.00    +0.000 N 
ATOM      8  C   UNL     1       0.945   9.753  21.674  0.00  0.00    +0.000 C 
ATOM      9  O   UNL     1       1.621   9.378  22.632  0.00  0.00    +0.000 OA
ATOM     10  H   UNL     1       0.236   9.529  19.764  0.00  0.00    +0.000 HD
BRANCH   8  11
ATOM     11  C   UNL     1       0.199  11.034  21.840  0.00  0.00    +0.000 A 
ATOM     12  C   UNL     1      -0.836  11.028  22.794  0.00  0.00    +0.000 A 
ATOM     13  C   UNL     1      -1.614  12.159  23.023  0.00  0.00    +0.000 A 
ATOM     14  C   UNL     1      -1.370  13.330  22.308  0.00  0.00    +0.000 A 
ATOM     15  C   UNL     1      -2.212  14.547  22.546  0.00  0.00    +0.000 C 
ATOM     16  C   UNL     1      -0.336  13.354  21.360  0.00  0.00    +0.000 A 
ATOM     17  C   UNL     1       0.442  12.211  21.125  0.00  0.00    +0.000 A 
BRANCH  17  18
ATOM     18  O   UNL     1       1.435  12.268  20.180  0.00  0.00    +0.000 OA
ATOM     19  H   UNL     1       2.258  12.553  20.615  0.00  0.00    +0.000 HD
ENDBRANCH  17  18
ENDBRANCH   8  11
ENDBRANCH   4   7
BRANCH   1  20
ATOM     20  C   UNL     1       3.424   4.154  19.022  0.00  0.00    +0.000 C 
BRANCH  20  21
ATOM     21  C   UNL     1       4.957   4.237  19.127  0.00  0.00    +0.000 C 
BRANCH  21  24
ATOM     22  C   UNL     1       7.089   6.002  16.495  0.00  0.00    +0.000 A 
ATOM     23  C   UNL     1       6.423   5.701  17.690  0.00  0.00    +0.000 A 
ATOM     24  C   UNL     1       5.628   4.551  17.817  0.00  0.00    +0.000 A 
ATOM     25  C   UNL     1       5.490   3.696  16.725  0.00  0.00    +0.000 A 
ATOM     26  C   UNL     1       6.144   3.984  15.527  0.00  0.00    +0.000 A 
ATOM     27  C   UNL     1       6.938   5.130  15.410  0.00  0.00    +0.000 A 
BRANCH  22  29
ATOM     28  C   UNL     1       7.811   7.874  17.794  0.00  0.00    +0.000 C 
ATOM     29  O   UNL     1       7.826   7.151  16.573  0.00  0.00    +0.000 OA
ENDBRANCH  22  29
BRANCH  27  30
ATOM     30  O   UNL     1       7.557   5.365  14.214  0.00  0.00    +0.000 OA
ATOM     31  H   UNL     1       8.312   4.762  14.119  0.00  0.00    +0.000 HD
ENDBRANCH  27  30
ENDBRANCH  21  24
ENDBRANCH  20  21
ENDBRANCH   1  20
TORSDOF 8
ENDMDL
MODEL 9
REMARK VINA RESULT:      -7.9      5.478      8.277
REMARK  Name = 
REMARK  10 active torsions:
REMARK  status: ('A' for Active; 'I' for Inactive)
REMARK    1  A    between atoms: C_1  and  O_2
REMARK    2  A    between atoms: O_2  and  C_3
REMARK    3  A    between atoms: C_5  and  C_6
REMARK    4  A    between atoms: C_6  and  C_7
REMARK    5  A    between atoms: C_7  and  C_8
REMARK    6  A    between atoms: C_11  and  N_12
REMARK    7  A    between atoms: C_13  and  C_15
REMARK    8  A    between atoms: C_18  and  C_19
REMARK    9  A    between atoms: C_21  and  O_22
REMARK   10  A    between atoms: C_27  and  O_28
REMARK                            x       y       z     vdW  Elec       q    Type
REMARK                         _______ _______ _______ _____ _____    ______ ____
ROOT
ATOM      1  C   UNL     1       3.172   7.705  17.948  0.00  0.00    +0.000 A 
ATOM      2  C   UNL     1       2.591   8.834  17.370  0.00  0.00    +0.000 A 
ATOM      3  C   UNL     1       1.604   9.556  18.034  0.00  0.00    +0.000 A 
ATOM      4  C   UNL     1       1.134   9.159  19.281  0.00  0.00    +0.000 A 
ATOM      5  C   UNL     1       1.690   8.017  19.866  0.00  0.00    +0.000 A 
ATOM      6  C   UNL     1       2.697   7.292  19.203  0.00  0.00    +0.000 A 
ENDROOT
BRANCH   4   7
ATOM      7  N   UNL     1       0.119   9.858  19.971  0.00  0.00    +0.000 N 
ATOM      8  C   UNL     1       0.307  10.730  21.029  0.00  0.00    +0.000 C 
ATOM      9  O   UNL     1       1.392  11.031  21.525  0.00  0.00    +0.000 OA
ATOM     10  H   UNL     1      -0.839   9.720  19.663  0.00  0.00    +0.000 HD
BRANCH   8  11
ATOM     11  C   UNL     1      -0.903  11.365  21.629  0.00  0.00    +0.000 A 
ATOM     12  C   UNL     1      -1.591  12.280  20.811  0.00  0.00    +0.000 A 
ATOM     13  C   UNL     1      -2.724  12.949  21.269  0.00  0.00    +0.000 A 
ATOM     14  C   UNL     1      -3.200  12.712  22.557  0.00  0.00    +0.000 A 
ATOM     15  C   UNL     1      -4.413  13.438  23.056  0.00  0.00    +0.000 C 
ATOM     16  C   UNL     1      -2.529  11.796  23.380  0.00  0.00    +0.000 A 
ATOM     17  C   UNL     1      -1.385  11.129  22.921  0.00  0.00    +0.000 A 
BRANCH  17  18
ATOM     18  O   UNL     1      -0.748  10.251  23.761  0.00  0.00    +0.000 OA
ATOM     19  H   UNL     1      -1.120   9.362  23.617  0.00  0.00    +0.000 HD
ENDBRANCH  17  18
ENDBRANCH   8  11
ENDBRANCH   4   7
BRANCH   1  20
ATOM     20  C   UNL     1       4.233   6.914  17.212  0.00  0.00    +0.000 C 
BRANCH  20  21
ATOM     21  C   UNL     1       4.897   5.822  18.069  0.00  0.00    +0.000 C 
BRANCH  21  24
ATOM     22  C   UNL     1       3.045   2.938  19.756  0.00  0.00    +0.000 A 
ATOM     23  C   UNL     1       3.873   4.048  19.538  0.00  0.00    +0.000 A 
ATOM     24  C   UNL     1       4.030   4.606  18.260  0.00  0.00    +0.000 A 
ATOM     25  C   UNL     1       3.356   4.036  17.182  0.00  0.00    +0.000 A 
ATOM     26  C   UNL     1       2.531   2.929  17.381  0.00  0.00    +0.000 A 
ATOM     27  C   UNL     1       2.377   2.381  18.660  0.00  0.00    +0.000 A 
BRANCH  22  29
ATOM     28  C   UNL     1       2.106   3.221  21.936  0.00  0.00    +0.000 C 
ATOM     29  O   UNL     1       3.008   2.553  21.067  0.00  0.00    +0.000 OA
ENDBRANCH  22  29
BRANCH  27  30
ATOM     30  O   UNL     1       1.557   1.296  18.799  0.00  0.00    +0.000 OA
ATOM     31  H   UNL     1       1.337   0.945  17.921  0.00  0.00    +0.000 HD
ENDBRANCH  27  30
ENDBRANCH  21  24
ENDBRANCH  20  21
ENDBRANCH   1  20
TORSDOF 8
ENDMDL
