MODEL 1
REMARK VINA RESULT:      -8.1      0.000      0.000
REMARK  Name = 
REMARK  3 active torsions:
REMARK  status: ('A' for Active; 'I' for Inactive)
REMARK    1  A    between atoms: C_2  and  C_3
REMARK    2  A    between atoms: C_3  and  O_4
REMARK    3  A    between atoms: O_4  and  C_5
REMARK                            x       y       z     vdW  Elec       q    Type
REMARK                         _______ _______ _______ _____ _____    ______ ____
ROOT
ATOM      1  O   UNL     1       6.140   7.338  17.224  0.00  0.00    +0.000 OA
ATOM      2  C   UNL     1       6.115   6.111  17.372  0.00  0.00    +0.000 C 
ATOM      3  N   UNL     1       5.099   5.497  18.094  0.00  0.00    +0.000 N 
ATOM      4  C   UNL     1       4.023   6.363  18.590  0.00  0.00    +0.000 C 
ATOM      5  C   UNL     1       3.085   5.722  19.613  0.00  0.00    +0.000 C 
ATOM      6  C   UNL     1       2.645   4.369  19.125  0.00  0.00    +0.000 A 
ATOM      7  C   UNL     1       1.337   3.907  19.300  0.00  0.00    +0.000 A 
ATOM      8  C   UNL     1       0.983   2.639  18.844  0.00  0.00    +0.000 A 
ATOM      9  C   UNL     1       1.934   1.826  18.226  0.00  0.00    +0.000 A 
ATOM     10  C   UNL     1       3.245   2.279  18.063  0.00  0.00    +0.000 A 
ATOM     11  C   UNL     1       3.609   3.555  18.506  0.00  0.00    +0.000 A 
ATOM     12  C   UNL     1       5.029   4.061  18.391  0.00  0.00    +0.000 C 
ENDROOT
BRANCH   2  13
ATOM     13  C   UNL     1       7.184   5.256  16.687  0.00  0.00    +0.000 C 
BRANCH  13  14
ATOM     14  O   UNL     1       7.427   5.664  15.349  0.00  0.00    +0.000 OA
BRANCH  14  15
ATOM     15  C   UNL     1       6.825   4.907  14.376  0.00  0.00    +0.000 A 
ATOM     16  C   UNL     1       5.580   4.276  14.484  0.00  0.00    +0.000 A 
ATOM     17  C   UNL     1       5.093   3.493  13.431  0.00  0.00    +0.000 A 
ATOM     18  C   UNL     1       5.846   3.349  12.277  0.00  0.00    +0.000 A 
ATOM     19  F   UNL     1       5.390   2.579  11.281  0.00  0.00    +0.000 F 
ATOM     20  C   UNL     1       7.069   3.996  12.139  0.00  0.00    +0.000 A 
ATOM     21  C   UNL     1       7.553   4.782  13.188  0.00  0.00    +0.000 A 
ENDBRANCH  14  15
ENDBRANCH  13  14
ENDBRANCH   2  13
TORSDOF 3
ENDMDL
MODEL 2
REMARK VINA RESULT:      -7.9      1.188      1.594
REMARK  Name = 
REMARK  3 active torsions:
REMARK  status: ('A' for Active; 'I' for Inactive)
REMARK    1  A    between atoms: C_2  and  C_3
REMARK    2  A    between atoms: C_3  and  O_4
REMARK    3  A    between atoms: O_4  and  C_5
REMARK                            x       y       z     vdW  Elec       q    Type
REMARK                         _______ _______ _______ _____ _____    ______ ____
ROOT
ATOM      1  O   UNL     1       5.163   7.157  16.034  0.00  0.00    +0.000 OA
ATOM      2  C   UNL     1       5.432   6.286  16.870  0.00  0.00    +0.000 C 
ATOM      3  N   UNL     1       4.594   6.050  17.953  0.00  0.00    +0.000 N 
ATOM      4  C   UNL     1       3.344   6.817  18.002  0.00  0.00    +0.000 C 
ATOM      5  C   UNL     1       2.589   6.754  19.330  0.00  0.00    +0.000 C 
ATOM      6  C   UNL     1       2.483   5.327  19.791  0.00  0.00    +0.000 A 
ATOM      7  C   UNL     1       1.324   4.825  20.390  0.00  0.00    +0.000 A 
ATOM      8  C   UNL     1       1.281   3.498  20.814  0.00  0.00    +0.000 A 
ATOM      9  C   UNL     1       2.397   2.676  20.655  0.00  0.00    +0.000 A 
ATOM     10  C   UNL     1       3.562   3.178  20.070  0.00  0.00    +0.000 A 
ATOM     11  C   UNL     1       3.612   4.505  19.629  0.00  0.00    +0.000 A 
ATOM     12  C   UNL     1       4.870   5.099  19.036  0.00  0.00    +0.000 C 
ENDROOT
BRANCH   2  13
ATOM     13  C   UNL     1       6.672   5.413  16.665  0.00  0.00    +0.000 C 
BRANCH  13  14
ATOM     14  O   UNL     1       7.354   5.719  15.457  0.00  0.00    +0.000 OA
BRANCH  14  15
ATOM     15  C   UNL     1       7.010   4.958  14.368  0.00  0.00    +0.000 A 
ATOM     16  C   UNL     1       7.622   5.009  13.110  0.00  0.00    +0.000 A 
ATOM     17  C   UNL     1       7.148   4.208  12.064  0.00  0.00    +0.000 A 
ATOM     18  C   UNL     1       6.074   3.361  12.281  0.00  0.00    +0.000 A 
ATOM     19  F   UNL     1       5.606   2.614  11.271  0.00  0.00    +0.000 F 
ATOM     20  C   UNL     1       5.477   3.272  13.533  0.00  0.00    +0.000 A 
ATOM     21  C   UNL     1       5.953   4.067  14.579  0.00  0.00    +0.000 A 
ENDBRANCH  14  15
ENDBRANCH  13  14
ENDBRANCH   2  13
TORSDOF 3
ENDMDL
MODEL 3
REMARK VINA RESULT:      -7.9      1.188      1.208
REMARK  Name = 
REMARK  3 active torsions:
REMARK  status: ('A' for Active; 'I' for Inactive)
REMARK    1  A    between atoms: C_2  and  C_3
REMARK    2  A    between atoms: C_3  and  O_4
REMARK    3  A    between atoms: O_4  and  C_5
REMARK                            x       y       z     vdW  Elec       q    Type
REMARK                         _______ _______ _______ _____ _____    ______ ____
ROOT
ATOM      1  O   UNL     1       5.191   7.179  16.124  0.00  0.00    +0.000 OA
ATOM      2  C   UNL     1       5.448   6.307  16.962  0.00  0.00    +0.000 C 
ATOM      3  N   UNL     1       4.588   6.061  18.026  0.00  0.00    +0.000 N 
ATOM      4  C   UNL     1       3.333   6.820  18.051  0.00  0.00    +0.000 C 
ATOM      5  C   UNL     1       2.550   6.748  19.362  0.00  0.00    +0.000 C 
ATOM      6  C   UNL     1       2.443   5.318  19.816  0.00  0.00    +0.000 A 
ATOM      7  C   UNL     1       1.275   4.808  20.388  0.00  0.00    +0.000 A 
ATOM      8  C   UNL     1       1.231   3.479  20.806  0.00  0.00    +0.000 A 
ATOM      9  C   UNL     1       2.355   2.664  20.668  0.00  0.00    +0.000 A 
ATOM     10  C   UNL     1       3.529   3.176  20.111  0.00  0.00    +0.000 A 
ATOM     11  C   UNL     1       3.580   4.504  19.675  0.00  0.00    +0.000 A 
ATOM     12  C   UNL     1       4.847   5.108  19.111  0.00  0.00    +0.000 C 
ENDROOT
BRANCH   2  13
ATOM     13  C   UNL     1       6.697   5.443  16.780  0.00  0.00    +0.000 C 
BRANCH  13  14
ATOM     14  O   UNL     1       7.328   5.662  15.527  0.00  0.00    +0.000 OA
BRANCH  14  15
ATOM     15  C   UNL     1       6.865   4.901  14.484  0.00  0.00    +0.000 A 
ATOM     16  C   UNL     1       5.744   4.062  14.519  0.00  0.00    +0.000 A 
ATOM     17  C   UNL     1       5.398   3.302  13.395  0.00  0.00    +0.000 A 
ATOM     18  C   UNL     1       6.167   3.387  12.246  0.00  0.00    +0.000 A 
ATOM     19  F   UNL     1       5.848   2.640  11.181  0.00  0.00    +0.000 F 
ATOM     20  C   UNL     1       7.262   4.241  12.181  0.00  0.00    +0.000 A 
ATOM     21  C   UNL     1       7.604   5.004  13.301  0.00  0.00    +0.000 A 
ENDBRANCH  14  15
ENDBRANCH  13  14
ENDBRANCH   2  13
TORSDOF 3
ENDMDL
MODEL 4
REMARK VINA RESULT:      -7.6      3.470      5.018
REMARK  Name = 
REMARK  3 active torsions:
REMARK  status: ('A' for Active; 'I' for Inactive)
REMARK    1  A    between atoms: C_2  and  C_3
REMARK    2  A    between atoms: C_3  and  O_4
REMARK    3  A    between atoms: O_4  and  C_5
REMARK                            x       y       z     vdW  Elec       q    Type
REMARK                         _______ _______ _______ _____ _____    ______ ____
ROOT
ATOM      1  O   UNL     1       4.833   2.959  19.202  0.00  0.00    +0.000 OA
ATOM      2  C   UNL     1       4.286   3.737  18.411  0.00  0.00    +0.000 C 
ATOM      3  N   UNL     1       3.331   4.647  18.847  0.00  0.00    +0.000 N 
ATOM      4  C   UNL     1       3.074   4.697  20.291  0.00  0.00    +0.000 C 
ATOM      5  C   UNL     1       1.833   5.485  20.709  0.00  0.00    +0.000 C 
ATOM      6  C   UNL     1       1.812   6.816  20.009  0.00  0.00    +0.000 A 
ATOM      7  C   UNL     1       1.402   7.986  20.653  0.00  0.00    +0.000 A 
ATOM      8  C   UNL     1       1.386   9.193  19.956  0.00  0.00    +0.000 A 
ATOM      9  C   UNL     1       1.766   9.230  18.614  0.00  0.00    +0.000 A 
ATOM     10  C   UNL     1       2.163   8.060  17.963  0.00  0.00    +0.000 A 
ATOM     11  C   UNL     1       2.194   6.846  18.657  0.00  0.00    +0.000 A 
ATOM     12  C   UNL     1       2.572   5.550  17.974  0.00  0.00    +0.000 C 
ENDROOT
BRANCH   2  13
ATOM     13  C   UNL     1       4.724   3.739  16.945  0.00  0.00    +0.000 C 
BRANCH  13  14
ATOM     14  O   UNL     1       6.129   3.885  16.800  0.00  0.00    +0.000 OA
BRANCH  14  15
ATOM     15  C   UNL     1       6.652   5.077  17.235  0.00  0.00    +0.000 A 
ATOM     16  C   UNL     1       6.369   6.339  16.698  0.00  0.00    +0.000 A 
ATOM     17  C   UNL     1       7.004   7.478  17.205  0.00  0.00    +0.000 A 
ATOM     18  C   UNL     1       7.911   7.354  18.244  0.00  0.00    +0.000 A 
ATOM     19  F   UNL     1       8.536   8.443  18.710  0.00  0.00    +0.000 F 
ATOM     20  C   UNL     1       8.179   6.114  18.812  0.00  0.00    +0.000 A 
ATOM     21  C   UNL     1       7.541   4.976  18.311  0.00  0.00    +0.000 A 
ENDBRANCH  14  15
ENDBRANCH  13  14
ENDBRANCH   2  13
TORSDOF 3
ENDMDL
MODEL 5
REMARK VINA RESULT:      -7.5      3.454      5.012
REMARK  Name = 
REMARK  3 active torsions:
REMARK  status: ('A' for Active; 'I' for Inactive)
REMARK    1  A    between atoms: C_2  and  C_3
REMARK    2  A    between atoms: C_3  and  O_4
REMARK    3  A    between atoms: O_4  and  C_5
REMARK                            x       y       z     vdW  Elec       q    Type
REMARK                         _______ _______ _______ _____ _____    ______ ____
ROOT
ATOM      1  O   UNL     1       4.903   3.038  19.330  0.00  0.00    +0.000 OA
ATOM      2  C   UNL     1       4.394   3.812  18.511  0.00  0.00    +0.000 C 
ATOM      3  N   UNL     1       3.406   4.711  18.893  0.00  0.00    +0.000 N 
ATOM      4  C   UNL     1       3.067   4.754  20.321  0.00  0.00    +0.000 C 
ATOM      5  C   UNL     1       1.795   5.527  20.669  0.00  0.00    +0.000 C 
ATOM      6  C   UNL     1       1.800   6.860  19.972  0.00  0.00    +0.000 A 
ATOM      7  C   UNL     1       1.341   8.024  20.594  0.00  0.00    +0.000 A 
ATOM      8  C   UNL     1       1.353   9.233  19.900  0.00  0.00    +0.000 A 
ATOM      9  C   UNL     1       1.808   9.278  18.582  0.00  0.00    +0.000 A 
ATOM     10  C   UNL     1       2.254   8.114  17.952  0.00  0.00    +0.000 A 
ATOM     11  C   UNL     1       2.258   6.898  18.644  0.00  0.00    +0.000 A 
ATOM     12  C   UNL     1       2.688   5.608  17.981  0.00  0.00    +0.000 C 
ENDROOT
BRANCH   2  13
ATOM     13  C   UNL     1       4.914   3.823  17.072  0.00  0.00    +0.000 C 
BRANCH  13  14
ATOM     14  O   UNL     1       6.331   3.893  17.010  0.00  0.00    +0.000 OA
BRANCH  14  15
ATOM     15  C   UNL     1       6.887   5.082  17.410  0.00  0.00    +0.000 A 
ATOM     16  C   UNL     1       7.716   5.264  18.524  0.00  0.00    +0.000 A 
ATOM     17  C   UNL     1       8.187   6.541  18.851  0.00  0.00    +0.000 A 
ATOM     18  C   UNL     1       7.834   7.625  18.064  0.00  0.00    +0.000 A 
ATOM     19  F   UNL     1       8.265   8.849  18.393  0.00  0.00    +0.000 F 
ATOM     20  C   UNL     1       7.041   7.458  16.934  0.00  0.00    +0.000 A 
ATOM     21  C   UNL     1       6.575   6.183  16.604  0.00  0.00    +0.000 A 
ENDBRANCH  14  15
ENDBRANCH  13  14
ENDBRANCH   2  13
TORSDOF 3
ENDMDL
MODEL 6
REMARK VINA RESULT:      -7.3      3.119      6.813
REMARK  Name = 
REMARK  3 active torsions:
REMARK  status: ('A' for Active; 'I' for Inactive)
REMARK    1  A    between atoms: C_2  and  C_3
REMARK    2  A    between atoms: C_3  and  O_4
REMARK    3  A    between atoms: O_4  and  C_5
REMARK                            x       y       z     vdW  Elec       q    Type
REMARK                         _______ _______ _______ _____ _____    ______ ____
ROOT
ATOM      1  O   UNL     1       5.764   3.945  19.173  0.00  0.00    +0.000 OA
ATOM      2  C   UNL     1       5.081   3.854  18.146  0.00  0.00    +0.000 C 
ATOM      3  N   UNL     1       5.539   4.356  16.934  0.00  0.00    +0.000 N 
ATOM      4  C   UNL     1       6.897   4.913  16.920  0.00  0.00    +0.000 C 
ATOM      5  C   UNL     1       7.264   5.711  15.668  0.00  0.00    +0.000 C 
ATOM      6  C   UNL     1       6.875   4.939  14.437  0.00  0.00    +0.000 A 
ATOM      7  C   UNL     1       7.680   4.910  13.296  0.00  0.00    +0.000 A 
ATOM      8  C   UNL     1       7.268   4.192  12.174  0.00  0.00    +0.000 A 
ATOM      9  C   UNL     1       6.048   3.516  12.187  0.00  0.00    +0.000 A 
ATOM     10  C   UNL     1       5.233   3.555  13.321  0.00  0.00    +0.000 A 
ATOM     11  C   UNL     1       5.643   4.262  14.456  0.00  0.00    +0.000 A 
ATOM     12  C   UNL     1       4.769   4.368  15.685  0.00  0.00    +0.000 C 
ENDROOT
BRANCH   2  13
ATOM     13  C   UNL     1       3.743   3.115  18.204  0.00  0.00    +0.000 C 
BRANCH  13  14
ATOM     14  O   UNL     1       2.658   3.926  17.778  0.00  0.00    +0.000 OA
BRANCH  14  15
ATOM     15  C   UNL     1       2.408   5.038  18.541  0.00  0.00    +0.000 A 
ATOM     16  C   UNL     1       2.597   6.366  18.139  0.00  0.00    +0.000 A 
ATOM     17  C   UNL     1       2.343   7.414  19.030  0.00  0.00    +0.000 A 
ATOM     18  C   UNL     1       1.900   7.134  20.312  0.00  0.00    +0.000 A 
ATOM     19  F   UNL     1       1.683   8.138  21.171  0.00  0.00    +0.000 F 
ATOM     20  C   UNL     1       1.674   5.823  20.718  0.00  0.00    +0.000 A 
ATOM     21  C   UNL     1       1.921   4.776  19.827  0.00  0.00    +0.000 A 
ENDBRANCH  14  15
ENDBRANCH  13  14
ENDBRANCH   2  13
TORSDOF 3
ENDMDL
MODEL 7
REMARK VINA RESULT:      -7.3      1.513      2.832
REMARK  Name = 
REMARK  3 active torsions:
REMARK  status: ('A' for Active; 'I' for Inactive)
REMARK    1  A    between atoms: C_2  and  C_3
REMARK    2  A    between atoms: C_3  and  O_4
REMARK    3  A    between atoms: O_4  and  C_5
REMARK                            x       y       z     vdW  Elec       q    Type
REMARK                         _______ _______ _______ _____ _____    ______ ____
ROOT
ATOM      1  O   UNL     1       7.145   4.372  17.959  0.00  0.00    +0.000 OA
ATOM      2  C   UNL     1       6.289   5.152  17.524  0.00  0.00    +0.000 C 
ATOM      3  N   UNL     1       5.034   5.237  18.114  0.00  0.00    +0.000 N 
ATOM      4  C   UNL     1       4.812   4.428  19.318  0.00  0.00    +0.000 C 
ATOM      5  C   UNL     1       3.357   4.316  19.773  0.00  0.00    +0.000 C 
ATOM      6  C   UNL     1       2.719   5.678  19.790  0.00  0.00    +0.000 A 
ATOM      7  C   UNL     1       1.835   6.070  20.799  0.00  0.00    +0.000 A 
ATOM      8  C   UNL     1       1.259   7.339  20.761  0.00  0.00    +0.000 A 
ATOM      9  C   UNL     1       1.553   8.210  19.712  0.00  0.00    +0.000 A 
ATOM     10  C   UNL     1       2.424   7.816  18.694  0.00  0.00    +0.000 A 
ATOM     11  C   UNL     1       3.018   6.550  18.729  0.00  0.00    +0.000 A 
ATOM     12  C   UNL     1       3.930   6.069  17.621  0.00  0.00    +0.000 C 
ENDROOT
BRANCH   2  13
ATOM     13  C   UNL     1       6.648   6.083  16.364  0.00  0.00    +0.000 C 
BRANCH  13  14
ATOM     14  O   UNL     1       7.601   5.506  15.484  0.00  0.00    +0.000 OA
BRANCH  14  15
ATOM     15  C   UNL     1       7.087   4.860  14.388  0.00  0.00    +0.000 A 
ATOM     16  C   UNL     1       7.684   4.793  13.123  0.00  0.00    +0.000 A 
ATOM     17  C   UNL     1       7.035   4.136  12.072  0.00  0.00    +0.000 A 
ATOM     18  C   UNL     1       5.800   3.547  12.289  0.00  0.00    +0.000 A 
ATOM     19  F   UNL     1       5.170   2.941  11.274  0.00  0.00    +0.000 F 
ATOM     20  C   UNL     1       5.208   3.573  13.546  0.00  0.00    +0.000 A 
ATOM     21  C   UNL     1       5.858   4.224  14.598  0.00  0.00    +0.000 A 
ENDBRANCH  14  15
ENDBRANCH  13  14
ENDBRANCH   2  13
TORSDOF 3
ENDMDL
MODEL 8
REMARK VINA RESULT:      -7.2      3.140      6.739
REMARK  Name = 
REMARK  3 active torsions:
REMARK  status: ('A' for Active; 'I' for Inactive)
REMARK    1  A    between atoms: C_2  and  C_3
REMARK    2  A    between atoms: C_3  and  O_4
REMARK    3  A    between atoms: O_4  and  C_5
REMARK                            x       y       z     vdW  Elec       q    Type
REMARK                         _______ _______ _______ _____ _____    ______ ____
ROOT
ATOM      1  O   UNL     1       5.316   3.550  19.178  0.00  0.00    +0.000 OA
ATOM      2  C   UNL     1       4.717   3.562  18.096  0.00  0.00    +0.000 C 
ATOM      3  N   UNL     1       5.285   4.147  16.970  0.00  0.00    +0.000 N 
ATOM      4  C   UNL     1       6.651   4.663  17.111  0.00  0.00    +0.000 C 
ATOM      5  C   UNL     1       7.138   5.549  15.964  0.00  0.00    +0.000 C 
ATOM      6  C   UNL     1       6.834   4.891  14.646  0.00  0.00    +0.000 A 
ATOM      7  C   UNL     1       7.729   4.931  13.574  0.00  0.00    +0.000 A 
ATOM      8  C   UNL     1       7.394   4.319  12.367  0.00  0.00    +0.000 A 
ATOM      9  C   UNL     1       6.163   3.679  12.225  0.00  0.00    +0.000 A 
ATOM     10  C   UNL     1       5.259   3.650  13.290  0.00  0.00    +0.000 A 
ATOM     11  C   UNL     1       5.590   4.251  14.509  0.00  0.00    +0.000 A 
ATOM     12  C   UNL     1       4.620   4.282  15.669  0.00  0.00    +0.000 C 
ENDROOT
BRANCH   2  13
ATOM     13  C   UNL     1       3.363   2.859  17.985  0.00  0.00    +0.000 C 
BRANCH  13  14
ATOM     14  O   UNL     1       2.300   3.769  17.743  0.00  0.00    +0.000 OA
BRANCH  14  15
ATOM     15  C   UNL     1       2.208   4.824  18.615  0.00  0.00    +0.000 A 
ATOM     16  C   UNL     1       1.889   4.736  19.975  0.00  0.00    +0.000 A 
ATOM     17  C   UNL     1       1.785   5.896  20.751  0.00  0.00    +0.000 A 
ATOM     18  C   UNL     1       2.004   7.133  20.168  0.00  0.00    +0.000 A 
ATOM     19  F   UNL     1       1.878   8.244  20.908  0.00  0.00    +0.000 F 
ATOM     20  C   UNL     1       2.355   7.238  18.827  0.00  0.00    +0.000 A 
ATOM     21  C   UNL     1       2.464   6.080  18.054  0.00  0.00    +0.000 A 
ENDBRANCH  14  15
ENDBRANCH  13  14
ENDBRANCH   2  13
TORSDOF 3
ENDMDL
MODEL 9
REMARK VINA RESULT:      -7.1      1.164      1.705
REMARK  Name = 
REMARK  3 active torsions:
REMARK  status: ('A' for Active; 'I' for Inactive)
REMARK    1  A    between atoms: C_2  and  C_3
REMARK    2  A    between atoms: C_3  and  O_4
REMARK    3  A    between atoms: O_4  and  C_5
REMARK                            x       y       z     vdW  Elec       q    Type
REMARK                         _______ _______ _______ _____ _____    ______ ____
ROOT
ATOM      1  O   UNL     1       6.251   7.460  16.826  0.00  0.00    +0.000 OA
ATOM      2  C   UNL     1       6.241   6.508  17.615  0.00  0.00    +0.000 C 
ATOM      3  N   UNL     1       5.046   5.994  18.103  0.00  0.00    +0.000 N 
ATOM      4  C   UNL     1       3.809   6.576  17.569  0.00  0.00    +0.000 C 
ATOM      5  C   UNL     1       2.532   6.203  18.323  0.00  0.00    +0.000 C 
ATOM      6  C   UNL     1       2.492   4.719  18.558  0.00  0.00    +0.000 A 
ATOM      7  C   UNL     1       1.309   3.982  18.448  0.00  0.00    +0.000 A 
ATOM      8  C   UNL     1       1.321   2.610  18.691  0.00  0.00    +0.000 A 
ATOM      9  C   UNL     1       2.508   1.975  19.057  0.00  0.00    +0.000 A 
ATOM     10  C   UNL     1       3.689   2.710  19.183  0.00  0.00    +0.000 A 
ATOM     11  C   UNL     1       3.691   4.086  18.929  0.00  0.00    +0.000 A 
ATOM     12  C   UNL     1       4.938   4.924  19.101  0.00  0.00    +0.000 C 
ENDROOT
BRANCH   2  13
ATOM     13  C   UNL     1       7.566   5.846  18.001  0.00  0.00    +0.000 C 
BRANCH  13  14
ATOM     14  O   UNL     1       7.736   4.578  17.384  0.00  0.00    +0.000 OA
BRANCH  14  15
ATOM     15  C   UNL     1       7.153   4.431  16.151  0.00  0.00    +0.000 A 
ATOM     16  C   UNL     1       7.621   4.987  14.954  0.00  0.00    +0.000 A 
ATOM     17  C   UNL     1       6.909   4.797  13.764  0.00  0.00    +0.000 A 
ATOM     18  C   UNL     1       5.741   4.052  13.774  0.00  0.00    +0.000 A 
ATOM     19  F   UNL     1       5.048   3.894  12.639  0.00  0.00    +0.000 F 
ATOM     20  C   UNL     1       5.280   3.464  14.947  0.00  0.00    +0.000 A 
ATOM     21  C   UNL     1       5.994   3.648  16.134  0.00  0.00    +0.000 A 
ENDBRANCH  14  15
ENDBRANCH  13  14
ENDBRANCH   2  13
TORSDOF 3
ENDMDL
