MODEL 1
REMARK VINA RESULT:      -9.2      0.000      0.000
REMARK  Name = 
REMARK  4 active torsions:
REMARK  status: ('A' for Active; 'I' for Inactive)
REMARK    1  A    between atoms: C_1  and  O_2
REMARK    2  A    between atoms: O_2  and  C_3
REMARK    3  A    between atoms: C_6  and  C_7
REMARK    4  A    between atoms: N_26  and  C_27
REMARK                            x       y       z     vdW  Elec       q    Type
REMARK                         _______ _______ _______ _____ _____    ______ ____
ROOT
ATOM      1  C   UNL     1       3.353   6.576  18.207  0.00  0.00    +0.000 A 
ATOM      2  C   UNL     1       2.864   7.886  17.998  0.00  0.00    +0.000 A 
ATOM      3  C   UNL     1       2.050   8.483  18.980  0.00  0.00    +0.000 A 
ATOM      4  C   UNL     1       1.744   7.704  20.124  0.00  0.00    +0.000 A 
ATOM      5  C   UNL     1       2.311   6.448  20.261  0.00  0.00    +0.000 A 
ATOM      6  N   UNL     1       3.104   5.884  19.344  0.00  0.00    +0.000 NA
ATOM      7  C   UNL     1       0.752   8.113  21.183  0.00  0.00    +0.000 C 
ATOM      8  C   UNL     1      -0.032   9.396  20.951  0.00  0.00    +0.000 C 
ATOM      9  C   UNL     1       0.183   9.994  19.623  0.00  0.00    +0.000 A 
ATOM     10  C   UNL     1       1.296   9.752  18.846  0.00  0.00    +0.000 A 
ATOM     11  N   UNL     1       1.585  11.019  18.316  0.00  0.00    +0.000 N 
ATOM     12  C   UNL     1       0.572  11.879  18.761  0.00  0.00    +0.000 A 
ATOM     13  C   UNL     1      -0.508  11.063  19.015  0.00  0.00    +0.000 A 
ATOM     14  C   UNL     1      -1.764  11.707  19.324  0.00  0.00    +0.000 C 
ATOM     15  O   UNL     1      -2.690  11.827  18.554  0.00  0.00    +0.000 OA
ATOM     16  N   UNL     1      -1.575  12.457  20.461  0.00  0.00    +0.000 N 
ATOM     17  C   UNL     1      -0.605  13.654  20.277  0.00  0.00    +0.000 C 
ATOM     18  C   UNL     1       0.483  13.373  19.100  0.00  0.00    +0.000 C 
ATOM     19  C   UNL     1      -0.271  14.188  21.728  0.00  0.00    +0.000 C 
ATOM     20  N   UNL     1      -1.159  15.346  21.527  0.00  0.00    +0.000 NA
ATOM     21  C   UNL     1      -2.409  15.239  22.295  0.00  0.00    +0.000 C 
ATOM     22  C   UNL     1      -1.400  14.984  20.122  0.00  0.00    +0.000 C 
ATOM     23  H   UNL     1       2.434  11.276  17.830  0.00  0.00    +0.000 HD
ATOM     24  H   UNL     1      -1.199  11.854  21.181  0.00  0.00    +0.000 HD
ENDROOT
BRANCH   1  28
ATOM     25  C   UNL     1       5.691   4.327  15.345  0.00  0.00    +0.000 A 
ATOM     26  C   UNL     1       5.677   5.715  15.311  0.00  0.00    +0.000 A 
ATOM     27  C   UNL     1       4.924   6.430  16.249  0.00  0.00    +0.000 A 
ATOM     28  C   UNL     1       4.133   5.782  17.226  0.00  0.00    +0.000 A 
ATOM     29  C   UNL     1       4.180   4.383  17.254  0.00  0.00    +0.000 A 
ATOM     30  C   UNL     1       4.945   3.666  16.320  0.00  0.00    +0.000 A 
BRANCH  25  32
ATOM     31  C   UNL     1       5.840   3.717  13.067  0.00  0.00    +0.000 C 
ATOM     32  O   UNL     1       6.427   3.721  14.364  0.00  0.00    +0.000 OA
ENDBRANCH  25  32
ENDBRANCH   1  28
TORSDOF 2
ENDMDL
MODEL 2
REMARK VINA RESULT:      -8.3      2.568      4.189
REMARK  Name = 
REMARK  4 active torsions:
REMARK  status: ('A' for Active; 'I' for Inactive)
REMARK    1  A    between atoms: C_1  and  O_2
REMARK    2  A    between atoms: O_2  and  C_3
REMARK    3  A    between atoms: C_6  and  C_7
REMARK    4  A    between atoms: N_26  and  C_27
REMARK                            x       y       z     vdW  Elec       q    Type
REMARK                         _______ _______ _______ _____ _____    ______ ____
ROOT
ATOM      1  C   UNL     1       1.751   8.092  19.197  0.00  0.00    +0.000 A 
ATOM      2  C   UNL     1       1.088   8.649  20.314  0.00  0.00    +0.000 A 
ATOM      3  C   UNL     1       0.351   9.840  20.156  0.00  0.00    +0.000 A 
ATOM      4  C   UNL     1       0.347  10.427  18.866  0.00  0.00    +0.000 A 
ATOM      5  C   UNL     1       0.986   9.779  17.822  0.00  0.00    +0.000 A 
ATOM      6  N   UNL     1       1.668   8.637  17.960  0.00  0.00    +0.000 NA
ATOM      7  C   UNL     1      -0.238  11.782  18.558  0.00  0.00    +0.000 C 
ATOM      8  C   UNL     1      -0.766  12.600  19.727  0.00  0.00    +0.000 C 
ATOM      9  C   UNL     1      -0.491  12.004  21.044  0.00  0.00    +0.000 A 
ATOM     10  C   UNL     1      -0.236  10.663  21.239  0.00  0.00    +0.000 A 
ATOM     11  N   UNL     1      -0.945  10.381  22.417  0.00  0.00    +0.000 N 
ATOM     12  C   UNL     1      -1.487  11.596  22.857  0.00  0.00    +0.000 A 
ATOM     13  C   UNL     1      -0.672  12.570  22.324  0.00  0.00    +0.000 A 
ATOM     14  C   UNL     1      -0.893  13.930  22.761  0.00  0.00    +0.000 C 
ATOM     15  O   UNL     1      -0.206  14.520  23.564  0.00  0.00    +0.000 OA
ATOM     16  N   UNL     1      -2.177  14.272  22.411  0.00  0.00    +0.000 N 
ATOM     17  C   UNL     1      -3.274  13.479  23.169  0.00  0.00    +0.000 C 
ATOM     18  C   UNL     1      -2.747  12.010  23.631  0.00  0.00    +0.000 C 
ATOM     19  C   UNL     1      -4.638  13.772  22.422  0.00  0.00    +0.000 C 
ATOM     20  N   UNL     1      -5.057  14.680  23.504  0.00  0.00    +0.000 NA
ATOM     21  C   UNL     1      -5.005  16.094  23.106  0.00  0.00    +0.000 C 
ATOM     22  C   UNL     1      -3.879  14.341  24.317  0.00  0.00    +0.000 C 
ATOM     23  H   UNL     1      -1.137   9.459  22.785  0.00  0.00    +0.000 HD
ATOM     24  H   UNL     1      -2.293  14.102  21.420  0.00  0.00    +0.000 HD
ENDROOT
BRANCH   1  28
ATOM     25  C   UNL     1       4.278   4.583  19.312  0.00  0.00    +0.000 A 
ATOM     26  C   UNL     1       3.170   4.683  20.143  0.00  0.00    +0.000 A 
ATOM     27  C   UNL     1       2.356   5.819  20.088  0.00  0.00    +0.000 A 
ATOM     28  C   UNL     1       2.642   6.906  19.230  0.00  0.00    +0.000 A 
ATOM     29  C   UNL     1       3.751   6.773  18.387  0.00  0.00    +0.000 A 
ATOM     30  C   UNL     1       4.562   5.627  18.432  0.00  0.00    +0.000 A 
BRANCH  25  32
ATOM     31  C   UNL     1       4.346   2.326  20.009  0.00  0.00    +0.000 C 
ATOM     32  O   UNL     1       5.030   3.450  19.466  0.00  0.00    +0.000 OA
ENDBRANCH  25  32
ENDBRANCH   1  28
TORSDOF 2
ENDMDL
MODEL 3
REMARK VINA RESULT:      -8.2      2.597     10.046
REMARK  Name = 
REMARK  4 active torsions:
REMARK  status: ('A' for Active; 'I' for Inactive)
REMARK    1  A    between atoms: C_1  and  O_2
REMARK    2  A    between atoms: O_2  and  C_3
REMARK    3  A    between atoms: C_6  and  C_7
REMARK    4  A    between atoms: N_26  and  C_27
REMARK                            x       y       z     vdW  Elec       q    Type
REMARK                         _______ _______ _______ _____ _____    ______ ____
ROOT
ATOM      1  C   UNL     1      -0.822  11.483  20.846  0.00  0.00    +0.000 A 
ATOM      2  C   UNL     1      -0.252  10.195  20.964  0.00  0.00    +0.000 A 
ATOM      3  C   UNL     1       0.738   9.792  20.046  0.00  0.00    +0.000 A 
ATOM      4  C   UNL     1       1.083  10.713  19.026  0.00  0.00    +0.000 A 
ATOM      5  C   UNL     1       0.505  11.972  19.023  0.00  0.00    +0.000 A 
ATOM      6  N   UNL     1      -0.418  12.370  19.905  0.00  0.00    +0.000 NA
ATOM      7  C   UNL     1       1.986  10.386  17.864  0.00  0.00    +0.000 C 
ATOM      8  C   UNL     1       2.473   8.950  17.737  0.00  0.00    +0.000 C 
ATOM      9  C   UNL     1       1.860   8.025  18.703  0.00  0.00    +0.000 A 
ATOM     10  C   UNL     1       1.296   8.428  19.896  0.00  0.00    +0.000 A 
ATOM     11  N   UNL     1       1.721   7.433  20.790  0.00  0.00    +0.000 N 
ATOM     12  C   UNL     1       2.428   6.490  20.032  0.00  0.00    +0.000 A 
ATOM     13  C   UNL     1       1.940   6.617  18.750  0.00  0.00    +0.000 A 
ATOM     14  C   UNL     1       2.369   5.637  17.779  0.00  0.00    +0.000 C 
ATOM     15  O   UNL     1       1.699   4.707  17.390  0.00  0.00    +0.000 OA
ATOM     16  N   UNL     1       3.737   5.728  17.679  0.00  0.00    +0.000 N 
ATOM     17  C   UNL     1       4.496   5.302  18.963  0.00  0.00    +0.000 C 
ATOM     18  C   UNL     1       3.598   5.533  20.300  0.00  0.00    +0.000 C 
ATOM     19  C   UNL     1       5.997   5.767  18.772  0.00  0.00    +0.000 C 
ATOM     20  N   UNL     1       6.412   4.379  18.503  0.00  0.00    +0.000 NA
ATOM     21  C   UNL     1       6.730   4.150  17.085  0.00  0.00    +0.000 C 
ATOM     22  C   UNL     1       5.070   3.862  18.808  0.00  0.00    +0.000 C 
ATOM     23  H   UNL     1       1.647   7.473  21.798  0.00  0.00    +0.000 HD
ATOM     24  H   UNL     1       3.978   6.688  17.473  0.00  0.00    +0.000 HD
ENDROOT
BRANCH   1  28
ATOM     25  C   UNL     1      -4.129  13.006  23.182  0.00  0.00    +0.000 A 
ATOM     26  C   UNL     1      -4.053  13.257  21.818  0.00  0.00    +0.000 A 
ATOM     27  C   UNL     1      -2.983  12.750  21.073  0.00  0.00    +0.000 A 
ATOM     28  C   UNL     1      -1.937  12.009  21.671  0.00  0.00    +0.000 A 
ATOM     29  C   UNL     1      -2.047  11.751  23.043  0.00  0.00    +0.000 A 
ATOM     30  C   UNL     1      -3.128  12.249  23.789  0.00  0.00    +0.000 A 
BRANCH  25  32
ATOM     31  C   UNL     1      -6.300  12.712  24.069  0.00  0.00    +0.000 C 
ATOM     32  O   UNL     1      -5.193  13.575  23.827  0.00  0.00    +0.000 OA
ENDBRANCH  25  32
ENDBRANCH   1  28
TORSDOF 2
ENDMDL
MODEL 4
REMARK VINA RESULT:      -8.1      2.503      3.751
REMARK  Name = 
REMARK  4 active torsions:
REMARK  status: ('A' for Active; 'I' for Inactive)
REMARK    1  A    between atoms: C_1  and  O_2
REMARK    2  A    between atoms: O_2  and  C_3
REMARK    3  A    between atoms: C_6  and  C_7
REMARK    4  A    between atoms: N_26  and  C_27
REMARK                            x       y       z     vdW  Elec       q    Type
REMARK                         _______ _______ _______ _____ _____    ______ ____
ROOT
ATOM      1  C   UNL     1       2.041   8.053  18.837  0.00  0.00    +0.000 A 
ATOM      2  C   UNL     1       1.471   8.591  20.013  0.00  0.00    +0.000 A 
ATOM      3  C   UNL     1       0.543   9.646  19.909  0.00  0.00    +0.000 A 
ATOM      4  C   UNL     1       0.259  10.128  18.607  0.00  0.00    +0.000 A 
ATOM      5  C   UNL     1       0.831   9.502  17.511  0.00  0.00    +0.000 A 
ATOM      6  N   UNL     1       1.694   8.485  17.601  0.00  0.00    +0.000 NA
ATOM      7  C   UNL     1      -0.566  11.357  18.322  0.00  0.00    +0.000 C 
ATOM      8  C   UNL     1      -1.038  12.176  19.515  0.00  0.00    +0.000 C 
ATOM      9  C   UNL     1      -0.483  11.728  20.803  0.00  0.00    +0.000 A 
ATOM     10  C   UNL     1       0.001  10.456  21.025  0.00  0.00    +0.000 A 
ATOM     11  N   UNL     1      -0.475  10.164  22.313  0.00  0.00    +0.000 N 
ATOM     12  C   UNL     1      -1.129  11.318  22.768  0.00  0.00    +0.000 A 
ATOM     13  C   UNL     1      -0.561  12.357  22.063  0.00  0.00    +0.000 A 
ATOM     14  C   UNL     1      -0.923  13.699  22.457  0.00  0.00    +0.000 C 
ATOM     15  O   UNL     1      -0.225  14.442  23.111  0.00  0.00    +0.000 OA
ATOM     16  N   UNL     1      -2.282  13.824  22.294  0.00  0.00    +0.000 N 
ATOM     17  C   UNL     1      -3.119  12.940  23.256  0.00  0.00    +0.000 C 
ATOM     18  C   UNL     1      -2.310  11.603  23.706  0.00  0.00    +0.000 C 
ATOM     19  C   UNL     1      -4.607  12.976  22.716  0.00  0.00    +0.000 C 
ATOM     20  N   UNL     1      -4.999  13.892  23.801  0.00  0.00    +0.000 NA
ATOM     21  C   UNL     1      -5.224  15.265  23.326  0.00  0.00    +0.000 C 
ATOM     22  C   UNL     1      -3.676  13.790  24.436  0.00  0.00    +0.000 C 
ATOM     23  H   UNL     1      -0.466   9.255  22.755  0.00  0.00    +0.000 HD
ATOM     24  H   UNL     1      -2.514  13.565  21.344  0.00  0.00    +0.000 HD
ENDROOT
BRANCH   1  28
ATOM     25  C   UNL     1       5.185   5.085  18.678  0.00  0.00    +0.000 A 
ATOM     26  C   UNL     1       5.144   6.121  17.754  0.00  0.00    +0.000 A 
ATOM     27  C   UNL     1       4.127   7.080  17.823  0.00  0.00    +0.000 A 
ATOM     28  C   UNL     1       3.099   7.014  18.793  0.00  0.00    +0.000 A 
ATOM     29  C   UNL     1       3.174   5.973  19.726  0.00  0.00    +0.000 A 
ATOM     30  C   UNL     1       4.202   5.018  19.665  0.00  0.00    +0.000 A 
BRANCH  25  32
ATOM     31  C   UNL     1       7.301   4.633  17.728  0.00  0.00    +0.000 C 
ATOM     32  O   UNL     1       6.196   4.180  18.504  0.00  0.00    +0.000 OA
ENDBRANCH  25  32
ENDBRANCH   1  28
TORSDOF 2
ENDMDL
MODEL 5
REMARK VINA RESULT:      -7.9      1.156      1.484
REMARK  Name = 
REMARK  4 active torsions:
REMARK  status: ('A' for Active; 'I' for Inactive)
REMARK    1  A    between atoms: C_1  and  O_2
REMARK    2  A    between atoms: O_2  and  C_3
REMARK    3  A    between atoms: C_6  and  C_7
REMARK    4  A    between atoms: N_26  and  C_27
REMARK                            x       y       z     vdW  Elec       q    Type
REMARK                         _______ _______ _______ _____ _____    ______ ____
ROOT
ATOM      1  C   UNL     1       2.376   7.307  19.084  0.00  0.00    +0.000 A 
ATOM      2  C   UNL     1       1.863   8.585  18.762  0.00  0.00    +0.000 A 
ATOM      3  C   UNL     1       1.143   9.304  19.737  0.00  0.00    +0.000 A 
ATOM      4  C   UNL     1       0.952   8.673  20.991  0.00  0.00    +0.000 A 
ATOM      5  C   UNL     1       1.536   7.439  21.228  0.00  0.00    +0.000 A 
ATOM      6  N   UNL     1       2.241   6.762  20.316  0.00  0.00    +0.000 NA
ATOM      7  C   UNL     1       0.063   9.215  22.082  0.00  0.00    +0.000 C 
ATOM      8  C   UNL     1      -0.747  10.464  21.770  0.00  0.00    +0.000 C 
ATOM      9  C   UNL     1      -0.663  10.894  20.365  0.00  0.00    +0.000 A 
ATOM     10  C   UNL     1       0.373  10.551  19.521  0.00  0.00    +0.000 A 
ATOM     11  N   UNL     1       0.603  11.741  18.814  0.00  0.00    +0.000 N 
ATOM     12  C   UNL     1      -0.367  12.656  19.244  0.00  0.00    +0.000 A 
ATOM     13  C   UNL     1      -1.415  11.884  19.699  0.00  0.00    +0.000 A 
ATOM     14  C   UNL     1      -2.639  12.570  20.044  0.00  0.00    +0.000 C 
ATOM     15  O   UNL     1      -3.635  12.600  19.357  0.00  0.00    +0.000 OA
ATOM     16  N   UNL     1      -2.346  13.452  21.057  0.00  0.00    +0.000 N 
ATOM     17  C   UNL     1      -1.404  14.611  20.635  0.00  0.00    +0.000 C 
ATOM     18  C   UNL     1      -0.432  14.181  19.403  0.00  0.00    +0.000 C 
ATOM     19  C   UNL     1      -0.936  15.317  21.972  0.00  0.00    +0.000 C 
ATOM     20  N   UNL     1      -1.846  16.447  21.715  0.00  0.00    +0.000 NA
ATOM     21  C   UNL     1      -3.016  16.443  22.607  0.00  0.00    +0.000 C 
ATOM     22  C   UNL     1      -2.218  15.917  20.395  0.00  0.00    +0.000 C 
ATOM     23  H   UNL     1       1.400  11.932  18.221  0.00  0.00    +0.000 HD
ATOM     24  H   UNL     1      -1.899  12.939  21.806  0.00  0.00    +0.000 HD
ENDROOT
BRANCH   1  28
ATOM     25  C   UNL     1       4.459   4.687  16.342  0.00  0.00    +0.000 A 
ATOM     26  C   UNL     1       4.864   6.005  16.505  0.00  0.00    +0.000 A 
ATOM     27  C   UNL     1       4.188   6.839  17.403  0.00  0.00    +0.000 A 
ATOM     28  C   UNL     1       3.064   6.395  18.138  0.00  0.00    +0.000 A 
ATOM     29  C   UNL     1       2.687   5.056  17.972  0.00  0.00    +0.000 A 
ATOM     30  C   UNL     1       3.374   4.216  17.080  0.00  0.00    +0.000 A 
BRANCH  25  32
ATOM     31  C   UNL     1       5.969   4.727  14.526  0.00  0.00    +0.000 C 
ATOM     32  O   UNL     1       5.160   3.965  15.416  0.00  0.00    +0.000 OA
ENDBRANCH  25  32
ENDBRANCH   1  28
TORSDOF 2
ENDMDL
MODEL 6
REMARK VINA RESULT:      -7.7      2.528     10.095
REMARK  Name = 
REMARK  4 active torsions:
REMARK  status: ('A' for Active; 'I' for Inactive)
REMARK    1  A    between atoms: C_1  and  O_2
REMARK    2  A    between atoms: O_2  and  C_3
REMARK    3  A    between atoms: C_6  and  C_7
REMARK    4  A    between atoms: N_26  and  C_27
REMARK                            x       y       z     vdW  Elec       q    Type
REMARK                         _______ _______ _______ _____ _____    ______ ____
ROOT
ATOM      1  C   UNL     1      -0.160  11.678  21.205  0.00  0.00    +0.000 A 
ATOM      2  C   UNL     1       0.357  10.363  21.256  0.00  0.00    +0.000 A 
ATOM      3  C   UNL     1       1.122   9.881  20.175  0.00  0.00    +0.000 A 
ATOM      4  C   UNL     1       1.302  10.754  19.074  0.00  0.00    +0.000 A 
ATOM      5  C   UNL     1       0.798  12.043  19.139  0.00  0.00    +0.000 A 
ATOM      6  N   UNL     1       0.091  12.515  20.170  0.00  0.00    +0.000 NA
ATOM      7  C   UNL     1       1.937  10.346  17.769  0.00  0.00    +0.000 C 
ATOM      8  C   UNL     1       2.317   8.883  17.601  0.00  0.00    +0.000 C 
ATOM      9  C   UNL     1       1.864   8.019  18.703  0.00  0.00    +0.000 A 
ATOM     10  C   UNL     1       1.571   8.484  19.968  0.00  0.00    +0.000 A 
ATOM     11  N   UNL     1       2.116   7.491  20.797  0.00  0.00    +0.000 N 
ATOM     12  C   UNL     1       2.609   6.490  19.949  0.00  0.00    +0.000 A 
ATOM     13  C   UNL     1       1.882   6.611  18.785  0.00  0.00    +0.000 A 
ATOM     14  C   UNL     1       2.059   5.583  17.785  0.00  0.00    +0.000 C 
ATOM     15  O   UNL     1       1.280   4.682  17.571  0.00  0.00    +0.000 OA
ATOM     16  N   UNL     1       3.382   5.594  17.413  0.00  0.00    +0.000 N 
ATOM     17  C   UNL     1       4.361   5.160  18.536  0.00  0.00    +0.000 C 
ATOM     18  C   UNL     1       3.761   5.477  20.015  0.00  0.00    +0.000 C 
ATOM     19  C   UNL     1       5.814   5.535  18.035  0.00  0.00    +0.000 C 
ATOM     20  N   UNL     1       6.098   4.120  17.740  0.00  0.00    +0.000 NA
ATOM     21  C   UNL     1       6.115   3.835  16.298  0.00  0.00    +0.000 C 
ATOM     22  C   UNL     1       4.820   3.686  18.325  0.00  0.00    +0.000 C 
ATOM     23  H   UNL     1       2.247   7.562  21.797  0.00  0.00    +0.000 HD
ATOM     24  H   UNL     1       3.625   6.533  17.128  0.00  0.00    +0.000 HD
ENDROOT
BRANCH   1  28
ATOM     25  C   UNL     1      -2.768  13.533  24.115  0.00  0.00    +0.000 A 
ATOM     26  C   UNL     1      -1.623  14.185  23.676  0.00  0.00    +0.000 A 
ATOM     27  C   UNL     1      -0.794  13.577  22.726  0.00  0.00    +0.000 A 
ATOM     28  C   UNL     1      -1.061  12.287  22.214  0.00  0.00    +0.000 A 
ATOM     29  C   UNL     1      -2.232  11.659  22.656  0.00  0.00    +0.000 A 
ATOM     30  C   UNL     1      -3.071  12.274  23.600  0.00  0.00    +0.000 A 
BRANCH  25  32
ATOM     31  C   UNL     1      -3.136  15.556  25.280  0.00  0.00    +0.000 C 
ATOM     32  O   UNL     1      -3.492  14.194  25.070  0.00  0.00    +0.000 OA
ENDBRANCH  25  32
ENDBRANCH   1  28
TORSDOF 2
ENDMDL
MODEL 7
REMARK VINA RESULT:      -7.6      2.860      4.857
REMARK  Name = 
REMARK  4 active torsions:
REMARK  status: ('A' for Active; 'I' for Inactive)
REMARK    1  A    between atoms: C_1  and  O_2
REMARK    2  A    between atoms: O_2  and  C_3
REMARK    3  A    between atoms: C_6  and  C_7
REMARK    4  A    between atoms: N_26  and  C_27
REMARK                            x       y       z     vdW  Elec       q    Type
REMARK                         _______ _______ _______ _____ _____    ______ ____
ROOT
ATOM      1  C   UNL     1       1.223   8.857  19.784  0.00  0.00    +0.000 A 
ATOM      2  C   UNL     1       0.436   9.416  20.817  0.00  0.00    +0.000 A 
ATOM      3  C   UNL     1      -0.023  10.742  20.693  0.00  0.00    +0.000 A 
ATOM      4  C   UNL     1       0.365  11.452  19.529  0.00  0.00    +0.000 A 
ATOM      5  C   UNL     1       1.096  10.801  18.549  0.00  0.00    +0.000 A 
ATOM      6  N   UNL     1       1.516   9.536  18.649  0.00  0.00    +0.000 NA
ATOM      7  C   UNL     1       0.115  12.923  19.315  0.00  0.00    +0.000 C 
ATOM      8  C   UNL     1      -0.507  13.703  20.463  0.00  0.00    +0.000 C 
ATOM      9  C   UNL     1      -0.643  12.927  21.707  0.00  0.00    +0.000 A 
ATOM     10  C   UNL     1      -0.681  11.549  21.747  0.00  0.00    +0.000 A 
ATOM     11  N   UNL     1      -1.674  11.295  22.707  0.00  0.00    +0.000 N 
ATOM     12  C   UNL     1      -2.076  12.541  23.205  0.00  0.00    +0.000 A 
ATOM     13  C   UNL     1      -1.002  13.379  22.994  0.00  0.00    +0.000 A 
ATOM     14  C   UNL     1      -1.070  14.700  23.574  0.00  0.00    +0.000 C 
ATOM     15  O   UNL     1      -0.486  15.048  24.576  0.00  0.00    +0.000 OA
ATOM     16  N   UNL     1      -2.162  15.333  23.030  0.00  0.00    +0.000 N 
ATOM     17  C   UNL     1      -3.523  14.706  23.431  0.00  0.00    +0.000 C 
ATOM     18  C   UNL     1      -3.382  13.120  23.766  0.00  0.00    +0.000 C 
ATOM     19  C   UNL     1      -4.612  15.351  22.479  0.00  0.00    +0.000 C 
ATOM     20  N   UNL     1      -5.094  16.205  23.578  0.00  0.00    +0.000 NA
ATOM     21  C   UNL     1      -4.704  17.613  23.412  0.00  0.00    +0.000 C 
ATOM     22  C   UNL     1      -4.207  15.548  24.550  0.00  0.00    +0.000 C 
ATOM     23  H   UNL     1      -2.104  10.398  22.890  0.00  0.00    +0.000 HD
ATOM     24  H   UNL     1      -2.082  15.298  22.023  0.00  0.00    +0.000 HD
ENDROOT
BRANCH   1  28
ATOM     25  C   UNL     1       3.001   4.915  19.914  0.00  0.00    +0.000 A 
ATOM     26  C   UNL     1       2.065   5.300  20.866  0.00  0.00    +0.000 A 
ATOM     27  C   UNL     1       1.491   6.574  20.805  0.00  0.00    +0.000 A 
ATOM     28  C   UNL     1       1.858   7.517  19.817  0.00  0.00    +0.000 A 
ATOM     29  C   UNL     1       2.787   7.098  18.857  0.00  0.00    +0.000 A 
ATOM     30  C   UNL     1       3.355   5.815  18.909  0.00  0.00    +0.000 A 
BRANCH  25  32
ATOM     31  C   UNL     1       4.516   3.282  19.127  0.00  0.00    +0.000 C 
ATOM     32  O   UNL     1       3.530   3.665  20.080  0.00  0.00    +0.000 OA
ENDBRANCH  25  32
ENDBRANCH   1  28
TORSDOF 2
ENDMDL
MODEL 8
REMARK VINA RESULT:      -7.6      2.822      4.190
REMARK  Name = 
REMARK  4 active torsions:
REMARK  status: ('A' for Active; 'I' for Inactive)
REMARK    1  A    between atoms: C_1  and  O_2
REMARK    2  A    between atoms: O_2  and  C_3
REMARK    3  A    between atoms: C_6  and  C_7
REMARK    4  A    between atoms: N_26  and  C_27
REMARK                            x       y       z     vdW  Elec       q    Type
REMARK                         _______ _______ _______ _____ _____    ______ ____
ROOT
ATOM      1  C   UNL     1       1.780   8.024  19.458  0.00  0.00    +0.000 A 
ATOM      2  C   UNL     1       0.962   8.721  20.377  0.00  0.00    +0.000 A 
ATOM      3  C   UNL     1       0.570  10.043  20.087  0.00  0.00    +0.000 A 
ATOM      4  C   UNL     1       1.055  10.608  18.881  0.00  0.00    +0.000 A 
ATOM      5  C   UNL     1       1.810   9.828  18.021  0.00  0.00    +0.000 A 
ATOM      6  N   UNL     1       2.167   8.566  18.279  0.00  0.00    +0.000 NA
ATOM      7  C   UNL     1       0.882  12.056  18.499  0.00  0.00    +0.000 C 
ATOM      8  C   UNL     1       0.232  12.978  19.519  0.00  0.00    +0.000 C 
ATOM      9  C   UNL     1      -0.009  12.345  20.827  0.00  0.00    +0.000 A 
ATOM     10  C   UNL     1      -0.110  10.982  21.009  0.00  0.00    +0.000 A 
ATOM     11  N   UNL     1      -1.166  10.870  21.928  0.00  0.00    +0.000 N 
ATOM     12  C   UNL     1      -1.539  12.178  22.267  0.00  0.00    +0.000 A 
ATOM     13  C   UNL     1      -0.420  12.946  22.035  0.00  0.00    +0.000 A 
ATOM     14  C   UNL     1      -0.461  14.324  22.469  0.00  0.00    +0.000 C 
ATOM     15  O   UNL     1       0.080  14.755  23.462  0.00  0.00    +0.000 OA
ATOM     16  N   UNL     1      -1.492  14.936  21.796  0.00  0.00    +0.000 N 
ATOM     17  C   UNL     1      -2.900  14.408  22.177  0.00  0.00    +0.000 C 
ATOM     18  C   UNL     1      -2.848  12.863  22.684  0.00  0.00    +0.000 C 
ATOM     19  C   UNL     1      -3.903  14.988  21.098  0.00  0.00    +0.000 C 
ATOM     20  N   UNL     1      -4.408  15.973  22.070  0.00  0.00    +0.000 NA
ATOM     21  C   UNL     1      -3.947  17.339  21.782  0.00  0.00    +0.000 C 
ATOM     22  C   UNL     1      -3.607  15.390  23.158  0.00  0.00    +0.000 C 
ATOM     23  H   UNL     1      -1.645  10.015  22.177  0.00  0.00    +0.000 HD
ATOM     24  H   UNL     1      -1.357  14.789  20.805  0.00  0.00    +0.000 HD
ENDROOT
BRANCH   1  28
ATOM     25  C   UNL     1       3.369   4.051  20.096  0.00  0.00    +0.000 A 
ATOM     26  C   UNL     1       2.283   4.505  20.834  0.00  0.00    +0.000 A 
ATOM     27  C   UNL     1       1.773   5.789  20.610  0.00  0.00    +0.000 A 
ATOM     28  C   UNL     1       2.353   6.672  19.670  0.00  0.00    +0.000 A 
ATOM     29  C   UNL     1       3.432   6.185  18.924  0.00  0.00    +0.000 A 
ATOM     30  C   UNL     1       3.936   4.892  19.140  0.00  0.00    +0.000 A 
BRANCH  25  32
ATOM     31  C   UNL     1       3.942   1.894  19.322  0.00  0.00    +0.000 C 
ATOM     32  O   UNL     1       3.815   2.798  20.414  0.00  0.00    +0.000 OA
ENDBRANCH  25  32
ENDBRANCH   1  28
TORSDOF 2
ENDMDL
MODEL 9
REMARK VINA RESULT:      -7.5      2.122      3.648
REMARK  Name = 
REMARK  4 active torsions:
REMARK  status: ('A' for Active; 'I' for Inactive)
REMARK    1  A    between atoms: C_1  and  O_2
REMARK    2  A    between atoms: O_2  and  C_3
REMARK    3  A    between atoms: C_6  and  C_7
REMARK    4  A    between atoms: N_26  and  C_27
REMARK                            x       y       z     vdW  Elec       q    Type
REMARK                         _______ _______ _______ _____ _____    ______ ____
ROOT
ATOM      1  C   UNL     1       1.375   8.736  20.273  0.00  0.00    +0.000 A 
ATOM      2  C   UNL     1       0.834   9.990  19.907  0.00  0.00    +0.000 A 
ATOM      3  C   UNL     1       0.061  10.707  20.842  0.00  0.00    +0.000 A 
ATOM      4  C   UNL     1      -0.151  10.097  22.104  0.00  0.00    +0.000 A 
ATOM      5  C   UNL     1       0.463   8.888  22.386  0.00  0.00    +0.000 A 
ATOM      6  N   UNL     1       1.217   8.213  21.512  0.00  0.00    +0.000 NA
ATOM      7  C   UNL     1      -1.090  10.635  23.154  0.00  0.00    +0.000 C 
ATOM      8  C   UNL     1      -1.927  11.852  22.789  0.00  0.00    +0.000 C 
ATOM      9  C   UNL     1      -1.811  12.254  21.378  0.00  0.00    +0.000 A 
ATOM     10  C   UNL     1      -0.739  11.925  20.575  0.00  0.00    +0.000 A 
ATOM     11  N   UNL     1      -0.522  13.106  19.849  0.00  0.00    +0.000 N 
ATOM     12  C   UNL     1      -1.534  13.999  20.228  0.00  0.00    +0.000 A 
ATOM     13  C   UNL     1      -2.571  13.206  20.666  0.00  0.00    +0.000 A 
ATOM     14  C   UNL     1      -3.826  13.859  20.958  0.00  0.00    +0.000 C 
ATOM     15  O   UNL     1      -4.800  13.844  20.239  0.00  0.00    +0.000 OA
ATOM     16  N   UNL     1      -3.592  14.772  21.959  0.00  0.00    +0.000 N 
ATOM     17  C   UNL     1      -2.674  15.950  21.542  0.00  0.00    +0.000 C 
ATOM     18  C   UNL     1      -1.650  15.525  20.351  0.00  0.00    +0.000 C 
ATOM     19  C   UNL     1      -2.271  16.700  22.876  0.00  0.00    +0.000 C 
ATOM     20  N   UNL     1      -3.206  17.795  22.566  0.00  0.00    +0.000 NA
ATOM     21  C   UNL     1      -4.403  17.773  23.420  0.00  0.00    +0.000 C 
ATOM     22  C   UNL     1      -3.518  17.226  21.246  0.00  0.00    +0.000 C 
ATOM     23  H   UNL     1       0.287  13.309  19.277  0.00  0.00    +0.000 HD
ATOM     24  H   UNL     1      -3.155  14.290  22.734  0.00  0.00    +0.000 HD
ENDROOT
BRANCH   1  28
ATOM     25  C   UNL     1       3.498   6.013  17.667  0.00  0.00    +0.000 A 
ATOM     26  C   UNL     1       3.002   5.579  18.890  0.00  0.00    +0.000 A 
ATOM     27  C   UNL     1       2.309   6.468  19.718  0.00  0.00    +0.000 A 
ATOM     28  C   UNL     1       2.120   7.826  19.370  0.00  0.00    +0.000 A 
ATOM     29  C   UNL     1       2.610   8.234  18.123  0.00  0.00    +0.000 A 
ATOM     30  C   UNL     1       3.295   7.339  17.286  0.00  0.00    +0.000 A 
BRANCH  25  32
ATOM     31  C   UNL     1       3.905   3.721  17.263  0.00  0.00    +0.000 C 
ATOM     32  O   UNL     1       4.191   5.079  16.947  0.00  0.00    +0.000 OA
ENDBRANCH  25  32
ENDBRANCH   1  28
TORSDOF 2
ENDMDL
