MODEL 1
REMARK VINA RESULT:      -8.0      0.000      0.000
REMARK  Name = 
REMARK  6 active torsions:
REMARK  status: ('A' for Active; 'I' for Inactive)
REMARK    1  A    between atoms: C_2  and  O_10
REMARK    2  A    between atoms: N_3  and  C_4
REMARK    3  A    between atoms: O_10  and  C_11
REMARK    4  A    between atoms: C_11  and  C_12
REMARK    5  A    between atoms: N_15  and  C_16
REMARK    6  A    between atoms: C_16  and  C_17
REMARK                            x       y       z     vdW  Elec       q    Type
REMARK                         _______ _______ _______ _____ _____    ______ ____
ROOT
ATOM      1  C   UNL     1       7.680   7.052  17.473  0.00  0.00    +0.000 C 
ENDROOT
BRANCH   1   2
ATOM      2  C   UNL     1       6.378   6.458  17.935  0.00  0.00    +0.000 A 
ATOM      3  N   UNL     1       6.296   5.462  18.882  0.00  0.00    +0.000 NA
ATOM      4  C   UNL     1       5.003   5.271  19.010  0.00  0.00    +0.000 A 
ATOM      5  N   UNL     1       4.329   6.095  18.162  0.00  0.00    +0.000 N 
ATOM      6  N   UNL     1       5.191   6.821  17.414  0.00  0.00    +0.000 NA
BRANCH   5   7
ATOM      7  C   UNL     1       2.891   6.176  17.967  0.00  0.00    +0.000 C 
BRANCH   7   8
ATOM      8  C   UNL     1       2.149   5.040  18.636  0.00  0.00    +0.000 A 
ATOM      9  C   UNL     1       1.829   3.876  17.922  0.00  0.00    +0.000 A 
ATOM     10  C   UNL     1       1.187   2.806  18.548  0.00  0.00    +0.000 A 
ATOM     11  C   UNL     1       0.863   2.882  19.900  0.00  0.00    +0.000 A 
ATOM     12  C   UNL     1       1.176   4.030  20.626  0.00  0.00    +0.000 A 
ATOM     13  C   UNL     1       1.815   5.105  19.999  0.00  0.00    +0.000 A 
ENDBRANCH   7   8
ENDBRANCH   5   7
ENDBRANCH   1   2
BRANCH   1  14
ATOM     14  O   UNL     1       8.413   7.804  18.472  0.00  0.00    +0.000 OA
BRANCH  14  16
ATOM     15  O   UNL     1       7.544   9.730  17.595  0.00  0.00    +0.000 OA
ATOM     16  C   UNL     1       8.345   9.147  18.318  0.00  0.00    +0.000 C 
ATOM     17  N   UNL     1       9.295   9.774  19.084  0.00  0.00    +0.000 N 
ATOM     18  H   UNL     1      10.040   9.203  19.450  0.00  0.00    +0.000 HD
BRANCH  17  19
ATOM     19  C   UNL     1       9.293  11.224  19.255  0.00  0.00    +0.000 C 
ATOM     20  C   UNL     1      10.214  11.684  20.397  0.00  0.00    +0.000 C 
ATOM     21  C   UNL     1      11.699  11.676  20.031  0.00  0.00    +0.000 C 
ATOM     22  C   UNL     1      11.969  12.429  18.733  0.00  0.00    +0.000 C 
ATOM     23  C   UNL     1      11.099  11.908  17.594  0.00  0.00    +0.000 C 
ATOM     24  C   UNL     1       9.615  11.966  17.953  0.00  0.00    +0.000 C 
ENDBRANCH  17  19
ENDBRANCH  14  16
ENDBRANCH   1  14
TORSDOF 6
ENDMDL
MODEL 2
REMARK VINA RESULT:      -7.9      1.694      9.144
REMARK  Name = 
REMARK  6 active torsions:
REMARK  status: ('A' for Active; 'I' for Inactive)
REMARK    1  A    between atoms: C_2  and  O_10
REMARK    2  A    between atoms: N_3  and  C_4
REMARK    3  A    between atoms: O_10  and  C_11
REMARK    4  A    between atoms: C_11  and  C_12
REMARK    5  A    between atoms: N_15  and  C_16
REMARK    6  A    between atoms: C_16  and  C_17
REMARK                            x       y       z     vdW  Elec       q    Type
REMARK                         _______ _______ _______ _____ _____    ______ ____
ROOT
ATOM      1  C   UNL     1       6.940   5.772  16.868  0.00  0.00    +0.000 C 
ENDROOT
BRANCH   1   2
ATOM      2  C   UNL     1       7.535   6.965  17.562  0.00  0.00    +0.000 A 
ATOM      3  N   UNL     1       8.257   6.878  18.733  0.00  0.00    +0.000 NA
ATOM      4  C   UNL     1       8.613   8.120  18.963  0.00  0.00    +0.000 A 
ATOM      5  N   UNL     1       8.111   8.931  17.993  0.00  0.00    +0.000 N 
ATOM      6  N   UNL     1       7.361   8.224  17.118  0.00  0.00    +0.000 NA
BRANCH   5   7
ATOM      7  C   UNL     1       8.244  10.376  17.893  0.00  0.00    +0.000 C 
BRANCH   7   8
ATOM      8  C   UNL     1       9.470  10.897  18.610  0.00  0.00    +0.000 A 
ATOM      9  C   UNL     1      10.660  11.140  17.907  0.00  0.00    +0.000 A 
ATOM     10  C   UNL     1      11.779  11.667  18.556  0.00  0.00    +0.000 A 
ATOM     11  C   UNL     1      11.721  11.966  19.914  0.00  0.00    +0.000 A 
ATOM     12  C   UNL     1      10.546  11.734  20.627  0.00  0.00    +0.000 A 
ATOM     13  C   UNL     1       9.426  11.202  19.980  0.00  0.00    +0.000 A 
ENDBRANCH   7   8
ENDBRANCH   5   7
ENDBRANCH   1   2
BRANCH   1  14
ATOM     14  O   UNL     1       5.926   5.056  17.617  0.00  0.00    +0.000 OA
BRANCH  14  16
ATOM     15  O   UNL     1       4.312   6.411  16.727  0.00  0.00    +0.000 OA
ATOM     16  C   UNL     1       4.703   5.636  17.593  0.00  0.00    +0.000 C 
ATOM     17  N   UNL     1       3.954   5.239  18.671  0.00  0.00    +0.000 N 
ATOM     18  H   UNL     1       4.444   4.796  19.433  0.00  0.00    +0.000 HD
BRANCH  17  19
ATOM     19  C   UNL     1       2.532   5.559  18.765  0.00  0.00    +0.000 C 
ATOM     20  C   UNL     1       1.667   4.663  17.863  0.00  0.00    +0.000 C 
ATOM     21  C   UNL     1       1.442   3.259  18.424  0.00  0.00    +0.000 C 
ATOM     22  C   UNL     1       0.932   3.295  19.860  0.00  0.00    +0.000 C 
ATOM     23  C   UNL     1       1.846   4.126  20.755  0.00  0.00    +0.000 C 
ATOM     24  C   UNL     1       2.023   5.542  20.211  0.00  0.00    +0.000 C 
ENDBRANCH  17  19
ENDBRANCH  14  16
ENDBRANCH   1  14
TORSDOF 6
ENDMDL
MODEL 3
REMARK VINA RESULT:      -7.8      4.985      6.745
REMARK  Name = 
REMARK  6 active torsions:
REMARK  status: ('A' for Active; 'I' for Inactive)
REMARK    1  A    between atoms: C_2  and  O_10
REMARK    2  A    between atoms: N_3  and  C_4
REMARK    3  A    between atoms: O_10  and  C_11
REMARK    4  A    between atoms: C_11  and  C_12
REMARK    5  A    between atoms: N_15  and  C_16
REMARK    6  A    between atoms: C_16  and  C_17
REMARK                            x       y       z     vdW  Elec       q    Type
REMARK                         _______ _______ _______ _____ _____    ______ ____
ROOT
ATOM      1  C   UNL     1       3.516   2.423  19.724  0.00  0.00    +0.000 C 
ENDROOT
BRANCH   1   2
ATOM      2  C   UNL     1       2.598   3.562  20.071  0.00  0.00    +0.000 A 
ATOM      3  N   UNL     1       1.224   3.465  20.030  0.00  0.00    +0.000 NA
ATOM      4  C   UNL     1       0.825   4.648  20.434  0.00  0.00    +0.000 A 
ATOM      5  N   UNL     1       1.904   5.438  20.686  0.00  0.00    +0.000 N 
ATOM      6  N   UNL     1       3.053   4.786  20.398  0.00  0.00    +0.000 NA
BRANCH   5   7
ATOM      7  C   UNL     1       1.900   6.826  21.118  0.00  0.00    +0.000 C 
BRANCH   7   8
ATOM      8  C   UNL     1       1.770   7.795  19.963  0.00  0.00    +0.000 A 
ATOM      9  C   UNL     1       1.054   8.991  20.111  0.00  0.00    +0.000 A 
ATOM     10  C   UNL     1       0.973   9.910  19.062  0.00  0.00    +0.000 A 
ATOM     11  C   UNL     1       1.614   9.648  17.854  0.00  0.00    +0.000 A 
ATOM     12  C   UNL     1       2.333   8.465  17.692  0.00  0.00    +0.000 A 
ATOM     13  C   UNL     1       2.412   7.542  18.739  0.00  0.00    +0.000 A 
ENDBRANCH   7   8
ENDBRANCH   5   7
ENDBRANCH   1   2
BRANCH   1  14
ATOM     14  O   UNL     1       3.330   1.849  18.406  0.00  0.00    +0.000 OA
BRANCH  14  16
ATOM     15  O   UNL     1       2.445   3.179  16.768  0.00  0.00    +0.000 OA
ATOM     16  C   UNL     1       3.406   2.746  17.394  0.00  0.00    +0.000 C 
ATOM     17  N   UNL     1       4.709   3.108  17.161  0.00  0.00    +0.000 N 
ATOM     18  H   UNL     1       5.426   2.526  17.565  0.00  0.00    +0.000 HD
BRANCH  17  19
ATOM     19  C   UNL     1       5.038   4.213  16.265  0.00  0.00    +0.000 C 
ATOM     20  C   UNL     1       4.697   5.584  16.871  0.00  0.00    +0.000 C 
ATOM     21  C   UNL     1       5.703   6.063  17.918  0.00  0.00    +0.000 C 
ATOM     22  C   UNL     1       7.135   6.003  17.399  0.00  0.00    +0.000 C 
ATOM     23  C   UNL     1       7.479   4.614  16.872  0.00  0.00    +0.000 C 
ATOM     24  C   UNL     1       6.496   4.166  15.792  0.00  0.00    +0.000 C 
ENDBRANCH  17  19
ENDBRANCH  14  16
ENDBRANCH   1  14
TORSDOF 6
ENDMDL
MODEL 4
REMARK VINA RESULT:      -7.8      0.862      1.478
REMARK  Name = 
REMARK  6 active torsions:
REMARK  status: ('A' for Active; 'I' for Inactive)
REMARK    1  A    between atoms: C_2  and  O_10
REMARK    2  A    between atoms: N_3  and  C_4
REMARK    3  A    between atoms: O_10  and  C_11
REMARK    4  A    between atoms: C_11  and  C_12
REMARK    5  A    between atoms: N_15  and  C_16
REMARK    6  A    between atoms: C_16  and  C_17
REMARK                            x       y       z     vdW  Elec       q    Type
REMARK                         _______ _______ _______ _____ _____    ______ ____
ROOT
ATOM      1  C   UNL     1       7.273   7.179  17.079  0.00  0.00    +0.000 C 
ENDROOT
BRANCH   1   2
ATOM      2  C   UNL     1       6.059   6.560  17.716  0.00  0.00    +0.000 A 
ATOM      3  N   UNL     1       6.128   5.574  18.675  0.00  0.00    +0.000 NA
ATOM      4  C   UNL     1       4.869   5.355  18.975  0.00  0.00    +0.000 A 
ATOM      5  N   UNL     1       4.068   6.151  18.216  0.00  0.00    +0.000 N 
ATOM      6  N   UNL     1       4.805   6.887  17.353  0.00  0.00    +0.000 NA
BRANCH   5   7
ATOM      7  C   UNL     1       2.615   6.196  18.213  0.00  0.00    +0.000 C 
BRANCH   7   8
ATOM      8  C   UNL     1       1.994   4.944  18.791  0.00  0.00    +0.000 A 
ATOM      9  C   UNL     1       1.760   3.822  17.982  0.00  0.00    +0.000 A 
ATOM     10  C   UNL     1       1.232   2.648  18.523  0.00  0.00    +0.000 A 
ATOM     11  C   UNL     1       0.937   2.576  19.881  0.00  0.00    +0.000 A 
ATOM     12  C   UNL     1       1.166   3.680  20.700  0.00  0.00    +0.000 A 
ATOM     13  C   UNL     1       1.691   4.859  20.161  0.00  0.00    +0.000 A 
ENDBRANCH   7   8
ENDBRANCH   5   7
ENDBRANCH   1   2
BRANCH   1  14
ATOM     14  O   UNL     1       7.410   8.611  17.257  0.00  0.00    +0.000 OA
BRANCH  14  16
ATOM     15  O   UNL     1       8.812   8.224  19.024  0.00  0.00    +0.000 OA
ATOM     16  C   UNL     1       8.342   8.970  18.172  0.00  0.00    +0.000 C 
ATOM     17  N   UNL     1       8.692  10.288  18.018  0.00  0.00    +0.000 N 
ATOM     18  H   UNL     1       8.085  10.862  17.453  0.00  0.00    +0.000 HD
BRANCH  17  19
ATOM     19  C   UNL     1       9.824  10.859  18.743  0.00  0.00    +0.000 C 
ATOM     20  C   UNL     1      10.820  11.570  17.812  0.00  0.00    +0.000 C 
ATOM     21  C   UNL     1      10.352  12.950  17.348  0.00  0.00    +0.000 C 
ATOM     22  C   UNL     1       9.928  13.830  18.518  0.00  0.00    +0.000 C 
ATOM     23  C   UNL     1       8.882  13.137  19.386  0.00  0.00    +0.000 C 
ATOM     24  C   UNL     1       9.380  11.782  19.884  0.00  0.00    +0.000 C 
ENDBRANCH  17  19
ENDBRANCH  14  16
ENDBRANCH   1  14
TORSDOF 6
ENDMDL
MODEL 5
REMARK VINA RESULT:      -7.7      1.793      9.492
REMARK  Name = 
REMARK  6 active torsions:
REMARK  status: ('A' for Active; 'I' for Inactive)
REMARK    1  A    between atoms: C_2  and  O_10
REMARK    2  A    between atoms: N_3  and  C_4
REMARK    3  A    between atoms: O_10  and  C_11
REMARK    4  A    between atoms: C_11  and  C_12
REMARK    5  A    between atoms: N_15  and  C_16
REMARK    6  A    between atoms: C_16  and  C_17
REMARK                            x       y       z     vdW  Elec       q    Type
REMARK                         _______ _______ _______ _____ _____    ______ ____
ROOT
ATOM      1  C   UNL     1       6.468   6.300  17.093  0.00  0.00    +0.000 C 
ENDROOT
BRANCH   1   2
ATOM      2  C   UNL     1       7.303   7.427  17.635  0.00  0.00    +0.000 A 
ATOM      3  N   UNL     1       8.259   7.258  18.612  0.00  0.00    +0.000 NA
ATOM      4  C   UNL     1       8.761   8.462  18.757  0.00  0.00    +0.000 A 
ATOM      5  N   UNL     1       8.124   9.330  17.925  0.00  0.00    +0.000 N 
ATOM      6  N   UNL     1       7.139   8.704  17.242  0.00  0.00    +0.000 NA
BRANCH   5   7
ATOM      7  C   UNL     1       8.353  10.760  17.799  0.00  0.00    +0.000 C 
BRANCH   7   8
ATOM      8  C   UNL     1       9.574  11.224  18.563  0.00  0.00    +0.000 A 
ATOM      9  C   UNL     1       9.502  11.475  19.941  0.00  0.00    +0.000 A 
ATOM     10  C   UNL     1      10.638  11.856  20.659  0.00  0.00    +0.000 A 
ATOM     11  C   UNL     1      11.863  11.983  20.010  0.00  0.00    +0.000 A 
ATOM     12  C   UNL     1      11.953  11.734  18.641  0.00  0.00    +0.000 A 
ATOM     13  C   UNL     1      10.816  11.356  17.920  0.00  0.00    +0.000 A 
ENDBRANCH   7   8
ENDBRANCH   5   7
ENDBRANCH   1   2
BRANCH   1  14
ATOM     14  O   UNL     1       5.185   6.105  17.741  0.00  0.00    +0.000 OA
BRANCH  14  16
ATOM     15  O   UNL     1       6.038   4.236  18.748  0.00  0.00    +0.000 OA
ATOM     16  C   UNL     1       5.091   4.958  18.454  0.00  0.00    +0.000 C 
ATOM     17  N   UNL     1       3.789   4.711  18.809  0.00  0.00    +0.000 N 
ATOM     18  H   UNL     1       3.075   5.231  18.324  0.00  0.00    +0.000 HD
BRANCH  17  19
ATOM     19  C   UNL     1       3.451   3.650  19.754  0.00  0.00    +0.000 C 
ATOM     20  C   UNL     1       2.370   4.081  20.758  0.00  0.00    +0.000 C 
ATOM     21  C   UNL     1       0.956   4.086  20.177  0.00  0.00    +0.000 C 
ATOM     22  C   UNL     1       0.616   2.765  19.495  0.00  0.00    +0.000 C 
ATOM     23  C   UNL     1       1.661   2.393  18.448  0.00  0.00    +0.000 C 
ATOM     24  C   UNL     1       3.063   2.343  19.052  0.00  0.00    +0.000 C 
ENDBRANCH  17  19
ENDBRANCH  14  16
ENDBRANCH   1  14
TORSDOF 6
ENDMDL
MODEL 6
REMARK VINA RESULT:      -7.7      0.824      1.224
REMARK  Name = 
REMARK  6 active torsions:
REMARK  status: ('A' for Active; 'I' for Inactive)
REMARK    1  A    between atoms: C_2  and  O_10
REMARK    2  A    between atoms: N_3  and  C_4
REMARK    3  A    between atoms: O_10  and  C_11
REMARK    4  A    between atoms: C_11  and  C_12
REMARK    5  A    between atoms: N_15  and  C_16
REMARK    6  A    between atoms: C_16  and  C_17
REMARK                            x       y       z     vdW  Elec       q    Type
REMARK                         _______ _______ _______ _____ _____    ______ ____
ROOT
ATOM      1  C   UNL     1       7.758   7.621  17.413  0.00  0.00    +0.000 C 
ENDROOT
BRANCH   1   2
ATOM      2  C   UNL     1       6.772   6.555  17.802  0.00  0.00    +0.000 A 
ATOM      3  N   UNL     1       6.949   5.717  18.881  0.00  0.00    +0.000 NA
ATOM      4  C   UNL     1       5.860   4.985  18.878  0.00  0.00    +0.000 A 
ATOM      5  N   UNL     1       5.067   5.341  17.832  0.00  0.00    +0.000 N 
ATOM      6  N   UNL     1       5.659   6.303  17.087  0.00  0.00    +0.000 NA
BRANCH   5   7
ATOM      7  C   UNL     1       3.792   4.756  17.450  0.00  0.00    +0.000 C 
BRANCH   7   8
ATOM      8  C   UNL     1       2.938   4.394  18.646  0.00  0.00    +0.000 A 
ATOM      9  C   UNL     1       2.389   5.394  19.461  0.00  0.00    +0.000 A 
ATOM     10  C   UNL     1       1.561   5.066  20.537  0.00  0.00    +0.000 A 
ATOM     11  C   UNL     1       1.264   3.733  20.807  0.00  0.00    +0.000 A 
ATOM     12  C   UNL     1       1.799   2.726  20.005  0.00  0.00    +0.000 A 
ATOM     13  C   UNL     1       2.632   3.053  18.929  0.00  0.00    +0.000 A 
ENDBRANCH   7   8
ENDBRANCH   5   7
ENDBRANCH   1   2
BRANCH   1  14
ATOM     14  O   UNL     1       8.431   8.282  18.515  0.00  0.00    +0.000 OA
BRANCH  14  16
ATOM     15  O   UNL     1       7.836  10.304  17.625  0.00  0.00    +0.000 OA
ATOM     16  C   UNL     1       8.518   9.627  18.387  0.00  0.00    +0.000 C 
ATOM     17  N   UNL     1       9.474  10.135  19.229  0.00  0.00    +0.000 N 
ATOM     18  H   UNL     1      10.127   9.481  19.631  0.00  0.00    +0.000 HD
BRANCH  17  19
ATOM     19  C   UNL     1       9.615  11.575  19.432  0.00  0.00    +0.000 C 
ATOM     20  C   UNL     1      10.670  11.918  20.496  0.00  0.00    +0.000 C 
ATOM     21  C   UNL     1      12.111  11.793  19.999  0.00  0.00    +0.000 C 
ATOM     22  C   UNL     1      12.332  12.559  18.700  0.00  0.00    +0.000 C 
ATOM     23  C   UNL     1      11.324  12.149  17.632  0.00  0.00    +0.000 C 
ATOM     24  C   UNL     1       9.888  12.325  18.123  0.00  0.00    +0.000 C 
ENDBRANCH  17  19
ENDBRANCH  14  16
ENDBRANCH   1  14
TORSDOF 6
ENDMDL
MODEL 7
REMARK VINA RESULT:      -7.7      4.703      7.267
REMARK  Name = 
REMARK  6 active torsions:
REMARK  status: ('A' for Active; 'I' for Inactive)
REMARK    1  A    between atoms: C_2  and  O_10
REMARK    2  A    between atoms: N_3  and  C_4
REMARK    3  A    between atoms: O_10  and  C_11
REMARK    4  A    between atoms: C_11  and  C_12
REMARK    5  A    between atoms: N_15  and  C_16
REMARK    6  A    between atoms: C_16  and  C_17
REMARK                            x       y       z     vdW  Elec       q    Type
REMARK                         _______ _______ _______ _____ _____    ______ ____
ROOT
ATOM      1  C   UNL     1       7.054   4.988  16.942  0.00  0.00    +0.000 C 
ENDROOT
BRANCH   1   2
ATOM      2  C   UNL     1       5.792   5.702  17.341  0.00  0.00    +0.000 A 
ATOM      3  N   UNL     1       5.252   6.743  16.619  0.00  0.00    +0.000 NA
ATOM      4  C   UNL     1       4.160   7.039  17.286  0.00  0.00    +0.000 A 
ATOM      5  N   UNL     1       4.053   6.234  18.377  0.00  0.00    +0.000 N 
ATOM      6  N   UNL     1       5.122   5.410  18.471  0.00  0.00    +0.000 NA
BRANCH   5   7
ATOM      7  C   UNL     1       3.013   6.256  19.392  0.00  0.00    +0.000 C 
BRANCH   7   8
ATOM      8  C   UNL     1       2.259   4.948  19.482  0.00  0.00    +0.000 A 
ATOM      9  C   UNL     1       1.897   4.415  20.727  0.00  0.00    +0.000 A 
ATOM     10  C   UNL     1       1.160   3.232  20.812  0.00  0.00    +0.000 A 
ATOM     11  C   UNL     1       0.768   2.569  19.652  0.00  0.00    +0.000 A 
ATOM     12  C   UNL     1       1.117   3.087  18.406  0.00  0.00    +0.000 A 
ATOM     13  C   UNL     1       1.859   4.269  18.319  0.00  0.00    +0.000 A 
ENDBRANCH   7   8
ENDBRANCH   5   7
ENDBRANCH   1   2
BRANCH   1  14
ATOM     14  O   UNL     1       6.900   3.971  15.920  0.00  0.00    +0.000 OA
BRANCH  14  16
ATOM     15  O   UNL     1       7.646   5.433  14.327  0.00  0.00    +0.000 OA
ATOM     16  C   UNL     1       7.016   4.434  14.653  0.00  0.00    +0.000 C 
ATOM     17  N   UNL     1       6.331   3.630  13.777  0.00  0.00    +0.000 N 
ATOM     18  H   UNL     1       5.665   2.984  14.171  0.00  0.00    +0.000 HD
BRANCH  17  19
ATOM     19  C   UNL     1       6.471   3.794  12.333  0.00  0.00    +0.000 C 
ATOM     20  C   UNL     1       7.078   2.555  11.656  0.00  0.00    +0.000 C 
ATOM     21  C   UNL     1       6.089   1.401  11.482  0.00  0.00    +0.000 C 
ATOM     22  C   UNL     1       4.800   1.854  10.806  0.00  0.00    +0.000 C 
ATOM     23  C   UNL     1       4.172   3.036  11.537  0.00  0.00    +0.000 C 
ATOM     24  C   UNL     1       5.153   4.200  11.661  0.00  0.00    +0.000 C 
ENDBRANCH  17  19
ENDBRANCH  14  16
ENDBRANCH   1  14
TORSDOF 6
ENDMDL
MODEL 8
REMARK VINA RESULT:      -7.6      4.697      7.118
REMARK  Name = 
REMARK  6 active torsions:
REMARK  status: ('A' for Active; 'I' for Inactive)
REMARK    1  A    between atoms: C_2  and  O_10
REMARK    2  A    between atoms: N_3  and  C_4
REMARK    3  A    between atoms: O_10  and  C_11
REMARK    4  A    between atoms: C_11  and  C_12
REMARK    5  A    between atoms: N_15  and  C_16
REMARK    6  A    between atoms: C_16  and  C_17
REMARK                            x       y       z     vdW  Elec       q    Type
REMARK                         _______ _______ _______ _____ _____    ______ ____
ROOT
ATOM      1  C   UNL     1       7.446   4.894  16.737  0.00  0.00    +0.000 C 
ENDROOT
BRANCH   1   2
ATOM      2  C   UNL     1       6.369   5.110  17.764  0.00  0.00    +0.000 A 
ATOM      3  N   UNL     1       6.552   4.883  19.110  0.00  0.00    +0.000 NA
ATOM      4  C   UNL     1       5.399   5.227  19.634  0.00  0.00    +0.000 A 
ATOM      5  N   UNL     1       4.544   5.622  18.652  0.00  0.00    +0.000 N 
ATOM      6  N   UNL     1       5.122   5.494  17.435  0.00  0.00    +0.000 NA
BRANCH   5   7
ATOM      7  C   UNL     1       3.162   6.047  18.802  0.00  0.00    +0.000 C 
BRANCH   7   8
ATOM      8  C   UNL     1       2.230   4.897  19.110  0.00  0.00    +0.000 A 
ATOM      9  C   UNL     1       1.922   3.944  18.128  0.00  0.00    +0.000 A 
ATOM     10  C   UNL     1       1.100   2.853  18.423  0.00  0.00    +0.000 A 
ATOM     11  C   UNL     1       0.582   2.697  19.705  0.00  0.00    +0.000 A 
ATOM     12  C   UNL     1       0.880   3.633  20.693  0.00  0.00    +0.000 A 
ATOM     13  C   UNL     1       1.699   4.728  20.400  0.00  0.00    +0.000 A 
ENDBRANCH   7   8
ENDBRANCH   5   7
ENDBRANCH   1   2
BRANCH   1  14
ATOM     14  O   UNL     1       7.145   3.911  15.714  0.00  0.00    +0.000 OA
BRANCH  14  16
ATOM     15  O   UNL     1       7.453   5.495  14.092  0.00  0.00    +0.000 OA
ATOM     16  C   UNL     1       6.978   4.431  14.475  0.00  0.00    +0.000 C 
ATOM     17  N   UNL     1       6.203   3.605  13.701  0.00  0.00    +0.000 N 
ATOM     18  H   UNL     1       5.679   2.888  14.177  0.00  0.00    +0.000 HD
BRANCH  17  19
ATOM     19  C   UNL     1       6.049   3.837  12.267  0.00  0.00    +0.000 C 
ATOM     20  C   UNL     1       7.371   3.673  11.499  0.00  0.00    +0.000 C 
ATOM     21  C   UNL     1       7.776   2.216  11.274  0.00  0.00    +0.000 C 
ATOM     22  C   UNL     1       6.646   1.401  10.656  0.00  0.00    +0.000 C 
ATOM     23  C   UNL     1       5.364   1.515  11.475  0.00  0.00    +0.000 C 
ATOM     24  C   UNL     1       4.942   2.972  11.651  0.00  0.00    +0.000 C 
ENDBRANCH  17  19
ENDBRANCH  14  16
ENDBRANCH   1  14
TORSDOF 6
ENDMDL
MODEL 9
REMARK VINA RESULT:      -7.5      1.841      9.446
REMARK  Name = 
REMARK  6 active torsions:
REMARK  status: ('A' for Active; 'I' for Inactive)
REMARK    1  A    between atoms: C_2  and  O_10
REMARK    2  A    between atoms: N_3  and  C_4
REMARK    3  A    between atoms: O_10  and  C_11
REMARK    4  A    between atoms: C_11  and  C_12
REMARK    5  A    between atoms: N_15  and  C_16
REMARK    6  A    between atoms: C_16  and  C_17
REMARK                            x       y       z     vdW  Elec       q    Type
REMARK                         _______ _______ _______ _____ _____    ______ ____
ROOT
ATOM      1  C   UNL     1       7.547   5.759  18.061  0.00  0.00    +0.000 C 
ENDROOT
BRANCH   1   2
ATOM      2  C   UNL     1       7.873   7.226  18.090  0.00  0.00    +0.000 A 
ATOM      3  N   UNL     1       7.461   8.112  17.119  0.00  0.00    +0.000 NA
ATOM      4  C   UNL     1       7.922   9.265  17.546  0.00  0.00    +0.000 A 
ATOM      5  N   UNL     1       8.604   9.088  18.709  0.00  0.00    +0.000 N 
ATOM      6  N   UNL     1       8.643   7.779  19.046  0.00  0.00    +0.000 NA
BRANCH   5   7
ATOM      7  C   UNL     1       9.296  10.100  19.490  0.00  0.00    +0.000 C 
BRANCH   7   8
ATOM      8  C   UNL     1       9.772  11.261  18.645  0.00  0.00    +0.000 A 
ATOM      9  C   UNL     1       8.953  12.382  18.444  0.00  0.00    +0.000 A 
ATOM     10  C   UNL     1       9.406  13.477  17.705  0.00  0.00    +0.000 A 
ATOM     11  C   UNL     1      10.689  13.469  17.164  0.00  0.00    +0.000 A 
ATOM     12  C   UNL     1      11.517  12.365  17.356  0.00  0.00    +0.000 A 
ATOM     13  C   UNL     1      11.063  11.266  18.092  0.00  0.00    +0.000 A 
ENDBRANCH   7   8
ENDBRANCH   5   7
ENDBRANCH   1   2
BRANCH   1  14
ATOM     14  O   UNL     1       6.517   5.329  18.986  0.00  0.00    +0.000 OA
BRANCH  14  16
ATOM     15  O   UNL     1       5.106   5.090  17.201  0.00  0.00    +0.000 OA
ATOM     16  C   UNL     1       5.358   4.957  18.393  0.00  0.00    +0.000 C 
ATOM     17  N   UNL     1       4.497   4.408  19.309  0.00  0.00    +0.000 N 
ATOM     18  H   UNL     1       4.705   4.560  20.284  0.00  0.00    +0.000 HD
BRANCH  17  19
ATOM     19  C   UNL     1       3.268   3.741  18.888  0.00  0.00    +0.000 C 
ATOM     20  C   UNL     1       3.035   2.414  19.628  0.00  0.00    +0.000 C 
ATOM     21  C   UNL     1       2.514   2.587  21.055  0.00  0.00    +0.000 C 
ATOM     22  C   UNL     1       1.293   3.498  21.108  0.00  0.00    +0.000 C 
ATOM     23  C   UNL     1       1.569   4.839  20.435  0.00  0.00    +0.000 C 
ATOM     24  C   UNL     1       2.041   4.655  18.995  0.00  0.00    +0.000 C 
ENDBRANCH  17  19
ENDBRANCH  14  16
ENDBRANCH   1  14
TORSDOF 6
ENDMDL
