MODEL 1
REMARK VINA RESULT:      -7.2      0.000      0.000
REMARK  Name = 
REMARK  3 active torsions:
REMARK  status: ('A' for Active; 'I' for Inactive)
REMARK    1  A    between atoms: C_7  and  C_8
REMARK    2  A    between atoms: C_8  and  N_9
REMARK    3  A    between atoms: N_12  and  C_13
REMARK                            x       y       z     vdW  Elec       q    Type
REMARK                         _______ _______ _______ _____ _____    ______ ____
ROOT
ATOM      1  C   UNL     1       3.796   4.188  19.459  0.00  0.00    +0.000 C 
ENDROOT
BRANCH   1   8
ATOM      2 CL   UNL     1       7.325   4.798  14.058  0.00  0.00    +0.000 Cl
ATOM      3  C   UNL     1       6.908   5.218  15.658  0.00  0.00    +0.000 A 
ATOM      4  N   UNL     1       7.539   6.290  16.179  0.00  0.00    +0.000 NA
ATOM      5  C   UNL     1       7.231   6.669  17.438  0.00  0.00    +0.000 A 
ATOM      6  C   UNL     1       6.296   6.043  18.250  0.00  0.00    +0.000 A 
ATOM      7  C   UNL     1       5.622   4.936  17.709  0.00  0.00    +0.000 A 
ATOM      8  C   UNL     1       4.573   4.074  18.170  0.00  0.00    +0.000 A 
ATOM      9  C   UNL     1       4.354   3.156  17.153  0.00  0.00    +0.000 A 
ATOM     10  N   UNL     1       5.197   3.434  16.116  0.00  0.00    +0.000 N 
ATOM     11  C   UNL     1       5.965   4.539  16.415  0.00  0.00    +0.000 A 
ATOM     12  H   UNL     1       5.244   2.925  15.241  0.00  0.00    +0.000 HD
ENDBRANCH   1   8
BRANCH   1  13
ATOM     13  N   UNL     1       2.438   4.647  19.173  0.00  0.00    +0.000 NA
ATOM     14  C   UNL     1       1.594   4.811  20.376  0.00  0.00    +0.000 C 
ATOM     15  C   UNL     1       1.630   6.178  21.125  0.00  0.00    +0.000 C 
ATOM     16  N   UNL     1       1.676   7.321  20.196  0.00  0.00    +0.000 N 
ATOM     17  C   UNL     1       2.642   7.195  19.101  0.00  0.00    +0.000 C 
ATOM     18  C   UNL     1       2.405   5.869  18.352  0.00  0.00    +0.000 C 
BRANCH  16  19
ATOM     19  C   UNL     1       1.177   8.568  20.546  0.00  0.00    +0.000 A 
ATOM     20  C   UNL     1       0.921   9.575  19.598  0.00  0.00    +0.000 A 
ATOM     21  C   UNL     1       0.263  10.766  19.934  0.00  0.00    +0.000 A 
ATOM     22  C   UNL     1      -0.144  10.991  21.243  0.00  0.00    +0.000 A 
ATOM     23  C   UNL     1       0.140  10.036  22.215  0.00  0.00    +0.000 A 
ATOM     24  C   UNL     1       0.795   8.849  21.868  0.00  0.00    +0.000 A 
ENDBRANCH  16  19
ENDBRANCH   1  13
TORSDOF 3
ENDMDL
MODEL 2
REMARK VINA RESULT:      -7.2      0.630      1.238
REMARK  Name = 
REMARK  3 active torsions:
REMARK  status: ('A' for Active; 'I' for Inactive)
REMARK    1  A    between atoms: C_7  and  C_8
REMARK    2  A    between atoms: C_8  and  N_9
REMARK    3  A    between atoms: N_12  and  C_13
REMARK                            x       y       z     vdW  Elec       q    Type
REMARK                         _______ _______ _______ _____ _____    ______ ____
ROOT
ATOM      1  C   UNL     1       3.814   4.559  19.607  0.00  0.00    +0.000 C 
ENDROOT
BRANCH   1   8
ATOM      2 CL   UNL     1       7.166   4.477  14.063  0.00  0.00    +0.000 Cl
ATOM      3  C   UNL     1       6.819   5.077  15.621  0.00  0.00    +0.000 A 
ATOM      4  N   UNL     1       7.501   6.176  16.005  0.00  0.00    +0.000 NA
ATOM      5  C   UNL     1       7.249   6.696  17.225  0.00  0.00    +0.000 A 
ATOM      6  C   UNL     1       6.324   6.190  18.129  0.00  0.00    +0.000 A 
ATOM      7  C   UNL     1       5.599   5.056  17.730  0.00  0.00    +0.000 A 
ATOM      8  C   UNL     1       4.541   4.283  18.314  0.00  0.00    +0.000 A 
ATOM      9  C   UNL     1       4.258   3.271  17.408  0.00  0.00    +0.000 A 
ATOM     10  N   UNL     1       5.073   3.410  16.321  0.00  0.00    +0.000 N 
ATOM     11  C   UNL     1       5.883   4.514  16.476  0.00  0.00    +0.000 A 
ATOM     12  H   UNL     1       5.072   2.810  15.504  0.00  0.00    +0.000 HD
ENDBRANCH   1   8
BRANCH   1  13
ATOM     13  N   UNL     1       2.435   4.949  19.321  0.00  0.00    +0.000 NA
ATOM     14  C   UNL     1       1.680   5.403  20.509  0.00  0.00    +0.000 C 
ATOM     15  C   UNL     1       1.759   6.909  20.905  0.00  0.00    +0.000 C 
ATOM     16  N   UNL     1       1.726   7.796  19.728  0.00  0.00    +0.000 N 
ATOM     17  C   UNL     1       2.610   7.403  18.627  0.00  0.00    +0.000 C 
ATOM     18  C   UNL     1       2.331   5.938  18.236  0.00  0.00    +0.000 C 
BRANCH  16  19
ATOM     19  C   UNL     1       1.243   9.095  19.806  0.00  0.00    +0.000 A 
ATOM     20  C   UNL     1       0.808   9.670  21.014  0.00  0.00    +0.000 A 
ATOM     21  C   UNL     1       0.480  11.029  21.116  0.00  0.00    +0.000 A 
ATOM     22  C   UNL     1       0.563  11.852  20.000  0.00  0.00    +0.000 A 
ATOM     23  C   UNL     1       0.940  11.301  18.779  0.00  0.00    +0.000 A 
ATOM     24  C   UNL     1       1.268   9.944  18.688  0.00  0.00    +0.000 A 
ENDBRANCH  16  19
ENDBRANCH   1  13
TORSDOF 3
ENDMDL
MODEL 3
REMARK VINA RESULT:      -7.1      0.897      1.087
REMARK  Name = 
REMARK  3 active torsions:
REMARK  status: ('A' for Active; 'I' for Inactive)
REMARK    1  A    between atoms: C_7  and  C_8
REMARK    2  A    between atoms: C_8  and  N_9
REMARK    3  A    between atoms: N_12  and  C_13
REMARK                            x       y       z     vdW  Elec       q    Type
REMARK                         _______ _______ _______ _____ _____    ______ ____
ROOT
ATOM      1  C   UNL     1       3.850   5.264  19.716  0.00  0.00    +0.000 C 
ENDROOT
BRANCH   1   8
ATOM      2 CL   UNL     1       6.921   4.004  14.150  0.00  0.00    +0.000 Cl
ATOM      3  C   UNL     1       6.687   4.884  15.593  0.00  0.00    +0.000 A 
ATOM      4  N   UNL     1       7.455   5.981  15.755  0.00  0.00    +0.000 NA
ATOM      5  C   UNL     1       7.295   6.718  16.876  0.00  0.00    +0.000 A 
ATOM      6  C   UNL     1       6.385   6.439  17.887  0.00  0.00    +0.000 A 
ATOM      7  C   UNL     1       5.571   5.308  17.717  0.00  0.00    +0.000 A 
ATOM      8  C   UNL     1       4.496   4.722  18.464  0.00  0.00    +0.000 A 
ATOM      9  C   UNL     1       4.107   3.593  17.757  0.00  0.00    +0.000 A 
ATOM     10  N   UNL     1       4.875   3.487  16.634  0.00  0.00    +0.000 N 
ATOM     11  C   UNL     1       5.760   4.541  16.566  0.00  0.00    +0.000 A 
ATOM     12  H   UNL     1       4.797   2.759  15.934  0.00  0.00    +0.000 HD
ENDBRANCH   1   8
BRANCH   1  13
ATOM     13  N   UNL     1       2.432   5.513  19.468  0.00  0.00    +0.000 NA
ATOM     14  C   UNL     1       1.688   5.985  20.656  0.00  0.00    +0.000 C 
ATOM     15  C   UNL     1       1.648   7.517  20.945  0.00  0.00    +0.000 C 
ATOM     16  N   UNL     1       1.490   8.311  19.713  0.00  0.00    +0.000 N 
ATOM     17  C   UNL     1       2.361   7.918  18.602  0.00  0.00    +0.000 C 
ATOM     18  C   UNL     1       2.197   6.410  18.325  0.00  0.00    +0.000 C 
BRANCH  16  19
ATOM     19  C   UNL     1       0.897   9.567  19.725  0.00  0.00    +0.000 A 
ATOM     20  C   UNL     1       0.244  10.105  18.602  0.00  0.00    +0.000 A 
ATOM     21  C   UNL     1      -0.494  11.295  18.670  0.00  0.00    +0.000 A 
ATOM     22  C   UNL     1      -0.585  11.992  19.868  0.00  0.00    +0.000 A 
ATOM     23  C   UNL     1       0.092  11.511  20.984  0.00  0.00    +0.000 A 
ATOM     24  C   UNL     1       0.825  10.321  20.907  0.00  0.00    +0.000 A 
ENDBRANCH  16  19
ENDBRANCH   1  13
TORSDOF 3
ENDMDL
MODEL 4
REMARK VINA RESULT:      -6.9      2.803      5.151
REMARK  Name = 
REMARK  3 active torsions:
REMARK  status: ('A' for Active; 'I' for Inactive)
REMARK    1  A    between atoms: C_7  and  C_8
REMARK    2  A    between atoms: C_8  and  N_9
REMARK    3  A    between atoms: N_12  and  C_13
REMARK                            x       y       z     vdW  Elec       q    Type
REMARK                         _______ _______ _______ _____ _____    ______ ____
ROOT
ATOM      1  C   UNL     1       1.610   8.499  20.903  0.00  0.00    +0.000 C 
ENDROOT
BRANCH   1   8
ATOM      2 CL   UNL     1       3.561   3.616  17.115  0.00  0.00    +0.000 Cl
ATOM      3  C   UNL     1       2.883   4.255  18.544  0.00  0.00    +0.000 A 
ATOM      4  N   UNL     1       2.627   3.373  19.532  0.00  0.00    +0.000 NA
ATOM      5  C   UNL     1       2.103   3.835  20.687  0.00  0.00    +0.000 A 
ATOM      6  C   UNL     1       1.809   5.166  20.951  0.00  0.00    +0.000 A 
ATOM      7  C   UNL     1       2.088   6.092  19.934  0.00  0.00    +0.000 A 
ATOM      8  C   UNL     1       1.999   7.520  19.822  0.00  0.00    +0.000 A 
ATOM      9  C   UNL     1       2.427   7.833  18.540  0.00  0.00    +0.000 A 
ATOM     10  N   UNL     1       2.776   6.681  17.895  0.00  0.00    +0.000 N 
ATOM     11  C   UNL     1       2.609   5.602  18.735  0.00  0.00    +0.000 A 
ATOM     12  H   UNL     1       3.130   6.620  16.948  0.00  0.00    +0.000 HD
ENDBRANCH   1   8
BRANCH   1  13
ATOM     13  N   UNL     1       0.166   8.721  20.865  0.00  0.00    +0.000 NA
ATOM     14  C   UNL     1      -0.496   8.591  22.181  0.00  0.00    +0.000 C 
ATOM     15  C   UNL     1      -0.578   9.851  23.097  0.00  0.00    +0.000 C 
ATOM     16  N   UNL     1      -0.874  11.076  22.332  0.00  0.00    +0.000 N 
ATOM     17  C   UNL     1      -0.083  11.254  21.111  0.00  0.00    +0.000 C 
ATOM     18  C   UNL     1      -0.203   9.996  20.228  0.00  0.00    +0.000 C 
BRANCH  16  19
ATOM     19  C   UNL     1      -1.519  12.161  22.911  0.00  0.00    +0.000 A 
ATOM     20  C   UNL     1      -0.972  13.456  22.907  0.00  0.00    +0.000 A 
ATOM     21  C   UNL     1      -1.700  14.573  23.342  0.00  0.00    +0.000 A 
ATOM     22  C   UNL     1      -2.997  14.419  23.813  0.00  0.00    +0.000 A 
ATOM     23  C   UNL     1      -3.547  13.143  23.877  0.00  0.00    +0.000 A 
ATOM     24  C   UNL     1      -2.814  12.035  23.438  0.00  0.00    +0.000 A 
ENDBRANCH  16  19
ENDBRANCH   1  13
TORSDOF 3
ENDMDL
MODEL 5
REMARK VINA RESULT:      -6.7      0.933      1.429
REMARK  Name = 
REMARK  3 active torsions:
REMARK  status: ('A' for Active; 'I' for Inactive)
REMARK    1  A    between atoms: C_7  and  C_8
REMARK    2  A    between atoms: C_8  and  N_9
REMARK    3  A    between atoms: N_12  and  C_13
REMARK                            x       y       z     vdW  Elec       q    Type
REMARK                         _______ _______ _______ _____ _____    ______ ____
ROOT
ATOM      1  C   UNL     1       3.730   5.588  19.453  0.00  0.00    +0.000 C 
ENDROOT
BRANCH   1   8
ATOM      2 CL   UNL     1       6.690   4.052  13.897  0.00  0.00    +0.000 Cl
ATOM      3  C   UNL     1       6.565   4.907  15.368  0.00  0.00    +0.000 A 
ATOM      4  N   UNL     1       7.492   5.863  15.585  0.00  0.00    +0.000 NA
ATOM      5  C   UNL     1       7.424   6.576  16.730  0.00  0.00    +0.000 A 
ATOM      6  C   UNL     1       6.459   6.410  17.713  0.00  0.00    +0.000 A 
ATOM      7  C   UNL     1       5.481   5.429  17.487  0.00  0.00    +0.000 A 
ATOM      8  C   UNL     1       4.310   4.994  18.193  0.00  0.00    +0.000 A 
ATOM      9  C   UNL     1       3.765   3.967  17.437  0.00  0.00    +0.000 A 
ATOM     10  N   UNL     1       4.532   3.779  16.324  0.00  0.00    +0.000 N 
ATOM     11  C   UNL     1       5.573   4.682  16.311  0.00  0.00    +0.000 A 
ATOM     12  H   UNL     1       4.357   3.097  15.595  0.00  0.00    +0.000 HD
ENDBRANCH   1   8
BRANCH   1  13
ATOM     13  N   UNL     1       2.296   5.812  19.273  0.00  0.00    +0.000 NA
ATOM     14  C   UNL     1       1.512   5.709  20.523  0.00  0.00    +0.000 C 
ATOM     15  C   UNL     1       1.347   6.986  21.402  0.00  0.00    +0.000 C 
ATOM     16  N   UNL     1       1.130   8.197  20.590  0.00  0.00    +0.000 N 
ATOM     17  C   UNL     1       2.034   8.350  19.446  0.00  0.00    +0.000 C 
ATOM     18  C   UNL     1       1.994   7.075  18.580  0.00  0.00    +0.000 C 
BRANCH  16  19
ATOM     19  C   UNL     1       0.437   9.294  21.083  0.00  0.00    +0.000 A 
ATOM     20  C   UNL     1      -0.189   9.289  22.343  0.00  0.00    +0.000 A 
ATOM     21  C   UNL     1      -0.741  10.449  22.904  0.00  0.00    +0.000 A 
ATOM     22  C   UNL     1      -0.697  11.649  22.207  0.00  0.00    +0.000 A 
ATOM     23  C   UNL     1      -0.130  11.675  20.937  0.00  0.00    +0.000 A 
ATOM     24  C   UNL     1       0.420  10.512  20.386  0.00  0.00    +0.000 A 
ENDBRANCH  16  19
ENDBRANCH   1  13
TORSDOF 3
ENDMDL
MODEL 6
REMARK VINA RESULT:      -6.7      1.497      2.416
REMARK  Name = 
REMARK  3 active torsions:
REMARK  status: ('A' for Active; 'I' for Inactive)
REMARK    1  A    between atoms: C_7  and  C_8
REMARK    2  A    between atoms: C_8  and  N_9
REMARK    3  A    between atoms: N_12  and  C_13
REMARK                            x       y       z     vdW  Elec       q    Type
REMARK                         _______ _______ _______ _____ _____    ______ ____
ROOT
ATOM      1  C   UNL     1       5.241   4.360  18.233  0.00  0.00    +0.000 C 
ENDROOT
BRANCH   1   8
ATOM      2 CL   UNL     1       8.620   5.839  12.905  0.00  0.00    +0.000 Cl
ATOM      3  C   UNL     1       7.366   5.035  13.737  0.00  0.00    +0.000 A 
ATOM      4  N   UNL     1       6.654   4.139  13.023  0.00  0.00    +0.000 NA
ATOM      5  C   UNL     1       5.660   3.467  13.643  0.00  0.00    +0.000 A 
ATOM      6  C   UNL     1       5.310   3.619  14.978  0.00  0.00    +0.000 A 
ATOM      7  C   UNL     1       6.058   4.537  15.731  0.00  0.00    +0.000 A 
ATOM      8  C   UNL     1       6.068   4.936  17.109  0.00  0.00    +0.000 A 
ATOM      9  C   UNL     1       7.056   5.903  17.223  0.00  0.00    +0.000 A 
ATOM     10  N   UNL     1       7.638   6.088  16.003  0.00  0.00    +0.000 N 
ATOM     11  C   UNL     1       7.069   5.243  15.075  0.00  0.00    +0.000 A 
ATOM     12  H   UNL     1       8.394   6.732  15.802  0.00  0.00    +0.000 HD
ENDBRANCH   1   8
BRANCH   1  13
ATOM     13  N   UNL     1       3.822   4.581  17.960  0.00  0.00    +0.000 NA
ATOM     14  C   UNL     1       2.948   4.389  19.137  0.00  0.00    +0.000 C 
ATOM     15  C   UNL     1       2.698   5.605  20.081  0.00  0.00    +0.000 C 
ATOM     16  N   UNL     1       2.525   6.863  19.334  0.00  0.00    +0.000 N 
ATOM     17  C   UNL     1       3.510   7.099  18.274  0.00  0.00    +0.000 C 
ATOM     18  C   UNL     1       3.554   5.883  17.328  0.00  0.00    +0.000 C 
BRANCH  16  19
ATOM     19  C   UNL     1       1.780   7.919  19.843  0.00  0.00    +0.000 A 
ATOM     20  C   UNL     1       1.435   9.043  19.071  0.00  0.00    +0.000 A 
ATOM     21  C   UNL     1       0.547  10.022  19.537  0.00  0.00    +0.000 A 
ATOM     22  C   UNL     1      -0.011   9.910  20.804  0.00  0.00    +0.000 A 
ATOM     23  C   UNL     1       0.350   8.836  21.611  0.00  0.00    +0.000 A 
ATOM     24  C   UNL     1       1.236   7.862  21.136  0.00  0.00    +0.000 A 
ENDBRANCH  16  19
ENDBRANCH   1  13
TORSDOF 3
ENDMDL
MODEL 7
REMARK VINA RESULT:      -6.7      2.659      4.210
REMARK  Name = 
REMARK  3 active torsions:
REMARK  status: ('A' for Active; 'I' for Inactive)
REMARK    1  A    between atoms: C_7  and  C_8
REMARK    2  A    between atoms: C_8  and  N_9
REMARK    3  A    between atoms: N_12  and  C_13
REMARK                            x       y       z     vdW  Elec       q    Type
REMARK                         _______ _______ _______ _____ _____    ______ ____
ROOT
ATOM      1  C   UNL     1       1.973   6.297  18.041  0.00  0.00    +0.000 C 
ENDROOT
BRANCH   1   8
ATOM      2 CL   UNL     1       5.088   1.398  20.920  0.00  0.00    +0.000 Cl
ATOM      3  C   UNL     1       3.773   2.470  20.743  0.00  0.00    +0.000 A 
ATOM      4  N   UNL     1       2.823   2.413  21.699  0.00  0.00    +0.000 NA
ATOM      5  C   UNL     1       1.769   3.252  21.609  0.00  0.00    +0.000 A 
ATOM      6  C   UNL     1       1.584   4.190  20.602  0.00  0.00    +0.000 A 
ATOM      7  C   UNL     1       2.576   4.266  19.613  0.00  0.00    +0.000 A 
ATOM      8  C   UNL     1       2.798   5.109  18.473  0.00  0.00    +0.000 A 
ATOM      9  C   UNL     1       3.976   4.666  17.890  0.00  0.00    +0.000 A 
ATOM     10  N   UNL     1       4.470   3.626  18.623  0.00  0.00    +0.000 N 
ATOM     11  C   UNL     1       3.651   3.379  19.703  0.00  0.00    +0.000 A 
ATOM     12  H   UNL     1       5.325   3.119  18.426  0.00  0.00    +0.000 HD
ENDBRANCH   1   8
BRANCH   1  13
ATOM     13  N   UNL     1       2.548   7.521  18.594  0.00  0.00    +0.000 NA
ATOM     14  C   UNL     1       1.977   8.762  18.029  0.00  0.00    +0.000 C 
ATOM     15  C   UNL     1       0.700   9.360  18.694  0.00  0.00    +0.000 C 
ATOM     16  N   UNL     1       0.743   9.268  20.164  0.00  0.00    +0.000 N 
ATOM     17  C   UNL     1       1.162   7.968  20.696  0.00  0.00    +0.000 C 
ATOM     18  C   UNL     1       2.509   7.561  20.065  0.00  0.00    +0.000 C 
BRANCH  16  19
ATOM     19  C   UNL     1       0.058  10.165  20.973  0.00  0.00    +0.000 A 
ATOM     20  C   UNL     1      -0.517  11.347  20.473  0.00  0.00    +0.000 A 
ATOM     21  C   UNL     1      -1.347  12.161  21.258  0.00  0.00    +0.000 A 
ATOM     22  C   UNL     1      -1.611  11.819  22.577  0.00  0.00    +0.000 A 
ATOM     23  C   UNL     1      -1.015  10.683  23.116  0.00  0.00    +0.000 A 
ATOM     24  C   UNL     1      -0.190   9.876  22.324  0.00  0.00    +0.000 A 
ENDBRANCH  16  19
ENDBRANCH   1  13
TORSDOF 3
ENDMDL
MODEL 8
REMARK VINA RESULT:      -6.7      2.629      4.537
REMARK  Name = 
REMARK  3 active torsions:
REMARK  status: ('A' for Active; 'I' for Inactive)
REMARK    1  A    between atoms: C_7  and  C_8
REMARK    2  A    between atoms: C_8  and  N_9
REMARK    3  A    between atoms: N_12  and  C_13
REMARK                            x       y       z     vdW  Elec       q    Type
REMARK                         _______ _______ _______ _____ _____    ______ ____
ROOT
ATOM      1  C   UNL     1       1.697   6.954  18.113  0.00  0.00    +0.000 C 
ENDROOT
BRANCH   1   8
ATOM      2 CL   UNL     1       4.815   1.788  20.477  0.00  0.00    +0.000 Cl
ATOM      3  C   UNL     1       3.449   2.798  20.314  0.00  0.00    +0.000 A 
ATOM      4  N   UNL     1       2.395   2.510  21.105  0.00  0.00    +0.000 NA
ATOM      5  C   UNL     1       1.296   3.290  21.021  0.00  0.00    +0.000 A 
ATOM      6  C   UNL     1       1.163   4.387  20.181  0.00  0.00    +0.000 A 
ATOM      7  C   UNL     1       2.262   4.703  19.368  0.00  0.00    +0.000 A 
ATOM      8  C   UNL     1       2.555   5.755  18.437  0.00  0.00    +0.000 A 
ATOM      9  C   UNL     1       3.829   5.497  17.953  0.00  0.00    +0.000 A 
ATOM     10  N   UNL     1       4.310   4.368  18.550  0.00  0.00    +0.000 N 
ATOM     11  C   UNL     1       3.385   3.877  19.446  0.00  0.00    +0.000 A 
ATOM     12  H   UNL     1       5.221   3.956  18.386  0.00  0.00    +0.000 HD
ENDBRANCH   1   8
BRANCH   1  13
ATOM     13  N   UNL     1       2.204   8.126  18.824  0.00  0.00    +0.000 NA
ATOM     14  C   UNL     1       1.774   9.415  18.241  0.00  0.00    +0.000 C 
ATOM     15  C   UNL     1       0.419  10.026  18.713  0.00  0.00    +0.000 C 
ATOM     16  N   UNL     1       0.208   9.859  20.162  0.00  0.00    +0.000 N 
ATOM     17  C   UNL     1       0.493   8.519  20.683  0.00  0.00    +0.000 C 
ATOM     18  C   UNL     1       1.915   8.093  20.267  0.00  0.00    +0.000 C 
BRANCH  16  19
ATOM     19  C   UNL     1      -0.579  10.739  20.892  0.00  0.00    +0.000 A 
ATOM     20  C   UNL     1      -0.644  10.710  22.296  0.00  0.00    +0.000 A 
ATOM     21  C   UNL     1      -1.307  11.703  23.032  0.00  0.00    +0.000 A 
ATOM     22  C   UNL     1      -1.941  12.749  22.376  0.00  0.00    +0.000 A 
ATOM     23  C   UNL     1      -1.938  12.778  20.985  0.00  0.00    +0.000 A 
ATOM     24  C   UNL     1      -1.272  11.784  20.260  0.00  0.00    +0.000 A 
ENDBRANCH  16  19
ENDBRANCH   1  13
TORSDOF 3
ENDMDL
MODEL 9
REMARK VINA RESULT:      -6.6      1.464      2.596
REMARK  Name = 
REMARK  3 active torsions:
REMARK  status: ('A' for Active; 'I' for Inactive)
REMARK    1  A    between atoms: C_7  and  C_8
REMARK    2  A    between atoms: C_8  and  N_9
REMARK    3  A    between atoms: N_12  and  C_13
REMARK                            x       y       z     vdW  Elec       q    Type
REMARK                         _______ _______ _______ _____ _____    ______ ____
ROOT
ATOM      1  C   UNL     1       5.347   4.416  18.333  0.00  0.00    +0.000 C 
ENDROOT
BRANCH   1   8
ATOM      2 CL   UNL     1       8.575   5.857  12.901  0.00  0.00    +0.000 Cl
ATOM      3  C   UNL     1       7.358   5.042  13.777  0.00  0.00    +0.000 A 
ATOM      4  N   UNL     1       6.651   4.115  13.098  0.00  0.00    +0.000 NA
ATOM      5  C   UNL     1       5.687   3.435  13.754  0.00  0.00    +0.000 A 
ATOM      6  C   UNL     1       5.363   3.607  15.093  0.00  0.00    +0.000 A 
ATOM      7  C   UNL     1       6.105   4.558  15.810  0.00  0.00    +0.000 A 
ATOM      8  C   UNL     1       6.136   4.986  17.179  0.00  0.00    +0.000 A 
ATOM      9  C   UNL     1       7.104   5.978  17.251  0.00  0.00    +0.000 A 
ATOM     10  N   UNL     1       7.654   6.150  16.013  0.00  0.00    +0.000 N 
ATOM     11  C   UNL     1       7.085   5.272  15.117  0.00  0.00    +0.000 A 
ATOM     12  H   UNL     1       8.391   6.806  15.782  0.00  0.00    +0.000 HD
ENDBRANCH   1   8
BRANCH   1  13
ATOM     13  N   UNL     1       3.917   4.562  18.068  0.00  0.00    +0.000 NA
ATOM     14  C   UNL     1       3.064   4.368  19.260  0.00  0.00    +0.000 C 
ATOM     15  C   UNL     1       2.767   5.600  20.167  0.00  0.00    +0.000 C 
ATOM     16  N   UNL     1       2.528   6.825  19.383  0.00  0.00    +0.000 N 
ATOM     17  C   UNL     1       3.491   7.072  18.306  0.00  0.00    +0.000 C 
ATOM     18  C   UNL     1       3.583   5.830  17.398  0.00  0.00    +0.000 C 
BRANCH  16  19
ATOM     19  C   UNL     1       1.739   7.861  19.866  0.00  0.00    +0.000 A 
ATOM     20  C   UNL     1       1.255   7.891  21.185  0.00  0.00    +0.000 A 
ATOM     21  C   UNL     1       0.603   9.014  21.714  0.00  0.00    +0.000 A 
ATOM     22  C   UNL     1       0.402  10.138  20.925  0.00  0.00    +0.000 A 
ATOM     23  C   UNL     1       0.824  10.120  19.599  0.00  0.00    +0.000 A 
ATOM     24  C   UNL     1       1.476   8.995  19.081  0.00  0.00    +0.000 A 
ENDBRANCH  16  19
ENDBRANCH   1  13
TORSDOF 3
ENDMDL
