MODEL 1
REMARK VINA RESULT:      -7.4      0.000      0.000
REMARK  Name = 
REMARK  5 active torsions:
REMARK  status: ('A' for Active; 'I' for Inactive)
REMARK    1  A    between atoms: C_1  and  N_2
REMARK    2  A    between atoms: N_2  and  C_3
REMARK    3  A    between atoms: N_2  and  S_11
REMARK    4  A    between atoms: C_3  and  C_4
REMARK    5  A    between atoms: S_11  and  C_14
REMARK                            x       y       z     vdW  Elec       q    Type
REMARK                         _______ _______ _______ _____ _____    ______ ____
ROOT
ATOM      1  C   UNL     1       4.890   6.357  16.222  0.00  0.00    +0.000 C 
ATOM      2  N   UNL     1       4.790   5.001  16.823  0.00  0.00    +0.000 NA
ENDROOT
BRANCH   2   3
ATOM      3  S   UNL     1       4.737   4.986  18.533  0.00  0.00    +0.000 S 
ATOM      4  O   UNL     1       5.804   4.127  19.005  0.00  0.00    +0.000 OA
ATOM      5  O   UNL     1       4.624   6.360  18.975  0.00  0.00    +0.000 OA
BRANCH   3   6
ATOM      6  C   UNL     1       3.216   4.149  18.879  0.00  0.00    +0.000 A 
ATOM      7  C   UNL     1       2.269   3.952  17.867  0.00  0.00    +0.000 A 
ATOM      8  C   UNL     1       1.079   3.289  18.162  0.00  0.00    +0.000 A 
ATOM      9  C   UNL     1       0.842   2.825  19.459  0.00  0.00    +0.000 A 
ATOM     10  C   UNL     1       1.792   3.034  20.461  0.00  0.00    +0.000 A 
ATOM     11 CL   UNL     1       1.494   2.458  22.053  0.00  0.00    +0.000 Cl
ATOM     12  C   UNL     1       2.981   3.698  20.180  0.00  0.00    +0.000 A 
ENDBRANCH   3   6
ENDBRANCH   2   3
BRANCH   2  13
ATOM     13  C   UNL     1       5.853   4.089  16.294  0.00  0.00    +0.000 C 
BRANCH  13  14
ATOM     14  C   UNL     1       6.845   4.806  15.385  0.00  0.00    +0.000 C 
ATOM     15  O   UNL     1       7.676   5.585  15.855  0.00  0.00    +0.000 OA
ATOM     16  N   UNL     1       6.773   4.555  14.030  0.00  0.00    +0.000 N 
ATOM     17  C   UNL     1       5.833   3.689  13.344  0.00  0.00    +0.000 C 
ATOM     18  C   UNL     1       6.563   3.334  12.060  0.00  0.00    +0.000 C 
ATOM     19  C   UNL     1       7.337   4.605  11.731  0.00  0.00    +0.000 C 
ATOM     20  C   UNL     1       7.658   5.219  13.090  0.00  0.00    +0.000 C 
ENDBRANCH  13  14
ENDBRANCH   2  13
TORSDOF 4
ENDMDL
MODEL 2
REMARK VINA RESULT:      -7.2      3.099      4.235
REMARK  Name = 
REMARK  5 active torsions:
REMARK  status: ('A' for Active; 'I' for Inactive)
REMARK    1  A    between atoms: C_1  and  N_2
REMARK    2  A    between atoms: N_2  and  C_3
REMARK    3  A    between atoms: N_2  and  S_11
REMARK    4  A    between atoms: C_3  and  C_4
REMARK    5  A    between atoms: S_11  and  C_14
REMARK                            x       y       z     vdW  Elec       q    Type
REMARK                         _______ _______ _______ _____ _____    ______ ____
ROOT
ATOM      1  C   UNL     1       3.156   2.488  21.255  0.00  0.00    +0.000 C 
ATOM      2  N   UNL     1       3.314   3.476  20.156  0.00  0.00    +0.000 NA
ENDROOT
BRANCH   2   3
ATOM      3  S   UNL     1       1.854   3.908  19.377  0.00  0.00    +0.000 S 
ATOM      4  O   UNL     1       1.915   3.422  18.013  0.00  0.00    +0.000 OA
ATOM      5  O   UNL     1       0.767   3.543  20.260  0.00  0.00    +0.000 OA
BRANCH   3   6
ATOM      6  C   UNL     1       1.952   5.674  19.294  0.00  0.00    +0.000 A 
ATOM      7  C   UNL     1       2.343   6.307  18.108  0.00  0.00    +0.000 A 
ATOM      8  C   UNL     1       2.411   7.699  18.066  0.00  0.00    +0.000 A 
ATOM      9  C   UNL     1       2.088   8.449  19.200  0.00  0.00    +0.000 A 
ATOM     10  C   UNL     1       1.706   7.804  20.378  0.00  0.00    +0.000 A 
ATOM     11 CL   UNL     1       1.307   8.732  21.769  0.00  0.00    +0.000 Cl
ATOM     12  C   UNL     1       1.637   6.416  20.435  0.00  0.00    +0.000 A 
ENDBRANCH   3   6
ENDBRANCH   2   3
BRANCH   2  13
ATOM     13  C   UNL     1       4.358   3.040  19.175  0.00  0.00    +0.000 C 
BRANCH  13  14
ATOM     14  C   UNL     1       5.351   4.147  18.840  0.00  0.00    +0.000 C 
ATOM     15  O   UNL     1       5.903   4.786  19.738  0.00  0.00    +0.000 OA
ATOM     16  N   UNL     1       5.600   4.407  17.508  0.00  0.00    +0.000 N 
ATOM     17  C   UNL     1       5.003   3.756  16.358  0.00  0.00    +0.000 C 
ATOM     18  C   UNL     1       6.028   3.983  15.261  0.00  0.00    +0.000 C 
ATOM     19  C   UNL     1       6.587   5.363  15.581  0.00  0.00    +0.000 C 
ATOM     20  C   UNL     1       6.506   5.465  17.101  0.00  0.00    +0.000 C 
ENDBRANCH  13  14
ENDBRANCH   2  13
TORSDOF 4
ENDMDL
MODEL 3
REMARK VINA RESULT:      -7.2      2.574      5.669
REMARK  Name = 
REMARK  5 active torsions:
REMARK  status: ('A' for Active; 'I' for Inactive)
REMARK    1  A    between atoms: C_1  and  N_2
REMARK    2  A    between atoms: N_2  and  C_3
REMARK    3  A    between atoms: N_2  and  S_11
REMARK    4  A    between atoms: C_3  and  C_4
REMARK    5  A    between atoms: S_11  and  C_14
REMARK                            x       y       z     vdW  Elec       q    Type
REMARK                         _______ _______ _______ _____ _____    ______ ____
ROOT
ATOM      1  C   UNL     1       5.339   4.300  15.387  0.00  0.00    +0.000 C 
ATOM      2  N   UNL     1       4.589   4.650  16.621  0.00  0.00    +0.000 NA
ENDROOT
BRANCH   2   3
ATOM      3  S   UNL     1       5.302   5.896  17.553  0.00  0.00    +0.000 S 
ATOM      4  O   UNL     1       5.848   5.297  18.754  0.00  0.00    +0.000 OA
ATOM      5  O   UNL     1       6.125   6.686  16.663  0.00  0.00    +0.000 OA
BRANCH   3   6
ATOM      6  C   UNL     1       3.909   6.867  18.054  0.00  0.00    +0.000 A 
ATOM      7  C   UNL     1       3.475   7.942  17.269  0.00  0.00    +0.000 A 
ATOM      8  C   UNL     1       2.375   8.692  17.683  0.00  0.00    +0.000 A 
ATOM      9  C   UNL     1       1.715   8.366  18.870  0.00  0.00    +0.000 A 
ATOM     10  C   UNL     1       2.162   7.296  19.648  0.00  0.00    +0.000 A 
ATOM     11 CL   UNL     1       1.343   6.899  21.106  0.00  0.00    +0.000 Cl
ATOM     12  C   UNL     1       3.261   6.542  19.249  0.00  0.00    +0.000 A 
ENDBRANCH   3   6
ENDBRANCH   2   3
BRANCH   2  13
ATOM     13  C   UNL     1       4.298   3.437  17.448  0.00  0.00    +0.000 C 
BRANCH  13  14
ATOM     14  C   UNL     1       2.821   3.305  17.802  0.00  0.00    +0.000 C 
ATOM     15  O   UNL     1       1.965   3.278  16.916  0.00  0.00    +0.000 OA
ATOM     16  N   UNL     1       2.485   3.222  19.137  0.00  0.00    +0.000 N 
ATOM     17  C   UNL     1       3.382   3.269  20.275  0.00  0.00    +0.000 C 
ATOM     18  C   UNL     1       2.598   2.556  21.363  0.00  0.00    +0.000 C 
ATOM     19  C   UNL     1       1.155   2.955  21.078  0.00  0.00    +0.000 C 
ATOM     20  C   UNL     1       1.100   3.128  19.563  0.00  0.00    +0.000 C 
ENDBRANCH  13  14
ENDBRANCH   2  13
TORSDOF 4
ENDMDL
MODEL 4
REMARK VINA RESULT:      -7.1      1.133      1.411
REMARK  Name = 
REMARK  5 active torsions:
REMARK  status: ('A' for Active; 'I' for Inactive)
REMARK    1  A    between atoms: C_1  and  N_2
REMARK    2  A    between atoms: N_2  and  C_3
REMARK    3  A    between atoms: N_2  and  S_11
REMARK    4  A    between atoms: C_3  and  C_4
REMARK    5  A    between atoms: S_11  and  C_14
REMARK                            x       y       z     vdW  Elec       q    Type
REMARK                         _______ _______ _______ _____ _____    ______ ____
ROOT
ATOM      1  C   UNL     1       5.006   6.306  16.411  0.00  0.00    +0.000 C 
ATOM      2  N   UNL     1       4.824   4.952  16.996  0.00  0.00    +0.000 NA
ENDROOT
BRANCH   2   3
ATOM      3  S   UNL     1       5.079   4.869  18.685  0.00  0.00    +0.000 S 
ATOM      4  O   UNL     1       5.826   3.660  18.966  0.00  0.00    +0.000 OA
ATOM      5  O   UNL     1       5.555   6.167  19.115  0.00  0.00    +0.000 OA
BRANCH   3   6
ATOM      6  C   UNL     1       3.447   4.621  19.325  0.00  0.00    +0.000 A 
ATOM      7  C   UNL     1       2.917   5.502  20.275  0.00  0.00    +0.000 A 
ATOM      8  C   UNL     1       1.629   5.287  20.763  0.00  0.00    +0.000 A 
ATOM      9  C   UNL     1       0.878   4.202  20.301  0.00  0.00    +0.000 A 
ATOM     10  C   UNL     1       1.422   3.328  19.358  0.00  0.00    +0.000 A 
ATOM     11 CL   UNL     1       0.493   1.997  18.792  0.00  0.00    +0.000 Cl
ATOM     12  C   UNL     1       2.708   3.528  18.866  0.00  0.00    +0.000 A 
ENDBRANCH   3   6
ENDBRANCH   2   3
BRANCH   2  13
ATOM     13  C   UNL     1       5.632   3.926  16.263  0.00  0.00    +0.000 C 
BRANCH  13  14
ATOM     14  C   UNL     1       6.755   4.543  15.435  0.00  0.00    +0.000 C 
ATOM     15  O   UNL     1       7.680   5.145  15.984  0.00  0.00    +0.000 OA
ATOM     16  N   UNL     1       6.692   4.406  14.064  0.00  0.00    +0.000 N 
ATOM     17  C   UNL     1       5.654   3.751  13.291  0.00  0.00    +0.000 C 
ATOM     18  C   UNL     1       6.364   3.381  12.001  0.00  0.00    +0.000 C 
ATOM     19  C   UNL     1       7.336   4.535  11.789  0.00  0.00    +0.000 C 
ATOM     20  C   UNL     1       7.701   4.990  13.199  0.00  0.00    +0.000 C 
ENDBRANCH  13  14
ENDBRANCH   2  13
TORSDOF 4
ENDMDL
MODEL 5
REMARK VINA RESULT:      -7.1      3.260      6.698
REMARK  Name = 
REMARK  5 active torsions:
REMARK  status: ('A' for Active; 'I' for Inactive)
REMARK    1  A    between atoms: C_1  and  N_2
REMARK    2  A    between atoms: N_2  and  C_3
REMARK    3  A    between atoms: N_2  and  S_11
REMARK    4  A    between atoms: C_3  and  C_4
REMARK    5  A    between atoms: S_11  and  C_14
REMARK                            x       y       z     vdW  Elec       q    Type
REMARK                         _______ _______ _______ _____ _____    ______ ____
ROOT
ATOM      1  C   UNL     1       7.483   5.745  19.369  0.00  0.00    +0.000 C 
ATOM      2  N   UNL     1       6.267   5.470  18.560  0.00  0.00    +0.000 NA
ENDROOT
BRANCH   2   3
ATOM      3  S   UNL     1       6.034   6.539  17.245  0.00  0.00    +0.000 S 
ATOM      4  O   UNL     1       4.687   7.065  17.329  0.00  0.00    +0.000 OA
ATOM      5  O   UNL     1       7.185   7.416  17.191  0.00  0.00    +0.000 OA
BRANCH   3   6
ATOM      6  C   UNL     1       6.075   5.461  15.841  0.00  0.00    +0.000 A 
ATOM      7  C   UNL     1       5.251   4.331  15.792  0.00  0.00    +0.000 A 
ATOM      8  C   UNL     1       5.299   3.497  14.675  0.00  0.00    +0.000 A 
ATOM      9  C   UNL     1       6.162   3.795  13.617  0.00  0.00    +0.000 A 
ATOM     10  C   UNL     1       6.983   4.923  13.682  0.00  0.00    +0.000 A 
ATOM     11 CL   UNL     1       8.040   5.286  12.376  0.00  0.00    +0.000 Cl
ATOM     12  C   UNL     1       6.948   5.761  14.792  0.00  0.00    +0.000 A 
ENDBRANCH   3   6
ENDBRANCH   2   3
BRANCH   2  13
ATOM     13  C   UNL     1       5.046   5.379  19.422  0.00  0.00    +0.000 C 
BRANCH  13  14
ATOM     14  C   UNL     1       4.460   3.973  19.466  0.00  0.00    +0.000 C 
ATOM     15  O   UNL     1       5.193   2.985  19.381  0.00  0.00    +0.000 OA
ATOM     16  N   UNL     1       3.092   3.850  19.599  0.00  0.00    +0.000 N 
ATOM     17  C   UNL     1       2.116   4.919  19.681  0.00  0.00    +0.000 C 
ATOM     18  C   UNL     1       0.946   4.266  20.395  0.00  0.00    +0.000 C 
ATOM     19  C   UNL     1       0.972   2.833  19.878  0.00  0.00    +0.000 C 
ATOM     20  C   UNL     1       2.448   2.549  19.616  0.00  0.00    +0.000 C 
ENDBRANCH  13  14
ENDBRANCH   2  13
TORSDOF 4
ENDMDL
MODEL 6
REMARK VINA RESULT:      -7.0      3.817      6.836
REMARK  Name = 
REMARK  5 active torsions:
REMARK  status: ('A' for Active; 'I' for Inactive)
REMARK    1  A    between atoms: C_1  and  N_2
REMARK    2  A    between atoms: N_2  and  C_3
REMARK    3  A    between atoms: N_2  and  S_11
REMARK    4  A    between atoms: C_3  and  C_4
REMARK    5  A    between atoms: S_11  and  C_14
REMARK                            x       y       z     vdW  Elec       q    Type
REMARK                         _______ _______ _______ _____ _____    ______ ____
ROOT
ATOM      1  C   UNL     1       1.203   3.861  19.622  0.00  0.00    +0.000 C 
ATOM      2  N   UNL     1       2.405   4.462  18.985  0.00  0.00    +0.000 NA
ENDROOT
BRANCH   2   3
ATOM      3  S   UNL     1       3.683   3.361  18.703  0.00  0.00    +0.000 S 
ATOM      4  O   UNL     1       4.270   3.020  19.983  0.00  0.00    +0.000 OA
ATOM      5  O   UNL     1       3.185   2.340  17.806  0.00  0.00    +0.000 OA
BRANCH   3   6
ATOM      6  C   UNL     1       4.875   4.344  17.840  0.00  0.00    +0.000 A 
ATOM      7  C   UNL     1       4.798   4.495  16.451  0.00  0.00    +0.000 A 
ATOM      8  C   UNL     1       5.747   5.276  15.792  0.00  0.00    +0.000 A 
ATOM      9  C   UNL     1       6.762   5.902  16.520  0.00  0.00    +0.000 A 
ATOM     10  C   UNL     1       6.832   5.738  17.905  0.00  0.00    +0.000 A 
ATOM     11 CL   UNL     1       8.082   6.514  18.795  0.00  0.00    +0.000 Cl
ATOM     12  C   UNL     1       5.894   4.959  18.574  0.00  0.00    +0.000 A 
ENDBRANCH   3   6
ENDBRANCH   2   3
BRANCH   2  13
ATOM     13  C   UNL     1       2.871   5.672  19.733  0.00  0.00    +0.000 C 
BRANCH  13  14
ATOM     14  C   UNL     1       2.516   6.975  19.025  0.00  0.00    +0.000 C 
ATOM     15  O   UNL     1       2.855   7.166  17.856  0.00  0.00    +0.000 OA
ATOM     16  N   UNL     1       1.812   7.923  19.739  0.00  0.00    +0.000 N 
ATOM     17  C   UNL     1       1.377   7.841  21.120  0.00  0.00    +0.000 C 
ATOM     18  C   UNL     1       0.205   8.806  21.171  0.00  0.00    +0.000 C 
ATOM     19  C   UNL     1       0.615   9.912  20.207  0.00  0.00    +0.000 C 
ATOM     20  C   UNL     1       1.462   9.204  19.153  0.00  0.00    +0.000 C 
ENDBRANCH  13  14
ENDBRANCH   2  13
TORSDOF 4
ENDMDL
MODEL 7
REMARK VINA RESULT:      -6.9      2.936      6.931
REMARK  Name = 
REMARK  5 active torsions:
REMARK  status: ('A' for Active; 'I' for Inactive)
REMARK    1  A    between atoms: C_1  and  N_2
REMARK    2  A    between atoms: N_2  and  C_3
REMARK    3  A    between atoms: N_2  and  S_11
REMARK    4  A    between atoms: C_3  and  C_4
REMARK    5  A    between atoms: S_11  and  C_14
REMARK                            x       y       z     vdW  Elec       q    Type
REMARK                         _______ _______ _______ _____ _____    ______ ____
ROOT
ATOM      1  C   UNL     1       7.707   4.430  17.776  0.00  0.00    +0.000 C 
ATOM      2  N   UNL     1       6.294   4.533  17.326  0.00  0.00    +0.000 NA
ENDROOT
BRANCH   2   3
ATOM      3  S   UNL     1       5.980   5.845  16.273  0.00  0.00    +0.000 S 
ATOM      4  O   UNL     1       4.549   6.069  16.254  0.00  0.00    +0.000 OA
ATOM      5  O   UNL     1       6.906   6.904  16.613  0.00  0.00    +0.000 OA
BRANCH   3   6
ATOM      6  C   UNL     1       6.416   5.195  14.684  0.00  0.00    +0.000 A 
ATOM      7  C   UNL     1       7.641   5.527  14.095  0.00  0.00    +0.000 A 
ATOM      8  C   UNL     1       7.964   5.003  12.844  0.00  0.00    +0.000 A 
ATOM      9  C   UNL     1       7.068   4.151  12.192  0.00  0.00    +0.000 A 
ATOM     10  C   UNL     1       5.846   3.833  12.789  0.00  0.00    +0.000 A 
ATOM     11 CL   UNL     1       4.750   2.783  11.982  0.00  0.00    +0.000 Cl
ATOM     12  C   UNL     1       5.510   4.353  14.034  0.00  0.00    +0.000 A 
ENDBRANCH   3   6
ENDBRANCH   2   3
BRANCH   2  13
ATOM     13  C   UNL     1       5.348   4.516  18.486  0.00  0.00    +0.000 C 
BRANCH  13  14
ATOM     14  C   UNL     1       4.205   3.525  18.299  0.00  0.00    +0.000 C 
ATOM     15  O   UNL     1       4.246   2.683  17.400  0.00  0.00    +0.000 OA
ATOM     16  N   UNL     1       3.132   3.610  19.163  0.00  0.00    +0.000 N 
ATOM     17  C   UNL     1       2.943   4.564  20.239  0.00  0.00    +0.000 C 
ATOM     18  C   UNL     1       1.980   3.848  21.170  0.00  0.00    +0.000 C 
ATOM     19  C   UNL     1       1.084   3.066  20.218  0.00  0.00    +0.000 C 
ATOM     20  C   UNL     1       1.987   2.728  19.035  0.00  0.00    +0.000 C 
ENDBRANCH  13  14
ENDBRANCH   2  13
TORSDOF 4
ENDMDL
MODEL 8
REMARK VINA RESULT:      -6.9      3.494      4.656
REMARK  Name = 
REMARK  5 active torsions:
REMARK  status: ('A' for Active; 'I' for Inactive)
REMARK    1  A    between atoms: C_1  and  N_2
REMARK    2  A    between atoms: N_2  and  C_3
REMARK    3  A    between atoms: N_2  and  S_11
REMARK    4  A    between atoms: C_3  and  C_4
REMARK    5  A    between atoms: S_11  and  C_14
REMARK                            x       y       z     vdW  Elec       q    Type
REMARK                         _______ _______ _______ _____ _____    ______ ____
ROOT
ATOM      1  C   UNL     1       3.472   1.380  18.510  0.00  0.00    +0.000 C 
ATOM      2  N   UNL     1       3.352   2.856  18.643  0.00  0.00    +0.000 NA
ENDROOT
BRANCH   2   3
ATOM      3  S   UNL     1       1.777   3.466  18.373  0.00  0.00    +0.000 S 
ATOM      4  O   UNL     1       1.602   3.634  16.945  0.00  0.00    +0.000 OA
ATOM      5  O   UNL     1       0.861   2.664  19.156  0.00  0.00    +0.000 OA
BRANCH   3   6
ATOM      6  C   UNL     1       1.852   5.091  19.073  0.00  0.00    +0.000 A 
ATOM      7  C   UNL     1       1.595   5.289  20.434  0.00  0.00    +0.000 A 
ATOM      8  C   UNL     1       1.662   6.577  20.963  0.00  0.00    +0.000 A 
ATOM      9  C   UNL     1       1.985   7.656  20.136  0.00  0.00    +0.000 A 
ATOM     10  C   UNL     1       2.232   7.445  18.778  0.00  0.00    +0.000 A 
ATOM     11 CL   UNL     1       2.631   8.777  17.766  0.00  0.00    +0.000 Cl
ATOM     12  C   UNL     1       2.165   6.166  18.236  0.00  0.00    +0.000 A 
ENDBRANCH   3   6
ENDBRANCH   2   3
BRANCH   2  13
ATOM     13  C   UNL     1       4.372   3.565  17.807  0.00  0.00    +0.000 C 
BRANCH  13  14
ATOM     14  C   UNL     1       5.449   4.246  18.644  0.00  0.00    +0.000 C 
ATOM     15  O   UNL     1       5.706   3.846  19.781  0.00  0.00    +0.000 OA
ATOM     16  N   UNL     1       6.114   5.318  18.086  0.00  0.00    +0.000 N 
ATOM     17  C   UNL     1       5.894   5.907  16.779  0.00  0.00    +0.000 C 
ATOM     18  C   UNL     1       7.220   6.584  16.477  0.00  0.00    +0.000 C 
ATOM     19  C   UNL     1       7.686   7.072  17.843  0.00  0.00    +0.000 C 
ATOM     20  C   UNL     1       7.130   6.045  18.825  0.00  0.00    +0.000 C 
ENDBRANCH  13  14
ENDBRANCH   2  13
TORSDOF 4
ENDMDL
MODEL 9
REMARK VINA RESULT:      -6.8      3.870      7.083
REMARK  Name = 
REMARK  5 active torsions:
REMARK  status: ('A' for Active; 'I' for Inactive)
REMARK    1  A    between atoms: C_1  and  N_2
REMARK    2  A    between atoms: N_2  and  C_3
REMARK    3  A    between atoms: N_2  and  S_11
REMARK    4  A    between atoms: C_3  and  C_4
REMARK    5  A    between atoms: S_11  and  C_14
REMARK                            x       y       z     vdW  Elec       q    Type
REMARK                         _______ _______ _______ _____ _____    ______ ____
ROOT
ATOM      1  C   UNL     1       1.459   4.349  18.187  0.00  0.00    +0.000 C 
ATOM      2  N   UNL     1       2.852   4.862  18.255  0.00  0.00    +0.000 NA
ENDROOT
BRANCH   2   3
ATOM      3  S   UNL     1       4.046   3.650  18.433  0.00  0.00    +0.000 S 
ATOM      4  O   UNL     1       4.654   3.811  19.738  0.00  0.00    +0.000 OA
ATOM      5  O   UNL     1       3.452   2.394  18.028  0.00  0.00    +0.000 OA
BRANCH   3   6
ATOM      6  C   UNL     1       5.268   4.114  17.239  0.00  0.00    +0.000 A 
ATOM      7  C   UNL     1       6.444   4.758  17.641  0.00  0.00    +0.000 A 
ATOM      8  C   UNL     1       7.393   5.112  16.683  0.00  0.00    +0.000 A 
ATOM      9  C   UNL     1       7.166   4.820  15.335  0.00  0.00    +0.000 A 
ATOM     10  C   UNL     1       5.986   4.183  14.946  0.00  0.00    +0.000 A 
ATOM     11 CL   UNL     1       5.715   3.826  13.287  0.00  0.00    +0.000 Cl
ATOM     12  C   UNL     1       5.029   3.828  15.892  0.00  0.00    +0.000 A 
ENDBRANCH   3   6
ENDBRANCH   2   3
BRANCH   2  13
ATOM     13  C   UNL     1       2.990   5.932  19.293  0.00  0.00    +0.000 C 
BRANCH  13  14
ATOM     14  C   UNL     1       2.503   7.292  18.805  0.00  0.00    +0.000 C 
ATOM     15  O   UNL     1       2.764   7.679  17.664  0.00  0.00    +0.000 OA
ATOM     16  N   UNL     1       1.772   8.066  19.683  0.00  0.00    +0.000 N 
ATOM     17  C   UNL     1       1.419   7.748  21.053  0.00  0.00    +0.000 C 
ATOM     18  C   UNL     1       0.185   8.598  21.299  0.00  0.00    +0.000 C 
ATOM     19  C   UNL     1       0.462   9.863  20.495  0.00  0.00    +0.000 C 
ATOM     20  C   UNL     1       1.299   9.388  19.312  0.00  0.00    +0.000 C 
ENDBRANCH  13  14
ENDBRANCH   2  13
TORSDOF 4
ENDMDL
