MODEL 1
REMARK VINA RESULT:      -6.8      0.000      0.000
REMARK  Name = 
REMARK  7 active torsions:
REMARK  status: ('A' for Active; 'I' for Inactive)
REMARK    1  A    between atoms: C_1  and  C_2
REMARK    2  A    between atoms: C_2  and  C_3
REMARK    3  A    between atoms: CA_6  and  N_7
REMARK    4  A    between atoms: C_8  and  CA_10
REMARK    5  A    between atoms: CA_10  and  N_11
REMARK    6  A    between atoms: CA_10  and  C_20
REMARK    7  A    between atoms: CA_29  and  C_30
REMARK                            x       y       z     vdW  Elec       q    Type
REMARK                         _______ _______ _______ _____ _____    ______ ____
ROOT
ATOM      1  CA  UNL     1      -4.279  13.824  20.718  0.00  0.00    +0.000 C 
ENDROOT
BRANCH   1   2
ATOM      2  N   UNL     1      -3.602  12.907  19.809  0.00  0.00    +0.000 N 
ATOM      3  C   UNL     1      -4.278  12.103  18.927  0.00  0.00    +0.000 C 
ATOM      4  O   UNL     1      -5.501  12.114  18.808  0.00  0.00    +0.000 OA
ATOM      5  N   UNL     1      -3.460  11.331  18.129  0.00  0.00    +0.000 N 
ATOM      6  C   UNL     1      -3.947  10.638  16.957  0.00  0.00    +0.000 C 
ATOM      7  C   UNL     1      -2.674  10.109  16.316  0.00  0.00    +0.000 C 
ATOM      8  N   UNL     1      -1.765  10.015  17.423  0.00  0.00    +0.000 N 
ATOM      9  C   UNL     1      -2.169  10.874  18.437  0.00  0.00    +0.000 C 
ATOM     10  O   UNL     1      -1.484  11.181  19.400  0.00  0.00    +0.000 OA
ATOM     11  H   UNL     1      -2.694  12.559  20.098  0.00  0.00    +0.000 HD
ATOM     12  H   UNL     1      -0.797   9.720  17.378  0.00  0.00    +0.000 HD
ENDBRANCH   1   2
BRANCH   1  13
ATOM     13  C   UNL     1      -4.555  13.195  22.077  0.00  0.00    +0.000 A 
ATOM     14  C   UNL     1      -5.860  13.210  22.598  0.00  0.00    +0.000 A 
ATOM     15  C   UNL     1      -6.114  12.763  23.897  0.00  0.00    +0.000 A 
ATOM     16  C   UNL     1      -5.071  12.293  24.692  0.00  0.00    +0.000 A 
ATOM     17  C   UNL     1      -3.773  12.262  24.189  0.00  0.00    +0.000 A 
ATOM     18  C   UNL     1      -3.515  12.714  22.894  0.00  0.00    +0.000 A 
ENDBRANCH   1  13
BRANCH   1  20
ATOM     19  N   UNL     1      -2.113  14.944  20.391  0.00  0.00    +0.000 N 
ATOM     20  C   UNL     1      -3.391  15.080  20.902  0.00  0.00    +0.000 C 
ATOM     21  O   UNL     1      -3.722  16.077  21.544  0.00  0.00    +0.000 OA
ATOM     22  H   UNL     1      -1.777  13.985  20.285  0.00  0.00    +0.000 HD
BRANCH  19  28
ATOM     23  C   UNL     1       2.540  13.648  18.204  0.00  0.00    +0.000 C 
ATOM     24  C   UNL     1       2.275  14.688  19.298  0.00  0.00    +0.000 C 
ATOM     25  C   UNL     1       3.548  14.871  20.142  0.00  0.00    +0.000 C 
ATOM     26  S   UNL     1       0.940  14.003  20.412  0.00  0.00    +0.000 S 
ATOM     27  C   UNL     1       0.331  15.657  20.843  0.00  0.00    +0.000 C 
ATOM     28  CA  UNL     1      -1.137  16.033  20.585  0.00  0.00    +0.000 C 
ATOM     29  C   UNL     1      -0.593  16.700  19.296  0.00  0.00    +0.000 C 
ATOM     30  O   UNL     1      -1.030  17.110  18.252  0.00  0.00    +0.000 OA
ATOM     31  N   UNL     1       0.703  16.507  19.713  0.00  0.00    +0.000 N 
ATOM     32  CA  UNL     1       1.696  16.009  18.740  0.00  0.00    +0.000 C 
BRANCH  32  33
ATOM     33  C   UNL     1       2.812  17.046  18.479  0.00  0.00    +0.000 C 
ATOM     34  O   UNL     1       3.028  17.894  19.375  0.00  0.00    +0.000 OA
ATOM     35  OXT UNL     1       3.323  16.983  17.307  0.00  0.00    +0.000 OA
ENDBRANCH  32  33
ENDBRANCH  19  28
ENDBRANCH   1  20
TORSDOF 5
ENDMDL
MODEL 2
REMARK VINA RESULT:      -6.7      3.578      6.218
REMARK  Name = 
REMARK  7 active torsions:
REMARK  status: ('A' for Active; 'I' for Inactive)
REMARK    1  A    between atoms: C_1  and  C_2
REMARK    2  A    between atoms: C_2  and  C_3
REMARK    3  A    between atoms: CA_6  and  N_7
REMARK    4  A    between atoms: C_8  and  CA_10
REMARK    5  A    between atoms: CA_10  and  N_11
REMARK    6  A    between atoms: CA_10  and  C_20
REMARK    7  A    between atoms: CA_29  and  C_30
REMARK                            x       y       z     vdW  Elec       q    Type
REMARK                         _______ _______ _______ _____ _____    ______ ____
ROOT
ATOM      1  CA  UNL     1      -6.272  12.645  18.594  0.00  0.00    +0.000 C 
ENDROOT
BRANCH   1   2
ATOM      2  N   UNL     1      -5.920  12.844  19.994  0.00  0.00    +0.000 N 
ATOM      3  C   UNL     1      -6.784  12.567  21.023  0.00  0.00    +0.000 C 
ATOM      4  O   UNL     1      -7.907  12.101  20.850  0.00  0.00    +0.000 OA
ATOM      5  N   UNL     1      -6.254  12.789  22.276  0.00  0.00    +0.000 N 
ATOM      6  C   UNL     1      -6.883  12.299  23.483  0.00  0.00    +0.000 C 
ATOM      7  C   UNL     1      -5.853  12.606  24.558  0.00  0.00    +0.000 C 
ATOM      8  N   UNL     1      -5.116  13.704  24.000  0.00  0.00    +0.000 N 
ATOM      9  C   UNL     1      -5.242  13.700  22.616  0.00  0.00    +0.000 C 
ATOM     10  O   UNL     1      -4.558  14.365  21.855  0.00  0.00    +0.000 OA
ATOM     11  H   UNL     1      -5.222  13.553  20.198  0.00  0.00    +0.000 HD
ATOM     12  H   UNL     1      -4.322  14.169  24.424  0.00  0.00    +0.000 HD
ENDBRANCH   1   2
BRANCH   1  13
ATOM     13  C   UNL     1      -6.730  13.934  17.923  0.00  0.00    +0.000 A 
ATOM     14  C   UNL     1      -7.318  13.883  16.648  0.00  0.00    +0.000 A 
ATOM     15  C   UNL     1      -7.621  15.058  15.955  0.00  0.00    +0.000 A 
ATOM     16  C   UNL     1      -7.345  16.298  16.526  0.00  0.00    +0.000 A 
ATOM     17  C   UNL     1      -6.772  16.368  17.793  0.00  0.00    +0.000 A 
ATOM     18  C   UNL     1      -6.461  15.196  18.484  0.00  0.00    +0.000 A 
ENDBRANCH   1  13
BRANCH   1  20
ATOM     19  N   UNL     1      -3.835  12.324  18.496  0.00  0.00    +0.000 N 
ATOM     20  C   UNL     1      -5.033  12.088  17.848  0.00  0.00    +0.000 C 
ATOM     21  O   UNL     1      -5.067  11.585  16.725  0.00  0.00    +0.000 OA
ATOM     22  H   UNL     1      -3.834  13.103  19.158  0.00  0.00    +0.000 HD
BRANCH  19  28
ATOM     23  C   UNL     1      -0.257  10.913  22.146  0.00  0.00    +0.000 C 
ATOM     24  C   UNL     1       0.001  11.362  20.704  0.00  0.00    +0.000 C 
ATOM     25  C   UNL     1       1.412  11.969  20.608  0.00  0.00    +0.000 C 
ATOM     26  S   UNL     1      -1.231  12.710  20.307  0.00  0.00    +0.000 S 
ATOM     27  C   UNL     1      -1.249  12.292  18.541  0.00  0.00    +0.000 C 
ATOM     28  CA  UNL     1      -2.571  11.929  17.846  0.00  0.00    +0.000 C 
ATOM     29  C   UNL     1      -2.121  10.461  18.066  0.00  0.00    +0.000 C 
ATOM     30  O   UNL     1      -2.617   9.365  18.051  0.00  0.00    +0.000 OA
ATOM     31  N   UNL     1      -0.878  10.880  18.480  0.00  0.00    +0.000 N 
ATOM     32  CA  UNL     1      -0.275  10.246  19.670  0.00  0.00    +0.000 C 
BRANCH  32  33
ATOM     33  C   UNL     1       1.017   9.475  19.317  0.00  0.00    +0.000 C 
ATOM     34  O   UNL     1       1.532   9.703  18.198  0.00  0.00    +0.000 OA
ATOM     35  OXT UNL     1       1.357   8.595  20.182  0.00  0.00    +0.000 OA
ENDBRANCH  32  33
ENDBRANCH  19  28
ENDBRANCH   1  20
TORSDOF 5
ENDMDL
MODEL 3
REMARK VINA RESULT:      -6.7      3.008      7.319
REMARK  Name = 
REMARK  7 active torsions:
REMARK  status: ('A' for Active; 'I' for Inactive)
REMARK    1  A    between atoms: C_1  and  C_2
REMARK    2  A    between atoms: C_2  and  C_3
REMARK    3  A    between atoms: CA_6  and  N_7
REMARK    4  A    between atoms: C_8  and  CA_10
REMARK    5  A    between atoms: CA_10  and  N_11
REMARK    6  A    between atoms: CA_10  and  C_20
REMARK    7  A    between atoms: CA_29  and  C_30
REMARK                            x       y       z     vdW  Elec       q    Type
REMARK                         _______ _______ _______ _____ _____    ______ ____
ROOT
ATOM      1  CA  UNL     1       0.109  14.354  22.136  0.00  0.00    +0.000 C 
ENDROOT
BRANCH   1   2
ATOM      2  N   UNL     1      -0.320  13.576  20.980  0.00  0.00    +0.000 N 
ATOM      3  C   UNL     1      -0.141  12.219  20.890  0.00  0.00    +0.000 C 
ATOM      4  O   UNL     1       0.363  11.547  21.788  0.00  0.00    +0.000 OA
ATOM      5  N   UNL     1      -0.643  11.661  19.735  0.00  0.00    +0.000 N 
ATOM      6  C   UNL     1      -0.814  10.234  19.572  0.00  0.00    +0.000 C 
ATOM      7  C   UNL     1      -1.566  10.125  18.255  0.00  0.00    +0.000 C 
ATOM      8  N   UNL     1      -1.205  11.334  17.571  0.00  0.00    +0.000 N 
ATOM      9  C   UNL     1      -0.804  12.294  18.492  0.00  0.00    +0.000 C 
ATOM     10  O   UNL     1      -0.655  13.478  18.239  0.00  0.00    +0.000 OA
ATOM     11  H   UNL     1      -0.369  14.063  20.090  0.00  0.00    +0.000 HD
ATOM     12  H   UNL     1      -1.538  11.629  16.660  0.00  0.00    +0.000 HD
ENDBRANCH   1   2
BRANCH   1  13
ATOM     13  C   UNL     1       0.554  15.761  21.756  0.00  0.00    +0.000 A 
ATOM     14  C   UNL     1       0.233  16.272  20.487  0.00  0.00    +0.000 A 
ATOM     15  C   UNL     1       0.743  17.502  20.064  0.00  0.00    +0.000 A 
ATOM     16  C   UNL     1       1.578  18.238  20.902  0.00  0.00    +0.000 A 
ATOM     17  C   UNL     1       1.900  17.751  22.166  0.00  0.00    +0.000 A 
ATOM     18  C   UNL     1       1.397  16.519  22.588  0.00  0.00    +0.000 A 
ENDBRANCH   1  13
BRANCH   1  20
ATOM     19  N   UNL     1      -2.315  14.472  22.537  0.00  0.00    +0.000 N 
ATOM     20  C   UNL     1      -1.070  14.440  23.137  0.00  0.00    +0.000 C 
ATOM     21  O   UNL     1      -0.940  14.588  24.352  0.00  0.00    +0.000 OA
ATOM     22  H   UNL     1      -2.331  14.789  21.566  0.00  0.00    +0.000 HD
BRANCH  19  28
ATOM     23  C   UNL     1      -6.435  11.913  20.394  0.00  0.00    +0.000 C 
ATOM     24  C   UNL     1      -6.469  13.069  21.400  0.00  0.00    +0.000 C 
ATOM     25  C   UNL     1      -7.797  13.831  21.250  0.00  0.00    +0.000 C 
ATOM     26  S   UNL     1      -5.082  14.240  20.955  0.00  0.00    +0.000 S 
ATOM     27  C   UNL     1      -4.878  14.787  22.673  0.00  0.00    +0.000 C 
ATOM     28  CA  UNL     1      -3.517  14.648  23.374  0.00  0.00    +0.000 C 
ATOM     29  C   UNL     1      -4.120  13.356  23.983  0.00  0.00    +0.000 C 
ATOM     30  O   UNL     1      -3.725  12.365  24.539  0.00  0.00    +0.000 OA
ATOM     31  N   UNL     1      -5.363  13.674  23.488  0.00  0.00    +0.000 N 
ATOM     32  CA  UNL     1      -6.164  12.613  22.846  0.00  0.00    +0.000 C 
BRANCH  32  33
ATOM     33  C   UNL     1      -7.465  12.324  23.628  0.00  0.00    +0.000 C 
ATOM     34  O   UNL     1      -7.881  13.219  24.400  0.00  0.00    +0.000 OA
ATOM     35  OXT UNL     1      -7.916  11.136  23.477  0.00  0.00    +0.000 OA
ENDBRANCH  32  33
ENDBRANCH  19  28
ENDBRANCH   1  20
TORSDOF 5
ENDMDL
MODEL 4
REMARK VINA RESULT:      -6.6      6.841      9.513
REMARK  Name = 
REMARK  7 active torsions:
REMARK  status: ('A' for Active; 'I' for Inactive)
REMARK    1  A    between atoms: C_1  and  C_2
REMARK    2  A    between atoms: C_2  and  C_3
REMARK    3  A    between atoms: CA_6  and  N_7
REMARK    4  A    between atoms: C_8  and  CA_10
REMARK    5  A    between atoms: CA_10  and  N_11
REMARK    6  A    between atoms: CA_10  and  C_20
REMARK    7  A    between atoms: CA_29  and  C_30
REMARK                            x       y       z     vdW  Elec       q    Type
REMARK                         _______ _______ _______ _____ _____    ______ ____
ROOT
ATOM      1  CA  UNL     1       2.410   5.957  18.520  0.00  0.00    +0.000 C 
ENDROOT
BRANCH   1   2
ATOM      2  N   UNL     1       3.710   5.667  17.929  0.00  0.00    +0.000 N 
ATOM      3  C   UNL     1       3.916   4.622  17.065  0.00  0.00    +0.000 C 
ATOM      4  O   UNL     1       3.018   3.869  16.695  0.00  0.00    +0.000 OA
ATOM      5  N   UNL     1       5.206   4.533  16.587  0.00  0.00    +0.000 N 
ATOM      6  C   UNL     1       5.563   3.694  15.465  0.00  0.00    +0.000 C 
ATOM      7  C   UNL     1       7.009   4.078  15.194  0.00  0.00    +0.000 C 
ATOM      8  N   UNL     1       7.462   4.565  16.466  0.00  0.00    +0.000 N 
ATOM      9  C   UNL     1       6.375   4.980  17.224  0.00  0.00    +0.000 C 
ATOM     10  O   UNL     1       6.454   5.641  18.247  0.00  0.00    +0.000 OA
ATOM     11  H   UNL     1       4.530   5.960  18.451  0.00  0.00    +0.000 HD
ATOM     12  H   UNL     1       8.381   4.939  16.670  0.00  0.00    +0.000 HD
ENDBRANCH   1   2
BRANCH   1  13
ATOM     13  C   UNL     1       2.000   4.920  19.558  0.00  0.00    +0.000 A 
ATOM     14  C   UNL     1       2.733   4.804  20.751  0.00  0.00    +0.000 A 
ATOM     15  C   UNL     1       2.464   3.774  21.656  0.00  0.00    +0.000 A 
ATOM     16  C   UNL     1       1.459   2.849  21.384  0.00  0.00    +0.000 A 
ATOM     17  C   UNL     1       0.716   2.953  20.210  0.00  0.00    +0.000 A 
ATOM     18  C   UNL     1       0.988   3.977  19.301  0.00  0.00    +0.000 A 
ENDBRANCH   1  13
BRANCH   1  20
ATOM     19  N   UNL     1       1.427   7.610  20.056  0.00  0.00    +0.000 N 
ATOM     20  C   UNL     1       2.471   7.356  19.185  0.00  0.00    +0.000 C 
ATOM     21  O   UNL     1       3.292   8.226  18.897  0.00  0.00    +0.000 OA
ATOM     22  H   UNL     1       0.582   7.054  19.908  0.00  0.00    +0.000 HD
BRANCH  19  28
ATOM     23  C   UNL     1      -2.433  10.411  17.738  0.00  0.00    +0.000 C 
ATOM     24  C   UNL     1      -1.250  10.941  18.556  0.00  0.00    +0.000 C 
ATOM     25  C   UNL     1      -0.935  12.381  18.116  0.00  0.00    +0.000 C 
ATOM     26  S   UNL     1       0.234   9.880  18.150  0.00  0.00    +0.000 S 
ATOM     27  C   UNL     1       0.976  10.141  19.785  0.00  0.00    +0.000 C 
ATOM     28  CA  UNL     1       1.315   8.940  20.682  0.00  0.00    +0.000 C 
ATOM     29  C   UNL     1      -0.035   9.256  21.377  0.00  0.00    +0.000 C 
ATOM     30  O   UNL     1      -0.806   8.705  22.117  0.00  0.00    +0.000 OA
ATOM     31  N   UNL     1      -0.149  10.432  20.672  0.00  0.00    +0.000 N 
ATOM     32  CA  UNL     1      -1.456  10.780  20.080  0.00  0.00    +0.000 C 
BRANCH  32  33
ATOM     33  C   UNL     1      -2.045  12.065  20.705  0.00  0.00    +0.000 C 
ATOM     34  O   UNL     1      -1.331  12.680  21.531  0.00  0.00    +0.000 OA
ATOM     35  OXT UNL     1      -3.261  12.296  20.383  0.00  0.00    +0.000 OA
ENDBRANCH  32  33
ENDBRANCH  19  28
ENDBRANCH   1  20
TORSDOF 5
ENDMDL
MODEL 5
REMARK VINA RESULT:      -6.6      6.557      9.524
REMARK  Name = 
REMARK  7 active torsions:
REMARK  status: ('A' for Active; 'I' for Inactive)
REMARK    1  A    between atoms: C_1  and  C_2
REMARK    2  A    between atoms: C_2  and  C_3
REMARK    3  A    between atoms: CA_6  and  N_7
REMARK    4  A    between atoms: C_8  and  CA_10
REMARK    5  A    between atoms: CA_10  and  N_11
REMARK    6  A    between atoms: CA_10  and  C_20
REMARK    7  A    between atoms: CA_29  and  C_30
REMARK                            x       y       z     vdW  Elec       q    Type
REMARK                         _______ _______ _______ _____ _____    ______ ____
ROOT
ATOM      1  CA  UNL     1       2.386   6.058  18.945  0.00  0.00    +0.000 C 
ENDROOT
BRANCH   1   2
ATOM      2  N   UNL     1       3.842   6.131  18.940  0.00  0.00    +0.000 N 
ATOM      3  C   UNL     1       4.556   6.623  17.877  0.00  0.00    +0.000 C 
ATOM      4  O   UNL     1       4.029   7.072  16.862  0.00  0.00    +0.000 OA
ATOM      5  N   UNL     1       5.920   6.641  18.077  0.00  0.00    +0.000 N 
ATOM      6  C   UNL     1       6.822   7.372  17.215  0.00  0.00    +0.000 C 
ATOM      7  C   UNL     1       8.155   7.259  17.936  0.00  0.00    +0.000 C 
ATOM      8  N   UNL     1       8.009   6.057  18.708  0.00  0.00    +0.000 N 
ATOM      9  C   UNL     1       6.662   5.792  18.913  0.00  0.00    +0.000 C 
ATOM     10  O   UNL     1       6.229   4.976  19.711  0.00  0.00    +0.000 OA
ATOM     11  H   UNL     1       4.339   5.461  19.518  0.00  0.00    +0.000 HD
ATOM     12  H   UNL     1       8.695   5.668  19.344  0.00  0.00    +0.000 HD
ENDBRANCH   1   2
BRANCH   1  13
ATOM     13  C   UNL     1       1.877   4.623  18.905  0.00  0.00    +0.000 A 
ATOM     14  C   UNL     1       1.074   4.141  19.952  0.00  0.00    +0.000 A 
ATOM     15  C   UNL     1       0.708   2.794  20.008  0.00  0.00    +0.000 A 
ATOM     16  C   UNL     1       1.136   1.911  19.019  0.00  0.00    +0.000 A 
ATOM     17  C   UNL     1       1.925   2.372  17.969  0.00  0.00    +0.000 A 
ATOM     18  C   UNL     1       2.298   3.717  17.915  0.00  0.00    +0.000 A 
ENDBRANCH   1  13
BRANCH   1  20
ATOM     19  N   UNL     1       1.782   8.132  20.122  0.00  0.00    +0.000 N 
ATOM     20  C   UNL     1       1.862   6.755  20.225  0.00  0.00    +0.000 C 
ATOM     21  O   UNL     1       1.642   6.179  21.290  0.00  0.00    +0.000 OA
ATOM     22  H   UNL     1       2.378   8.559  19.411  0.00  0.00    +0.000 HD
BRANCH  19  28
ATOM     23  C   UNL     1      -1.285  12.203  18.660  0.00  0.00    +0.000 C 
ATOM     24  C   UNL     1      -0.469  12.059  19.949  0.00  0.00    +0.000 C 
ATOM     25  C   UNL     1      -0.121  13.457  20.487  0.00  0.00    +0.000 C 
ATOM     26  S   UNL     1       1.130  11.199  19.508  0.00  0.00    +0.000 S 
ATOM     27  C   UNL     1       1.283  10.450  21.154  0.00  0.00    +0.000 C 
ATOM     28  CA  UNL     1       1.388   8.924  21.303  0.00  0.00    +0.000 C 
ATOM     29  C   UNL     1      -0.131   8.989  21.605  0.00  0.00    +0.000 C 
ATOM     30  O   UNL     1      -1.065   8.231  21.646  0.00  0.00    +0.000 OA
ATOM     31  N   UNL     1      -0.086  10.363  21.660  0.00  0.00    +0.000 N 
ATOM     32  CA  UNL     1      -1.149  11.137  20.989  0.00  0.00    +0.000 C 
BRANCH  32  33
ATOM     33  C   UNL     1      -1.989  11.952  21.997  0.00  0.00    +0.000 C 
ATOM     34  O   UNL     1      -1.572  12.009  23.177  0.00  0.00    +0.000 OA
ATOM     35  OXT UNL     1      -3.095  12.391  21.525  0.00  0.00    +0.000 OA
ENDBRANCH  32  33
ENDBRANCH  19  28
ENDBRANCH   1  20
TORSDOF 5
ENDMDL
MODEL 6
REMARK VINA RESULT:      -6.6      4.857      8.067
REMARK  Name = 
REMARK  7 active torsions:
REMARK  status: ('A' for Active; 'I' for Inactive)
REMARK    1  A    between atoms: C_1  and  C_2
REMARK    2  A    between atoms: C_2  and  C_3
REMARK    3  A    between atoms: CA_6  and  N_7
REMARK    4  A    between atoms: C_8  and  CA_10
REMARK    5  A    between atoms: CA_10  and  N_11
REMARK    6  A    between atoms: CA_10  and  C_20
REMARK    7  A    between atoms: CA_29  and  C_30
REMARK                            x       y       z     vdW  Elec       q    Type
REMARK                         _______ _______ _______ _____ _____    ______ ____
ROOT
ATOM      1  CA  UNL     1      -1.566  10.550  19.339  0.00  0.00    +0.000 C 
ENDROOT
BRANCH   1   2
ATOM      2  N   UNL     1      -1.743  11.763  20.128  0.00  0.00    +0.000 N 
ATOM      3  C   UNL     1      -1.425  11.835  21.460  0.00  0.00    +0.000 C 
ATOM      4  O   UNL     1      -0.936  10.897  22.086  0.00  0.00    +0.000 OA
ATOM      5  N   UNL     1      -1.633  13.077  22.021  0.00  0.00    +0.000 N 
ATOM      6  C   UNL     1      -1.103  13.443  23.316  0.00  0.00    +0.000 C 
ATOM      7  C   UNL     1      -1.412  14.928  23.408  0.00  0.00    +0.000 C 
ATOM      8  N   UNL     1      -2.538  15.083  22.531  0.00  0.00    +0.000 N 
ATOM      9  C   UNL     1      -2.560  14.046  21.607  0.00  0.00    +0.000 C 
ATOM     10  O   UNL     1      -3.256  14.024  20.605  0.00  0.00    +0.000 OA
ATOM     11  H   UNL     1      -2.464  12.409  19.823  0.00  0.00    +0.000 HD
ATOM     12  H   UNL     1      -3.013  15.951  22.314  0.00  0.00    +0.000 HD
ENDBRANCH   1   2
BRANCH   1  13
ATOM     13  C   UNL     1      -2.263  10.629  17.988  0.00  0.00    +0.000 A 
ATOM     14  C   UNL     1      -3.403  11.438  17.840  0.00  0.00    +0.000 A 
ATOM     15  C   UNL     1      -4.139  11.424  16.653  0.00  0.00    +0.000 A 
ATOM     16  C   UNL     1      -3.747  10.604  15.597  0.00  0.00    +0.000 A 
ATOM     17  C   UNL     1      -2.615   9.803  15.721  0.00  0.00    +0.000 A 
ATOM     18  C   UNL     1      -1.882   9.810  16.909  0.00  0.00    +0.000 A 
ENDBRANCH   1  13
BRANCH   1  20
ATOM     19  N   UNL     1       0.414   9.116  19.625  0.00  0.00    +0.000 N 
ATOM     20  C   UNL     1      -0.048  10.319  19.123  0.00  0.00    +0.000 C 
ATOM     21  O   UNL     1       0.723  11.159  18.660  0.00  0.00    +0.000 OA
ATOM     22  H   UNL     1      -0.156   8.694  20.361  0.00  0.00    +0.000 HD
BRANCH  19  28
ATOM     23  C   UNL     1       1.179   3.995  18.486  0.00  0.00    +0.000 C 
ATOM     24  C   UNL     1       2.159   4.963  19.156  0.00  0.00    +0.000 C 
ATOM     25  C   UNL     1       3.140   4.165  20.033  0.00  0.00    +0.000 C 
ATOM     26  S   UNL     1       1.165   6.080  20.278  0.00  0.00    +0.000 S 
ATOM     27  C   UNL     1       2.338   7.453  20.092  0.00  0.00    +0.000 C 
ATOM     28  CA  UNL     1       1.857   8.816  19.569  0.00  0.00    +0.000 C 
ATOM     29  C   UNL     1       2.399   8.326  18.202  0.00  0.00    +0.000 C 
ATOM     30  O   UNL     1       2.288   8.623  17.041  0.00  0.00    +0.000 OA
ATOM     31  N   UNL     1       2.982   7.232  18.798  0.00  0.00    +0.000 N 
ATOM     32  CA  UNL     1       2.847   5.913  18.148  0.00  0.00    +0.000 C 
BRANCH  32  33
ATOM     33  C   UNL     1       4.215   5.355  17.695  0.00  0.00    +0.000 C 
ATOM     34  O   UNL     1       5.241   5.916  18.146  0.00  0.00    +0.000 OA
ATOM     35  OXT UNL     1       4.140   4.435  16.808  0.00  0.00    +0.000 OA
ENDBRANCH  32  33
ENDBRANCH  19  28
ENDBRANCH   1  20
TORSDOF 5
ENDMDL
MODEL 7
REMARK VINA RESULT:      -6.6      3.527      7.969
REMARK  Name = 
REMARK  7 active torsions:
REMARK  status: ('A' for Active; 'I' for Inactive)
REMARK    1  A    between atoms: C_1  and  C_2
REMARK    2  A    between atoms: C_2  and  C_3
REMARK    3  A    between atoms: CA_6  and  N_7
REMARK    4  A    between atoms: C_8  and  CA_10
REMARK    5  A    between atoms: CA_10  and  N_11
REMARK    6  A    between atoms: CA_10  and  C_20
REMARK    7  A    between atoms: CA_29  and  C_30
REMARK                            x       y       z     vdW  Elec       q    Type
REMARK                         _______ _______ _______ _____ _____    ______ ____
ROOT
ATOM      1  CA  UNL     1       0.209  12.461  20.796  0.00  0.00    +0.000 C 
ENDROOT
BRANCH   1   2
ATOM      2  N   UNL     1       1.436  13.248  20.813  0.00  0.00    +0.000 N 
ATOM      3  C   UNL     1       2.062  13.672  19.669  0.00  0.00    +0.000 C 
ATOM      4  O   UNL     1       1.622  13.454  18.542  0.00  0.00    +0.000 OA
ATOM      5  N   UNL     1       3.190  14.431  19.894  0.00  0.00    +0.000 N 
ATOM      6  C   UNL     1       3.827  15.205  18.851  0.00  0.00    +0.000 C 
ATOM      7  C   UNL     1       4.874  16.006  19.607  0.00  0.00    +0.000 C 
ATOM      8  N   UNL     1       5.125  15.202  20.769  0.00  0.00    +0.000 N 
ATOM      9  C   UNL     1       4.035  14.377  21.014  0.00  0.00    +0.000 C 
ATOM     10  O   UNL     1       3.857  13.750  22.045  0.00  0.00    +0.000 OA
ATOM     11  H   UNL     1       2.044  13.135  21.618  0.00  0.00    +0.000 HD
ATOM     12  H   UNL     1       5.756  15.428  21.528  0.00  0.00    +0.000 HD
ENDBRANCH   1   2
BRANCH   1  13
ATOM     13  C   UNL     1       0.470  10.974  20.995  0.00  0.00    +0.000 A 
ATOM     14  C   UNL     1       1.003  10.214  19.941  0.00  0.00    +0.000 A 
ATOM     15  C   UNL     1       1.124   8.827  20.052  0.00  0.00    +0.000 A 
ATOM     16  C   UNL     1       0.719   8.180  21.217  0.00  0.00    +0.000 A 
ATOM     17  C   UNL     1       0.196   8.918  22.276  0.00  0.00    +0.000 A 
ATOM     18  C   UNL     1       0.067  10.303  22.164  0.00  0.00    +0.000 A 
ENDBRANCH   1  13
BRANCH   1  20
ATOM     19  N   UNL     1      -2.018  13.231  21.506  0.00  0.00    +0.000 N 
ATOM     20  C   UNL     1      -0.723  12.977  21.921  0.00  0.00    +0.000 C 
ATOM     21  O   UNL     1      -0.348  13.258  23.059  0.00  0.00    +0.000 OA
ATOM     22  H   UNL     1      -2.137  13.403  20.506  0.00  0.00    +0.000 HD
BRANCH  19  28
ATOM     23  C   UNL     1      -6.914  11.478  20.473  0.00  0.00    +0.000 C 
ATOM     24  C   UNL     1      -6.513  12.740  21.245  0.00  0.00    +0.000 C 
ATOM     25  C   UNL     1      -7.647  13.775  21.148  0.00  0.00    +0.000 C 
ATOM     26  S   UNL     1      -5.007  13.458  20.401  0.00  0.00    +0.000 S 
ATOM     27  C   UNL     1      -4.382  14.182  21.944  0.00  0.00    +0.000 C 
ATOM     28  CA  UNL     1      -2.981  13.816  22.458  0.00  0.00    +0.000 C 
ATOM     29  C   UNL     1      -3.730  12.814  23.373  0.00  0.00    +0.000 C 
ATOM     30  O   UNL     1      -3.467  11.847  24.039  0.00  0.00    +0.000 OA
ATOM     31  N   UNL     1      -4.943  13.352  23.009  0.00  0.00    +0.000 N 
ATOM     32  CA  UNL     1      -6.059  12.438  22.692  0.00  0.00    +0.000 C 
BRANCH  32  33
ATOM     33  C   UNL     1      -7.228  12.593  23.690  0.00  0.00    +0.000 C 
ATOM     34  O   UNL     1      -7.323  13.685  24.297  0.00  0.00    +0.000 OA
ATOM     35  OXT UNL     1      -7.913  11.526  23.866  0.00  0.00    +0.000 OA
ENDBRANCH  32  33
ENDBRANCH  19  28
ENDBRANCH   1  20
TORSDOF 5
ENDMDL
MODEL 8
REMARK VINA RESULT:      -6.5      2.341      3.714
REMARK  Name = 
REMARK  7 active torsions:
REMARK  status: ('A' for Active; 'I' for Inactive)
REMARK    1  A    between atoms: C_1  and  C_2
REMARK    2  A    between atoms: C_2  and  C_3
REMARK    3  A    between atoms: CA_6  and  N_7
REMARK    4  A    between atoms: C_8  and  CA_10
REMARK    5  A    between atoms: CA_10  and  N_11
REMARK    6  A    between atoms: CA_10  and  C_20
REMARK    7  A    between atoms: CA_29  and  C_30
REMARK                            x       y       z     vdW  Elec       q    Type
REMARK                         _______ _______ _______ _____ _____    ______ ____
ROOT
ATOM      1  CA  UNL     1      -2.131  12.301  22.665  0.00  0.00    +0.000 C 
ENDROOT
BRANCH   1   2
ATOM      2  N   UNL     1      -3.171  12.548  21.674  0.00  0.00    +0.000 N 
ATOM      3  C   UNL     1      -4.501  12.631  21.999  0.00  0.00    +0.000 C 
ATOM      4  O   UNL     1      -4.919  12.538  23.151  0.00  0.00    +0.000 OA
ATOM      5  N   UNL     1      -5.325  12.903  20.928  0.00  0.00    +0.000 N 
ATOM      6  C   UNL     1      -6.704  13.308  21.091  0.00  0.00    +0.000 C 
ATOM      7  C   UNL     1      -7.124  13.679  19.679  0.00  0.00    +0.000 C 
ATOM      8  N   UNL     1      -6.233  12.908  18.859  0.00  0.00    +0.000 N 
ATOM      9  C   UNL     1      -5.090  12.587  19.580  0.00  0.00    +0.000 C 
ATOM     10  O   UNL     1      -4.066  12.137  19.093  0.00  0.00    +0.000 OA
ATOM     11  H   UNL     1      -2.979  12.253  20.722  0.00  0.00    +0.000 HD
ATOM     12  H   UNL     1      -6.196  12.913  17.847  0.00  0.00    +0.000 HD
ENDBRANCH   1   2
BRANCH   1  13
ATOM     13  C   UNL     1      -1.211  11.154  22.267  0.00  0.00    +0.000 A 
ATOM     14  C   UNL     1      -0.716  10.286  23.255  0.00  0.00    +0.000 A 
ATOM     15  C   UNL     1       0.234   9.313  22.936  0.00  0.00    +0.000 A 
ATOM     16  C   UNL     1       0.701   9.191  21.630  0.00  0.00    +0.000 A 
ATOM     17  C   UNL     1       0.215  10.037  20.636  0.00  0.00    +0.000 A 
ATOM     18  C   UNL     1      -0.729  11.015  20.953  0.00  0.00    +0.000 A 
ENDBRANCH   1  13
BRANCH   1  20
ATOM     19  N   UNL     1      -1.069  14.278  21.655  0.00  0.00    +0.000 N 
ATOM     20  C   UNL     1      -1.297  13.596  22.837  0.00  0.00    +0.000 C 
ATOM     21  O   UNL     1      -0.770  13.948  23.892  0.00  0.00    +0.000 OA
ATOM     22  H   UNL     1      -1.140  13.721  20.802  0.00  0.00    +0.000 HD
BRANCH  19  28
ATOM     23  C   UNL     1       2.943  13.682  18.240  0.00  0.00    +0.000 C 
ATOM     24  C   UNL     1       2.864  14.635  19.438  0.00  0.00    +0.000 C 
ATOM     25  C   UNL     1       4.287  14.948  19.931  0.00  0.00    +0.000 C 
ATOM     26  S   UNL     1       1.965  13.740  20.810  0.00  0.00    +0.000 S 
ATOM     27  C   UNL     1       1.309  15.283  21.504  0.00  0.00    +0.000 C 
ATOM     28  CA  UNL     1      -0.208  15.475  21.666  0.00  0.00    +0.000 C 
ATOM     29  C   UNL     1      -0.110  16.257  20.331  0.00  0.00    +0.000 C 
ATOM     30  O   UNL     1      -0.855  16.647  19.471  0.00  0.00    +0.000 OA
ATOM     31  N   UNL     1       1.264  16.217  20.380  0.00  0.00    +0.000 N 
ATOM     32  CA  UNL     1       2.009  15.891  19.148  0.00  0.00    +0.000 C 
BRANCH  32  33
ATOM     33  C   UNL     1       2.888  17.073  18.680  0.00  0.00    +0.000 C 
ATOM     34  O   UNL     1       3.305  17.045  17.499  0.00  0.00    +0.000 OA
ATOM     35  OXT UNL     1       3.185  17.905  19.606  0.00  0.00    +0.000 OA
ENDBRANCH  32  33
ENDBRANCH  19  28
ENDBRANCH   1  20
TORSDOF 5
ENDMDL
MODEL 9
REMARK VINA RESULT:      -6.5      2.427      4.050
REMARK  Name = 
REMARK  7 active torsions:
REMARK  status: ('A' for Active; 'I' for Inactive)
REMARK    1  A    between atoms: C_1  and  C_2
REMARK    2  A    between atoms: C_2  and  C_3
REMARK    3  A    between atoms: CA_6  and  N_7
REMARK    4  A    between atoms: C_8  and  CA_10
REMARK    5  A    between atoms: CA_10  and  N_11
REMARK    6  A    between atoms: CA_10  and  C_20
REMARK    7  A    between atoms: CA_29  and  C_30
REMARK                            x       y       z     vdW  Elec       q    Type
REMARK                         _______ _______ _______ _____ _____    ______ ____
ROOT
ATOM      1  CA  UNL     1      -2.041  12.485  23.166  0.00  0.00    +0.000 C 
ENDROOT
BRANCH   1   2
ATOM      2  N   UNL     1      -3.321  12.684  22.497  0.00  0.00    +0.000 N 
ATOM      3  C   UNL     1      -4.525  12.536  23.138  0.00  0.00    +0.000 C 
ATOM      4  O   UNL     1      -4.621  12.258  24.331  0.00  0.00    +0.000 OA
ATOM      5  N   UNL     1      -5.620  12.800  22.343  0.00  0.00    +0.000 N 
ATOM      6  C   UNL     1      -6.948  12.980  22.886  0.00  0.00    +0.000 C 
ATOM      7  C   UNL     1      -7.754  13.438  21.682  0.00  0.00    +0.000 C 
ATOM      8  N   UNL     1      -7.019  12.898  20.573  0.00  0.00    +0.000 N 
ATOM      9  C   UNL     1      -5.702  12.671  20.948  0.00  0.00    +0.000 C 
ATOM     10  O   UNL     1      -4.791  12.431  20.172  0.00  0.00    +0.000 OA
ATOM     11  H   UNL     1      -3.345  12.526  21.494  0.00  0.00    +0.000 HD
ATOM     12  H   UNL     1      -7.243  13.019  19.592  0.00  0.00    +0.000 HD
ENDBRANCH   1   2
BRANCH   1  13
ATOM     13  C   UNL     1      -1.216  11.378  22.523  0.00  0.00    +0.000 A 
ATOM     14  C   UNL     1      -1.019  11.378  21.132  0.00  0.00    +0.000 A 
ATOM     15  C   UNL     1      -0.383  10.305  20.502  0.00  0.00    +0.000 A 
ATOM     16  C   UNL     1       0.067   9.220  21.252  0.00  0.00    +0.000 A 
ATOM     17  C   UNL     1      -0.112   9.207  22.632  0.00  0.00    +0.000 A 
ATOM     18  C   UNL     1      -0.753  10.275  23.263  0.00  0.00    +0.000 A 
ENDBRANCH   1  13
BRANCH   1  20
ATOM     19  N   UNL     1      -1.010  14.280  21.837  0.00  0.00    +0.000 N 
ATOM     20  C   UNL     1      -1.247  13.815  23.118  0.00  0.00    +0.000 C 
ATOM     21  O   UNL     1      -0.756  14.367  24.102  0.00  0.00    +0.000 OA
ATOM     22  H   UNL     1      -1.045  13.577  21.097  0.00  0.00    +0.000 HD
BRANCH  19  28
ATOM     23  C   UNL     1       2.751  13.376  18.211  0.00  0.00    +0.000 C 
ATOM     24  C   UNL     1       2.736  14.457  19.297  0.00  0.00    +0.000 C 
ATOM     25  C   UNL     1       4.183  14.849  19.642  0.00  0.00    +0.000 C 
ATOM     26  S   UNL     1       1.966  13.706  20.825  0.00  0.00    +0.000 S 
ATOM     27  C   UNL     1       1.322  15.305  21.392  0.00  0.00    +0.000 C 
ATOM     28  CA  UNL     1      -0.182  15.487  21.649  0.00  0.00    +0.000 C 
ATOM     29  C   UNL     1      -0.206  16.115  20.232  0.00  0.00    +0.000 C 
ATOM     30  O   UNL     1      -1.023  16.392  19.393  0.00  0.00    +0.000 OA
ATOM     31  N   UNL     1       1.169  16.106  20.179  0.00  0.00    +0.000 N 
ATOM     32  CA  UNL     1       1.828  15.656  18.937  0.00  0.00    +0.000 C 
BRANCH  32  33
ATOM     33  C   UNL     1       2.639  16.793  18.274  0.00  0.00    +0.000 C 
ATOM     34  O   UNL     1       3.085  16.584  17.122  0.00  0.00    +0.000 OA
ATOM     35  OXT UNL     1       2.857  17.797  19.038  0.00  0.00    +0.000 OA
ENDBRANCH  32  33
ENDBRANCH  19  28
ENDBRANCH   1  20
TORSDOF 5
ENDMDL
