MODEL 1
REMARK VINA RESULT:      -6.4      0.000      0.000
REMARK  Name = 
REMARK  5 active torsions:
REMARK  status: ('A' for Active; 'I' for Inactive)
REMARK    1  A    between atoms: C_1  and  O_2
REMARK    2  A    between atoms: O_2  and  C_3
REMARK    3  A    between atoms: C_3  and  C_4
REMARK    4  A    between atoms: C_11  and  C_12
REMARK    5  A    between atoms: C_19  and  C_20
REMARK                            x       y       z     vdW  Elec       q    Type
REMARK                         _______ _______ _______ _____ _____    ______ ____
ROOT
ATOM      1  C   UNL     1       0.297   9.396  21.523  0.00  0.00    +0.000 A 
ATOM      2  N   UNL     1       0.392  10.392  20.640  0.00  0.00    +0.000 NA
ATOM      3  S   UNL     1       1.304   9.805  19.372  0.00  0.00    +0.000 S 
ATOM      4  C   UNL     1       1.537   8.245  20.098  0.00  0.00    +0.000 A 
ATOM      5  N   UNL     1       2.257   7.208  19.570  0.00  0.00    +0.000 N 
ATOM      6  C   UNL     1       2.845   6.273  20.536  0.00  0.00    +0.000 C 
ATOM      7  C   UNL     1       2.770   4.816  20.121  0.00  0.00    +0.000 C 
ATOM      8  C   UNL     1       3.128   4.577  18.660  0.00  0.00    +0.000 C 
ATOM      9  C   UNL     1       2.221   5.447  17.780  0.00  0.00    +0.000 C 
ATOM     10  C   UNL     1       2.200   6.941  18.122  0.00  0.00    +0.000 C 
ATOM     11  C   UNL     1       3.223   7.738  17.304  0.00  0.00    +0.000 C 
ATOM     12  N   UNL     1       0.940   8.195  21.268  0.00  0.00    +0.000 NA
ENDROOT
BRANCH   8  13
ATOM     13  C   UNL     1       4.615   4.644  18.333  0.00  0.00    +0.000 A 
ATOM     14  C   UNL     1       5.055   4.185  17.082  0.00  0.00    +0.000 A 
ATOM     15  C   UNL     1       6.400   4.271  16.714  0.00  0.00    +0.000 A 
ATOM     16  C   UNL     1       7.334   4.818  17.588  0.00  0.00    +0.000 A 
ATOM     17  C   UNL     1       6.925   5.259  18.841  0.00  0.00    +0.000 A 
ATOM     18  C   UNL     1       5.582   5.157  19.209  0.00  0.00    +0.000 A 
ENDBRANCH   8  13
BRANCH   1  19
ATOM     19  C   UNL     1      -0.445   9.571  22.812  0.00  0.00    +0.000 C 
BRANCH  19  21
ATOM     20  C   UNL     1      -1.776  11.516  23.127  0.00  0.00    +0.000 C 
ATOM     21  O   UNL     1      -0.493  10.927  23.292  0.00  0.00    +0.000 OA
ENDBRANCH  19  21
ENDBRANCH   1  19
TORSDOF 3
ENDMDL
MODEL 2
REMARK VINA RESULT:      -6.3      0.091      1.049
REMARK  Name = 
REMARK  5 active torsions:
REMARK  status: ('A' for Active; 'I' for Inactive)
REMARK    1  A    between atoms: C_1  and  O_2
REMARK    2  A    between atoms: O_2  and  C_3
REMARK    3  A    between atoms: C_3  and  C_4
REMARK    4  A    between atoms: C_11  and  C_12
REMARK    5  A    between atoms: C_19  and  C_20
REMARK                            x       y       z     vdW  Elec       q    Type
REMARK                         _______ _______ _______ _____ _____    ______ ____
ROOT
ATOM      1  C   UNL     1       0.291   9.345  21.531  0.00  0.00    +0.000 A 
ATOM      2  N   UNL     1       0.344  10.342  20.645  0.00  0.00    +0.000 NA
ATOM      3  S   UNL     1       1.242   9.775  19.358  0.00  0.00    +0.000 S 
ATOM      4  C   UNL     1       1.526   8.221  20.080  0.00  0.00    +0.000 A 
ATOM      5  N   UNL     1       2.259   7.201  19.537  0.00  0.00    +0.000 N 
ATOM      6  C   UNL     1       2.888   6.281  20.491  0.00  0.00    +0.000 C 
ATOM      7  C   UNL     1       2.839   4.822  20.080  0.00  0.00    +0.000 C 
ATOM      8  C   UNL     1       3.171   4.589  18.611  0.00  0.00    +0.000 C 
ATOM      9  C   UNL     1       2.224   5.437  17.750  0.00  0.00    +0.000 C 
ATOM     10  C   UNL     1       2.177   6.931  18.091  0.00  0.00    +0.000 C 
ATOM     11  C   UNL     1       3.163   7.750  17.251  0.00  0.00    +0.000 C 
ATOM     12  N   UNL     1       0.956   8.159  21.263  0.00  0.00    +0.000 NA
ENDROOT
BRANCH   8  13
ATOM     13  C   UNL     1       4.648   4.690  18.252  0.00  0.00    +0.000 A 
ATOM     14  C   UNL     1       5.547   5.178  19.212  0.00  0.00    +0.000 A 
ATOM     15  C   UNL     1       6.918   5.244  18.950  0.00  0.00    +0.000 A 
ATOM     16  C   UNL     1       7.420   4.822  17.722  0.00  0.00    +0.000 A 
ATOM     17  C   UNL     1       6.545   4.356  16.748  0.00  0.00    +0.000 A 
ATOM     18  C   UNL     1       5.175   4.307  17.010  0.00  0.00    +0.000 A 
ENDBRANCH   8  13
BRANCH   1  19
ATOM     19  C   UNL     1      -0.427   9.505  22.835  0.00  0.00    +0.000 C 
BRANCH  19  21
ATOM     20  C   UNL     1      -1.728  11.467  23.163  0.00  0.00    +0.000 C 
ATOM     21  O   UNL     1      -0.458  10.854  23.336  0.00  0.00    +0.000 OA
ENDBRANCH  19  21
ENDBRANCH   1  19
TORSDOF 3
ENDMDL
MODEL 3
REMARK VINA RESULT:      -6.0      2.630      4.280
REMARK  Name = 
REMARK  5 active torsions:
REMARK  status: ('A' for Active; 'I' for Inactive)
REMARK    1  A    between atoms: C_1  and  O_2
REMARK    2  A    between atoms: O_2  and  C_3
REMARK    3  A    between atoms: C_3  and  C_4
REMARK    4  A    between atoms: C_11  and  C_12
REMARK    5  A    between atoms: C_19  and  C_20
REMARK                            x       y       z     vdW  Elec       q    Type
REMARK                         _______ _______ _______ _____ _____    ______ ____
ROOT
ATOM      1  C   UNL     1       1.821   6.564  20.345  0.00  0.00    +0.000 A 
ATOM      2  N   UNL     1       1.390   5.331  20.614  0.00  0.00    +0.000 NA
ATOM      3  S   UNL     1       2.303   4.301  19.673  0.00  0.00    +0.000 S 
ATOM      4  C   UNL     1       3.217   5.582  18.937  0.00  0.00    +0.000 A 
ATOM      5  N   UNL     1       4.193   5.436  17.989  0.00  0.00    +0.000 N 
ATOM      6  C   UNL     1       4.382   6.573  17.080  0.00  0.00    +0.000 C 
ATOM      7  C   UNL     1       5.832   6.880  16.757  0.00  0.00    +0.000 C 
ATOM      8  C   UNL     1       6.668   5.642  16.459  0.00  0.00    +0.000 C 
ATOM      9  C   UNL     1       6.561   4.676  17.647  0.00  0.00    +0.000 C 
ATOM     10  C   UNL     1       5.137   4.309  18.078  0.00  0.00    +0.000 C 
ATOM     11  C   UNL     1       4.637   3.028  17.399  0.00  0.00    +0.000 C 
ATOM     12  N   UNL     1       2.819   6.746  19.400  0.00  0.00    +0.000 NA
ENDROOT
BRANCH   8  13
ATOM     13  C   UNL     1       6.444   5.017  15.088  0.00  0.00    +0.000 A 
ATOM     14  C   UNL     1       7.470   5.093  14.133  0.00  0.00    +0.000 A 
ATOM     15  C   UNL     1       7.334   4.493  12.879  0.00  0.00    +0.000 A 
ATOM     16  C   UNL     1       6.171   3.804  12.551  0.00  0.00    +0.000 A 
ATOM     17  C   UNL     1       5.133   3.736  13.473  0.00  0.00    +0.000 A 
ATOM     18  C   UNL     1       5.268   4.350  14.719  0.00  0.00    +0.000 A 
ENDBRANCH   8  13
BRANCH   1  19
ATOM     19  C   UNL     1       1.208   7.761  21.003  0.00  0.00    +0.000 C 
BRANCH  19  21
ATOM     20  C   UNL     1       0.121   9.769  20.342  0.00  0.00    +0.000 C 
ATOM     21  O   UNL     1       1.293   8.973  20.232  0.00  0.00    +0.000 OA
ENDBRANCH  19  21
ENDBRANCH   1  19
TORSDOF 3
ENDMDL
MODEL 4
REMARK VINA RESULT:      -5.7      5.030      8.157
REMARK  Name = 
REMARK  5 active torsions:
REMARK  status: ('A' for Active; 'I' for Inactive)
REMARK    1  A    between atoms: C_1  and  O_2
REMARK    2  A    between atoms: O_2  and  C_3
REMARK    3  A    between atoms: C_3  and  C_4
REMARK    4  A    between atoms: C_11  and  C_12
REMARK    5  A    between atoms: C_19  and  C_20
REMARK                            x       y       z     vdW  Elec       q    Type
REMARK                         _______ _______ _______ _____ _____    ______ ____
ROOT
ATOM      1  C   UNL     1       6.653   4.126  13.541  0.00  0.00    +0.000 A 
ATOM      2  N   UNL     1       7.705   4.877  13.876  0.00  0.00    +0.000 NA
ATOM      3  S   UNL     1       7.452   5.356  15.453  0.00  0.00    +0.000 S 
ATOM      4  C   UNL     1       5.925   4.540  15.589  0.00  0.00    +0.000 A 
ATOM      5  N   UNL     1       5.107   4.533  16.686  0.00  0.00    +0.000 N 
ATOM      6  C   UNL     1       3.675   4.354  16.421  0.00  0.00    +0.000 C 
ATOM      7  C   UNL     1       2.963   3.453  17.413  0.00  0.00    +0.000 C 
ATOM      8  C   UNL     1       3.345   3.719  18.863  0.00  0.00    +0.000 C 
ATOM      9  C   UNL     1       4.869   3.597  19.004  0.00  0.00    +0.000 C 
ATOM     10  C   UNL     1       5.694   4.451  18.034  0.00  0.00    +0.000 C 
ATOM     11  C   UNL     1       6.066   5.813  18.632  0.00  0.00    +0.000 C 
ATOM     12  N   UNL     1       5.632   3.936  14.459  0.00  0.00    +0.000 NA
ENDROOT
BRANCH   8  13
ATOM     13  C   UNL     1       2.730   4.968  19.482  0.00  0.00    +0.000 A 
ATOM     14  C   UNL     1       2.908   6.202  18.839  0.00  0.00    +0.000 A 
ATOM     15  C   UNL     1       2.322   7.367  19.338  0.00  0.00    +0.000 A 
ATOM     16  C   UNL     1       1.545   7.325  20.491  0.00  0.00    +0.000 A 
ATOM     17  C   UNL     1       1.373   6.118  21.158  0.00  0.00    +0.000 A 
ATOM     18  C   UNL     1       1.974   4.959  20.663  0.00  0.00    +0.000 A 
ENDBRANCH   8  13
BRANCH   1  19
ATOM     19  C   UNL     1       6.530   3.532  12.172  0.00  0.00    +0.000 C 
BRANCH  19  21
ATOM     20  C   UNL     1       4.316   3.204  11.370  0.00  0.00    +0.000 C 
ATOM     21  O   UNL     1       5.432   2.613  12.020  0.00  0.00    +0.000 OA
ENDBRANCH  19  21
ENDBRANCH   1  19
TORSDOF 3
ENDMDL
MODEL 5
REMARK VINA RESULT:      -5.7      1.081      1.449
REMARK  Name = 
REMARK  5 active torsions:
REMARK  status: ('A' for Active; 'I' for Inactive)
REMARK    1  A    between atoms: C_1  and  O_2
REMARK    2  A    between atoms: O_2  and  C_3
REMARK    3  A    between atoms: C_3  and  C_4
REMARK    4  A    between atoms: C_11  and  C_12
REMARK    5  A    between atoms: C_19  and  C_20
REMARK                            x       y       z     vdW  Elec       q    Type
REMARK                         _______ _______ _______ _____ _____    ______ ____
ROOT
ATOM      1  C   UNL     1      -0.189  10.249  21.750  0.00  0.00    +0.000 A 
ATOM      2  N   UNL     1      -0.030  11.305  20.950  0.00  0.00    +0.000 NA
ATOM      3  S   UNL     1       0.899  10.781  19.667  0.00  0.00    +0.000 S 
ATOM      4  C   UNL     1       1.053   9.162  20.276  0.00  0.00    +0.000 A 
ATOM      5  N   UNL     1       1.751   8.142  19.691  0.00  0.00    +0.000 N 
ATOM      6  C   UNL     1       2.274   7.114  20.598  0.00  0.00    +0.000 C 
ATOM      7  C   UNL     1       2.160   5.696  20.070  0.00  0.00    +0.000 C 
ATOM      8  C   UNL     1       2.555   5.556  18.606  0.00  0.00    +0.000 C 
ATOM      9  C   UNL     1       1.707   6.525  17.770  0.00  0.00    +0.000 C 
ATOM     10  C   UNL     1       1.730   7.988  18.226  0.00  0.00    +0.000 C 
ATOM     11  C   UNL     1       2.807   8.805  17.502  0.00  0.00    +0.000 C 
ATOM     12  N   UNL     1       0.418   9.047  21.421  0.00  0.00    +0.000 NA
ENDROOT
BRANCH   8  13
ATOM     13  C   UNL     1       4.052   5.590  18.328  0.00  0.00    +0.000 A 
ATOM     14  C   UNL     1       4.943   5.309  19.375  0.00  0.00    +0.000 A 
ATOM     15  C   UNL     1       6.323   5.278  19.159  0.00  0.00    +0.000 A 
ATOM     16  C   UNL     1       6.843   5.528  17.893  0.00  0.00    +0.000 A 
ATOM     17  C   UNL     1       5.981   5.831  16.846  0.00  0.00    +0.000 A 
ATOM     18  C   UNL     1       4.604   5.875  17.070  0.00  0.00    +0.000 A 
ENDBRANCH   8  13
BRANCH   1  19
ATOM     19  C   UNL     1      -0.965  10.354  23.027  0.00  0.00    +0.000 C 
BRANCH  19  21
ATOM     20  C   UNL     1      -2.611  12.040  23.339  0.00  0.00    +0.000 C 
ATOM     21  O   UNL     1      -1.235  11.703  23.450  0.00  0.00    +0.000 OA
ENDBRANCH  19  21
ENDBRANCH   1  19
TORSDOF 3
ENDMDL
MODEL 6
REMARK VINA RESULT:      -5.6      2.604      4.284
REMARK  Name = 
REMARK  5 active torsions:
REMARK  status: ('A' for Active; 'I' for Inactive)
REMARK    1  A    between atoms: C_1  and  O_2
REMARK    2  A    between atoms: O_2  and  C_3
REMARK    3  A    between atoms: C_3  and  C_4
REMARK    4  A    between atoms: C_11  and  C_12
REMARK    5  A    between atoms: C_19  and  C_20
REMARK                            x       y       z     vdW  Elec       q    Type
REMARK                         _______ _______ _______ _____ _____    ______ ____
ROOT
ATOM      1  C   UNL     1       1.990   6.763  20.286  0.00  0.00    +0.000 A 
ATOM      2  N   UNL     1       1.519   5.549  20.579  0.00  0.00    +0.000 NA
ATOM      3  S   UNL     1       2.407   4.472  19.666  0.00  0.00    +0.000 S 
ATOM      4  C   UNL     1       3.364   5.709  18.909  0.00  0.00    +0.000 A 
ATOM      5  N   UNL     1       4.340   5.514  17.971  0.00  0.00    +0.000 N 
ATOM      6  C   UNL     1       4.569   6.624  17.039  0.00  0.00    +0.000 C 
ATOM      7  C   UNL     1       6.030   6.881  16.719  0.00  0.00    +0.000 C 
ATOM      8  C   UNL     1       6.830   5.612  16.454  0.00  0.00    +0.000 C 
ATOM      9  C   UNL     1       6.687   4.676  17.662  0.00  0.00    +0.000 C 
ATOM     10  C   UNL     1       5.249   4.361  18.091  0.00  0.00    +0.000 C 
ATOM     11  C   UNL     1       4.715   3.081  17.437  0.00  0.00    +0.000 C 
ATOM     12  N   UNL     1       2.998   6.894  19.344  0.00  0.00    +0.000 NA
ENDROOT
BRANCH   8  13
ATOM     13  C   UNL     1       6.596   4.965  15.095  0.00  0.00    +0.000 A 
ATOM     14  C   UNL     1       5.392   4.280  14.868  0.00  0.00    +0.000 A 
ATOM     15  C   UNL     1       5.108   3.713  13.623  0.00  0.00    +0.000 A 
ATOM     16  C   UNL     1       6.020   3.817  12.578  0.00  0.00    +0.000 A 
ATOM     17  C   UNL     1       7.229   4.471  12.787  0.00  0.00    +0.000 A 
ATOM     18  C   UNL     1       7.514   5.023  14.037  0.00  0.00    +0.000 A 
ENDBRANCH   8  13
BRANCH   1  19
ATOM     19  C   UNL     1       1.409   7.992  20.914  0.00  0.00    +0.000 C 
BRANCH  19  21
ATOM     20  C   UNL     1       0.049   9.863  20.364  0.00  0.00    +0.000 C 
ATOM     21  O   UNL     1       1.173   9.075  19.996  0.00  0.00    +0.000 OA
ENDBRANCH  19  21
ENDBRANCH   1  19
TORSDOF 3
ENDMDL
MODEL 7
REMARK VINA RESULT:      -5.6      5.062      8.379
REMARK  Name = 
REMARK  5 active torsions:
REMARK  status: ('A' for Active; 'I' for Inactive)
REMARK    1  A    between atoms: C_1  and  O_2
REMARK    2  A    between atoms: O_2  and  C_3
REMARK    3  A    between atoms: C_3  and  C_4
REMARK    4  A    between atoms: C_11  and  C_12
REMARK    5  A    between atoms: C_19  and  C_20
REMARK                            x       y       z     vdW  Elec       q    Type
REMARK                         _______ _______ _______ _____ _____    ______ ____
ROOT
ATOM      1  C   UNL     1       6.677   4.115  13.517  0.00  0.00    +0.000 A 
ATOM      2  N   UNL     1       7.732   4.847  13.879  0.00  0.00    +0.000 NA
ATOM      3  S   UNL     1       7.450   5.324  15.453  0.00  0.00    +0.000 S 
ATOM      4  C   UNL     1       5.907   4.531  15.549  0.00  0.00    +0.000 A 
ATOM      5  N   UNL     1       5.064   4.532  16.626  0.00  0.00    +0.000 N 
ATOM      6  C   UNL     1       3.636   4.377  16.328  0.00  0.00    +0.000 C 
ATOM      7  C   UNL     1       2.887   3.484  17.298  0.00  0.00    +0.000 C 
ATOM      8  C   UNL     1       3.239   3.737  18.758  0.00  0.00    +0.000 C 
ATOM      9  C   UNL     1       4.757   3.590  18.934  0.00  0.00    +0.000 C 
ATOM     10  C   UNL     1       5.618   4.435  17.988  0.00  0.00    +0.000 C 
ATOM     11  C   UNL     1       5.997   5.788  18.601  0.00  0.00    +0.000 C 
ATOM     12  N   UNL     1       5.631   3.937  14.409  0.00  0.00    +0.000 NA
ENDROOT
BRANCH   8  13
ATOM     13  C   UNL     1       2.629   4.992  19.369  0.00  0.00    +0.000 A 
ATOM     14  C   UNL     1       1.922   4.884  20.576  0.00  0.00    +0.000 A 
ATOM     15  C   UNL     1       1.387   6.012  21.202  0.00  0.00    +0.000 A 
ATOM     16  C   UNL     1       1.547   7.273  20.636  0.00  0.00    +0.000 A 
ATOM     17  C   UNL     1       2.224   7.401  19.430  0.00  0.00    +0.000 A 
ATOM     18  C   UNL     1       2.744   6.269  18.801  0.00  0.00    +0.000 A 
ENDBRANCH   8  13
BRANCH   1  19
ATOM     19  C   UNL     1       6.576   3.529  12.143  0.00  0.00    +0.000 C 
BRANCH  19  21
ATOM     20  C   UNL     1       5.991   1.401  11.257  0.00  0.00    +0.000 C 
ATOM     21  O   UNL     1       5.548   2.532  11.995  0.00  0.00    +0.000 OA
ENDBRANCH  19  21
ENDBRANCH   1  19
TORSDOF 3
ENDMDL
MODEL 8
REMARK VINA RESULT:      -5.6      5.953      8.302
REMARK  Name = 
REMARK  5 active torsions:
REMARK  status: ('A' for Active; 'I' for Inactive)
REMARK    1  A    between atoms: C_1  and  O_2
REMARK    2  A    between atoms: O_2  and  C_3
REMARK    3  A    between atoms: C_3  and  C_4
REMARK    4  A    between atoms: C_11  and  C_12
REMARK    5  A    between atoms: C_19  and  C_20
REMARK                            x       y       z     vdW  Elec       q    Type
REMARK                         _______ _______ _______ _____ _____    ______ ____
ROOT
ATOM      1  C   UNL     1      -3.427  10.264  14.616  0.00  0.00    +0.000 A 
ATOM      2  N   UNL     1      -4.546  10.884  14.996  0.00  0.00    +0.000 NA
ATOM      3  S   UNL     1      -4.269  11.436  16.546  0.00  0.00    +0.000 S 
ATOM      4  C   UNL     1      -2.660  10.789  16.624  0.00  0.00    +0.000 A 
ATOM      5  N   UNL     1      -1.809  10.866  17.693  0.00  0.00    +0.000 N 
ATOM      6  C   UNL     1      -0.822   9.787  17.810  0.00  0.00    +0.000 C 
ATOM      7  C   UNL     1       0.557  10.245  18.248  0.00  0.00    +0.000 C 
ATOM      8  C   UNL     1       0.532  11.253  19.390  0.00  0.00    +0.000 C 
ATOM      9  C   UNL     1      -0.340  12.447  18.977  0.00  0.00    +0.000 C 
ATOM     10  C   UNL     1      -1.753  12.101  18.494  0.00  0.00    +0.000 C 
ATOM     11  C   UNL     1      -2.782  12.149  19.631  0.00  0.00    +0.000 C 
ATOM     12  N   UNL     1      -2.365  10.170  15.502  0.00  0.00    +0.000 NA
ENDROOT
BRANCH   8  13
ATOM     13  C   UNL     1       0.234  10.673  20.767  0.00  0.00    +0.000 A 
ATOM     14  C   UNL     1       0.729   9.399  21.087  0.00  0.00    +0.000 A 
ATOM     15  C   UNL     1       0.526   8.844  22.353  0.00  0.00    +0.000 A 
ATOM     16  C   UNL     1      -0.174   9.549  23.326  0.00  0.00    +0.000 A 
ATOM     17  C   UNL     1      -0.692  10.803  23.025  0.00  0.00    +0.000 A 
ATOM     18  C   UNL     1      -0.500  11.346  21.754  0.00  0.00    +0.000 A 
ENDBRANCH   8  13
BRANCH   1  19
ATOM     19  C   UNL     1      -3.317   9.620  13.269  0.00  0.00    +0.000 C 
BRANCH  19  21
ATOM     20  C   UNL     1      -5.321   9.358  12.017  0.00  0.00    +0.000 C 
ATOM     21  O   UNL     1      -4.188  10.179  12.269  0.00  0.00    +0.000 OA
ENDBRANCH  19  21
ENDBRANCH   1  19
TORSDOF 3
ENDMDL
MODEL 9
REMARK VINA RESULT:      -5.5      5.994      8.355
REMARK  Name = 
REMARK  5 active torsions:
REMARK  status: ('A' for Active; 'I' for Inactive)
REMARK    1  A    between atoms: C_1  and  O_2
REMARK    2  A    between atoms: O_2  and  C_3
REMARK    3  A    between atoms: C_3  and  C_4
REMARK    4  A    between atoms: C_11  and  C_12
REMARK    5  A    between atoms: C_19  and  C_20
REMARK                            x       y       z     vdW  Elec       q    Type
REMARK                         _______ _______ _______ _____ _____    ______ ____
ROOT
ATOM      1  C   UNL     1      -3.482  10.428  14.861  0.00  0.00    +0.000 A 
ATOM      2  N   UNL     1      -4.625  10.957  15.300  0.00  0.00    +0.000 NA
ATOM      3  S   UNL     1      -4.335  11.460  16.864  0.00  0.00    +0.000 S 
ATOM      4  C   UNL     1      -2.686  10.915  16.867  0.00  0.00    +0.000 A 
ATOM      5  N   UNL     1      -1.809  11.001  17.913  0.00  0.00    +0.000 N 
ATOM      6  C   UNL     1      -0.752   9.984  17.955  0.00  0.00    +0.000 C 
ATOM      7  C   UNL     1       0.608  10.511  18.373  0.00  0.00    +0.000 C 
ATOM      8  C   UNL     1       0.555  11.466  19.558  0.00  0.00    +0.000 C 
ATOM      9  C   UNL     1      -0.403  12.618  19.224  0.00  0.00    +0.000 C 
ATOM     10  C   UNL     1      -1.806  12.202  18.767  0.00  0.00    +0.000 C 
ATOM     11  C   UNL     1      -2.799  12.135  19.933  0.00  0.00    +0.000 C 
ATOM     12  N   UNL     1      -2.389  10.364  15.711  0.00  0.00    +0.000 NA
ENDROOT
BRANCH   8  13
ATOM     13  C   UNL     1       0.338  10.810  20.916  0.00  0.00    +0.000 A 
ATOM     14  C   UNL     1      -0.480  11.453  21.857  0.00  0.00    +0.000 A 
ATOM     15  C   UNL     1      -0.751  10.869  23.097  0.00  0.00    +0.000 A 
ATOM     16  C   UNL     1      -0.210   9.629  23.423  0.00  0.00    +0.000 A 
ATOM     17  C   UNL     1       0.621   8.984  22.516  0.00  0.00    +0.000 A 
ATOM     18  C   UNL     1       0.901   9.579  21.285  0.00  0.00    +0.000 A 
ENDBRANCH   8  13
BRANCH   1  19
ATOM     19  C   UNL     1      -3.374   9.849  13.484  0.00  0.00    +0.000 C 
BRANCH  19  21
ATOM     20  C   UNL     1      -4.737   9.966  11.539  0.00  0.00    +0.000 C 
ATOM     21  O   UNL     1      -4.636   9.509  12.881  0.00  0.00    +0.000 OA
ENDBRANCH  19  21
ENDBRANCH   1  19
TORSDOF 3
ENDMDL
