MODEL 1
REMARK VINA RESULT:      -6.7      0.000      0.000
REMARK  Name = 
REMARK  10 active torsions:
REMARK  status: ('A' for Active; 'I' for Inactive)
REMARK    1  A    between atoms: C_1  and  C_2
REMARK    2  A    between atoms: C_4  and  C_5
REMARK    3  A    between atoms: N_7  and  C_8
REMARK    4  A    between atoms: C_8  and  C_9
REMARK    5  A    between atoms: C_9  and  N_10
REMARK    6  A    between atoms: N_10  and  C_11
REMARK    7  A    between atoms: N_10  and  C_12
REMARK    8  A    between atoms: N_16  and  C_17
REMARK    9  A    between atoms: C_17  and  C_18
REMARK   10  A    between atoms: C_17  and  C_19
REMARK                            x       y       z     vdW  Elec       q    Type
REMARK                         _______ _______ _______ _____ _____    ______ ____
ROOT
ATOM      1  C   UNL     1       2.641   8.443  17.868  0.00  0.00    +0.000 C 
ATOM      2  C   UNL     1       3.326   7.108  17.956  0.00  0.00    +0.000 A 
ATOM      3  C   UNL     1       4.408   6.828  17.118  0.00  0.00    +0.000 A 
ATOM      4  C   UNL     1       5.043   5.584  17.211  0.00  0.00    +0.000 A 
ATOM      5  C   UNL     1       4.559   4.678  18.170  0.00  0.00    +0.000 A 
ATOM      6  C   UNL     1       4.857   3.373  18.618  0.00  0.00    +0.000 A 
ATOM      7  N   UNL     1       4.041   2.956  19.591  0.00  0.00    +0.000 NA
ATOM      8  N   UNL     1       3.207   4.010  19.775  0.00  0.00    +0.000 N 
ATOM      9  C   UNL     1       3.475   5.070  18.942  0.00  0.00    +0.000 A 
ATOM     10  N   UNL     1       2.824   6.249  18.878  0.00  0.00    +0.000 NA
ENDROOT
BRANCH   4  11
ATOM     11  C   UNL     1       6.204   5.200  16.373  0.00  0.00    +0.000 C 
ATOM     12  O   UNL     1       7.318   5.110  16.878  0.00  0.00    +0.000 OA
ATOM     13  N   UNL     1       5.969   4.921  15.046  0.00  0.00    +0.000 N 
ATOM     14  H   UNL     1       5.044   4.955  14.637  0.00  0.00    +0.000 HD
BRANCH  13  15
ATOM     15  C   UNL     1       7.058   4.485  14.190  0.00  0.00    +0.000 C 
BRANCH  15  16
ATOM     16  C   UNL     1       6.648   4.335  12.714  0.00  0.00    +0.000 C 
BRANCH  16  17
ATOM     17  N   UNL     1       6.004   3.046  12.375  0.00  0.00    +0.000 NA
ATOM     18  C   UNL     1       4.672   3.250  11.796  0.00  0.00    +0.000 C 
ATOM     19  C   UNL     1       6.842   2.321  11.410  0.00  0.00    +0.000 C 
ENDBRANCH  16  17
ENDBRANCH  15  16
ENDBRANCH  13  15
ENDBRANCH   4  11
BRANCH   8  20
ATOM     20  C   UNL     1       2.142   3.920  20.770  0.00  0.00    +0.000 C 
ATOM     21  C   UNL     1       0.775   3.753  20.103  0.00  0.00    +0.000 C 
ATOM     22  C   UNL     1       2.399   2.790  21.768  0.00  0.00    +0.000 C 
ENDBRANCH   8  20
TORSDOF 5
ENDMDL
MODEL 2
REMARK VINA RESULT:      -6.6      3.793      5.801
REMARK  Name = 
REMARK  10 active torsions:
REMARK  status: ('A' for Active; 'I' for Inactive)
REMARK    1  A    between atoms: C_1  and  C_2
REMARK    2  A    between atoms: C_4  and  C_5
REMARK    3  A    between atoms: N_7  and  C_8
REMARK    4  A    between atoms: C_8  and  C_9
REMARK    5  A    between atoms: C_9  and  N_10
REMARK    6  A    between atoms: N_10  and  C_11
REMARK    7  A    between atoms: N_10  and  C_12
REMARK    8  A    between atoms: N_16  and  C_17
REMARK    9  A    between atoms: C_17  and  C_18
REMARK   10  A    between atoms: C_17  and  C_19
REMARK                            x       y       z     vdW  Elec       q    Type
REMARK                         _______ _______ _______ _____ _____    ______ ____
ROOT
ATOM      1  C   UNL     1       6.267   4.192  14.029  0.00  0.00    +0.000 C 
ATOM      2  C   UNL     1       6.032   4.574  15.464  0.00  0.00    +0.000 A 
ATOM      3  C   UNL     1       6.930   5.428  16.110  0.00  0.00    +0.000 A 
ATOM      4  C   UNL     1       6.699   5.783  17.444  0.00  0.00    +0.000 A 
ATOM      5  C   UNL     1       5.548   5.266  18.064  0.00  0.00    +0.000 A 
ATOM      6  C   UNL     1       4.920   5.337  19.326  0.00  0.00    +0.000 A 
ATOM      7  N   UNL     1       3.802   4.609  19.394  0.00  0.00    +0.000 NA
ATOM      8  N   UNL     1       3.706   4.063  18.156  0.00  0.00    +0.000 N 
ATOM      9  C   UNL     1       4.735   4.425  17.319  0.00  0.00    +0.000 A 
ATOM     10  N   UNL     1       4.924   4.045  16.039  0.00  0.00    +0.000 NA
ENDROOT
BRANCH   4  11
ATOM     11  C   UNL     1       7.588   6.690  18.208  0.00  0.00    +0.000 C 
ATOM     12  O   UNL     1       8.222   6.259  19.166  0.00  0.00    +0.000 OA
ATOM     13  N   UNL     1       7.694   7.992  17.777  0.00  0.00    +0.000 N 
ATOM     14  H   UNL     1       7.204   8.339  16.964  0.00  0.00    +0.000 HD
BRANCH  13  15
ATOM     15  C   UNL     1       8.594   8.912  18.453  0.00  0.00    +0.000 C 
BRANCH  15  16
ATOM     16  C   UNL     1       8.741  10.260  17.727  0.00  0.00    +0.000 C 
BRANCH  16  17
ATOM     17  N   UNL     1       9.337  11.344  18.540  0.00  0.00    +0.000 NA
ATOM     18  C   UNL     1      10.762  11.516  18.238  0.00  0.00    +0.000 C 
ATOM     19  C   UNL     1       8.632  12.604  18.267  0.00  0.00    +0.000 C 
ENDBRANCH  16  17
ENDBRANCH  15  16
ENDBRANCH  13  15
ENDBRANCH   4  11
BRANCH   8  20
ATOM     20  C   UNL     1       2.593   3.169  17.847  0.00  0.00    +0.000 C 
ATOM     21  C   UNL     1       2.657   1.896  18.693  0.00  0.00    +0.000 C 
ATOM     22  C   UNL     1       1.245   3.869  18.023  0.00  0.00    +0.000 C 
ENDBRANCH   8  20
TORSDOF 5
ENDMDL
MODEL 3
REMARK VINA RESULT:      -6.3      2.884      7.365
REMARK  Name = 
REMARK  10 active torsions:
REMARK  status: ('A' for Active; 'I' for Inactive)
REMARK    1  A    between atoms: C_1  and  C_2
REMARK    2  A    between atoms: C_4  and  C_5
REMARK    3  A    between atoms: N_7  and  C_8
REMARK    4  A    between atoms: C_8  and  C_9
REMARK    5  A    between atoms: C_9  and  N_10
REMARK    6  A    between atoms: N_10  and  C_11
REMARK    7  A    between atoms: N_10  and  C_12
REMARK    8  A    between atoms: N_16  and  C_17
REMARK    9  A    between atoms: C_17  and  C_18
REMARK   10  A    between atoms: C_17  and  C_19
REMARK                            x       y       z     vdW  Elec       q    Type
REMARK                         _______ _______ _______ _____ _____    ______ ____
ROOT
ATOM      1  C   UNL     1       2.130   2.374  18.259  0.00  0.00    +0.000 C 
ATOM      2  C   UNL     1       2.721   3.722  17.953  0.00  0.00    +0.000 A 
ATOM      3  C   UNL     1       2.187   4.865  18.553  0.00  0.00    +0.000 A 
ATOM      4  C   UNL     1       2.748   6.115  18.267  0.00  0.00    +0.000 A 
ATOM      5  C   UNL     1       3.847   6.149  17.392  0.00  0.00    +0.000 A 
ATOM      6  C   UNL     1       4.707   7.117  16.832  0.00  0.00    +0.000 A 
ATOM      7  N   UNL     1       5.619   6.593  16.009  0.00  0.00    +0.000 NA
ATOM      8  N   UNL     1       5.344   5.265  16.042  0.00  0.00    +0.000 N 
ATOM      9  C   UNL     1       4.285   4.946  16.856  0.00  0.00    +0.000 A 
ATOM     10  N   UNL     1       3.767   3.723  17.092  0.00  0.00    +0.000 NA
ENDROOT
BRANCH   4  11
ATOM     11  C   UNL     1       2.257   7.381  18.863  0.00  0.00    +0.000 C 
ATOM     12  O   UNL     1       2.253   7.521  20.081  0.00  0.00    +0.000 OA
ATOM     13  N   UNL     1       1.853   8.376  18.003  0.00  0.00    +0.000 N 
ATOM     14  H   UNL     1       1.893   8.278  16.997  0.00  0.00    +0.000 HD
BRANCH  13  15
ATOM     15  C   UNL     1       1.416   9.659  18.528  0.00  0.00    +0.000 C 
BRANCH  15  16
ATOM     16  C   UNL     1      -0.042   9.995  18.170  0.00  0.00    +0.000 C 
BRANCH  16  17
ATOM     17  N   UNL     1      -0.895  10.369  19.321  0.00  0.00    +0.000 NA
ATOM     18  C   UNL     1      -0.222  10.095  20.596  0.00  0.00    +0.000 C 
ATOM     19  C   UNL     1      -1.218  11.800  19.245  0.00  0.00    +0.000 C 
ENDBRANCH  16  17
ENDBRANCH  15  16
ENDBRANCH  13  15
ENDBRANCH   4  11
BRANCH   8  20
ATOM     20  C   UNL     1       6.140   4.345  15.233  0.00  0.00    +0.000 C 
ATOM     21  C   UNL     1       5.460   4.057  13.893  0.00  0.00    +0.000 C 
ATOM     22  C   UNL     1       7.560   4.870  15.018  0.00  0.00    +0.000 C 
ENDBRANCH   8  20
TORSDOF 5
ENDMDL
MODEL 4
REMARK VINA RESULT:      -6.3      1.916      2.710
REMARK  Name = 
REMARK  10 active torsions:
REMARK  status: ('A' for Active; 'I' for Inactive)
REMARK    1  A    between atoms: C_1  and  C_2
REMARK    2  A    between atoms: C_4  and  C_5
REMARK    3  A    between atoms: N_7  and  C_8
REMARK    4  A    between atoms: C_8  and  C_9
REMARK    5  A    between atoms: C_9  and  N_10
REMARK    6  A    between atoms: N_10  and  C_11
REMARK    7  A    between atoms: N_10  and  C_12
REMARK    8  A    between atoms: N_16  and  C_17
REMARK    9  A    between atoms: C_17  and  C_18
REMARK   10  A    between atoms: C_17  and  C_19
REMARK                            x       y       z     vdW  Elec       q    Type
REMARK                         _______ _______ _______ _____ _____    ______ ____
ROOT
ATOM      1  C   UNL     1       8.161   5.606  19.656  0.00  0.00    +0.000 C 
ATOM      2  C   UNL     1       7.132   5.184  18.644  0.00  0.00    +0.000 A 
ATOM      3  C   UNL     1       7.462   5.166  17.287  0.00  0.00    +0.000 A 
ATOM      4  C   UNL     1       6.499   4.766  16.353  0.00  0.00    +0.000 A 
ATOM      5  C   UNL     1       5.239   4.382  16.843  0.00  0.00    +0.000 A 
ATOM      6  C   UNL     1       4.010   3.923  16.321  0.00  0.00    +0.000 A 
ATOM      7  N   UNL     1       3.089   3.710  17.264  0.00  0.00    +0.000 NA
ATOM      8  N   UNL     1       3.736   4.031  18.413  0.00  0.00    +0.000 N 
ATOM      9  C   UNL     1       5.031   4.445  18.213  0.00  0.00    +0.000 A 
ATOM     10  N   UNL     1       5.922   4.837  19.147  0.00  0.00    +0.000 NA
ENDROOT
BRANCH   4  11
ATOM     11  C   UNL     1       6.759   4.705  14.895  0.00  0.00    +0.000 C 
ATOM     12  O   UNL     1       7.486   5.541  14.369  0.00  0.00    +0.000 OA
ATOM     13  N   UNL     1       6.190   3.671  14.188  0.00  0.00    +0.000 N 
ATOM     14  H   UNL     1       5.623   2.958  14.626  0.00  0.00    +0.000 HD
BRANCH  13  15
ATOM     15  C   UNL     1       6.456   3.528  12.766  0.00  0.00    +0.000 C 
BRANCH  15  16
ATOM     16  C   UNL     1       5.565   2.474  12.086  0.00  0.00    +0.000 C 
BRANCH  16  17
ATOM     17  N   UNL     1       6.231   1.687  11.024  0.00  0.00    +0.000 NA
ATOM     18  C   UNL     1       7.662   2.000  10.946  0.00  0.00    +0.000 C 
ATOM     19  C   UNL     1       6.067   0.254  11.303  0.00  0.00    +0.000 C 
ENDBRANCH  16  17
ENDBRANCH  15  16
ENDBRANCH  13  15
ENDBRANCH   4  11
BRANCH   8  20
ATOM     20  C   UNL     1       3.028   3.938  19.687  0.00  0.00    +0.000 C 
ATOM     21  C   UNL     1       1.527   4.172  19.505  0.00  0.00    +0.000 C 
ATOM     22  C   UNL     1       3.287   2.598  20.377  0.00  0.00    +0.000 C 
ENDBRANCH   8  20
TORSDOF 5
ENDMDL
MODEL 5
REMARK VINA RESULT:      -6.3      3.255      7.887
REMARK  Name = 
REMARK  10 active torsions:
REMARK  status: ('A' for Active; 'I' for Inactive)
REMARK    1  A    between atoms: C_1  and  C_2
REMARK    2  A    between atoms: C_4  and  C_5
REMARK    3  A    between atoms: N_7  and  C_8
REMARK    4  A    between atoms: C_8  and  C_9
REMARK    5  A    between atoms: C_9  and  N_10
REMARK    6  A    between atoms: N_10  and  C_11
REMARK    7  A    between atoms: N_10  and  C_12
REMARK    8  A    between atoms: N_16  and  C_17
REMARK    9  A    between atoms: C_17  and  C_18
REMARK   10  A    between atoms: C_17  and  C_19
REMARK                            x       y       z     vdW  Elec       q    Type
REMARK                         _______ _______ _______ _____ _____    ______ ____
ROOT
ATOM      1  C   UNL     1       1.863   2.698  18.932  0.00  0.00    +0.000 C 
ATOM      2  C   UNL     1       2.484   3.980  18.452  0.00  0.00    +0.000 A 
ATOM      3  C   UNL     1       1.959   5.205  18.873  0.00  0.00    +0.000 A 
ATOM      4  C   UNL     1       2.548   6.393  18.425  0.00  0.00    +0.000 A 
ATOM      5  C   UNL     1       3.664   6.286  17.578  0.00  0.00    +0.000 A 
ATOM      6  C   UNL     1       4.552   7.152  16.906  0.00  0.00    +0.000 A 
ATOM      7  N   UNL     1       5.471   6.502  16.185  0.00  0.00    +0.000 NA
ATOM      8  N   UNL     1       5.172   5.197  16.400  0.00  0.00    +0.000 N 
ATOM      9  C   UNL     1       4.091   5.013  17.228  0.00  0.00    +0.000 A 
ATOM     10  N   UNL     1       3.547   3.843  17.622  0.00  0.00    +0.000 NA
ENDROOT
BRANCH   4  11
ATOM     11  C   UNL     1       2.068   7.737  18.825  0.00  0.00    +0.000 C 
ATOM     12  O   UNL     1       1.947   8.618  17.980  0.00  0.00    +0.000 OA
ATOM     13  N   UNL     1       1.737   7.930  20.147  0.00  0.00    +0.000 N 
ATOM     14  H   UNL     1       1.797   7.194  20.837  0.00  0.00    +0.000 HD
BRANCH  13  15
ATOM     15  C   UNL     1       1.207   9.210  20.585  0.00  0.00    +0.000 C 
BRANCH  15  16
ATOM     16  C   UNL     1       0.881   9.249  22.088  0.00  0.00    +0.000 C 
BRANCH  16  17
ATOM     17  N   UNL     1       0.324  10.532  22.572  0.00  0.00    +0.000 NA
ATOM     18  C   UNL     1       0.115  11.474  21.466  0.00  0.00    +0.000 C 
ATOM     19  C   UNL     1      -0.958  10.286  23.244  0.00  0.00    +0.000 C 
ENDBRANCH  16  17
ENDBRANCH  15  16
ENDBRANCH  13  15
ENDBRANCH   4  11
BRANCH   8  20
ATOM     20  C   UNL     1       5.967   4.159  15.747  0.00  0.00    +0.000 C 
ATOM     21  C   UNL     1       5.755   4.172  14.232  0.00  0.00    +0.000 C 
ATOM     22  C   UNL     1       7.452   4.293  16.087  0.00  0.00    +0.000 C 
ENDBRANCH   8  20
TORSDOF 5
ENDMDL
MODEL 6
REMARK VINA RESULT:      -6.2      0.845      1.065
REMARK  Name = 
REMARK  10 active torsions:
REMARK  status: ('A' for Active; 'I' for Inactive)
REMARK    1  A    between atoms: C_1  and  C_2
REMARK    2  A    between atoms: C_4  and  C_5
REMARK    3  A    between atoms: N_7  and  C_8
REMARK    4  A    between atoms: C_8  and  C_9
REMARK    5  A    between atoms: C_9  and  N_10
REMARK    6  A    between atoms: N_10  and  C_11
REMARK    7  A    between atoms: N_10  and  C_12
REMARK    8  A    between atoms: N_16  and  C_17
REMARK    9  A    between atoms: C_17  and  C_18
REMARK   10  A    between atoms: C_17  and  C_19
REMARK                            x       y       z     vdW  Elec       q    Type
REMARK                         _______ _______ _______ _____ _____    ______ ____
ROOT
ATOM      1  C   UNL     1       2.156   8.712  18.268  0.00  0.00    +0.000 C 
ATOM      2  C   UNL     1       2.842   7.379  18.159  0.00  0.00    +0.000 A 
ATOM      3  C   UNL     1       3.794   7.168  17.159  0.00  0.00    +0.000 A 
ATOM      4  C   UNL     1       4.431   5.925  17.070  0.00  0.00    +0.000 A 
ATOM      5  C   UNL     1       4.085   4.948  18.019  0.00  0.00    +0.000 A 
ATOM      6  C   UNL     1       4.437   3.616  18.324  0.00  0.00    +0.000 A 
ATOM      7  N   UNL     1       3.766   3.124  19.369  0.00  0.00    +0.000 NA
ATOM      8  N   UNL     1       2.971   4.156  19.745  0.00  0.00    +0.000 N 
ATOM      9  C   UNL     1       3.122   5.276  18.963  0.00  0.00    +0.000 A 
ATOM     10  N   UNL     1       2.473   6.452  19.078  0.00  0.00    +0.000 NA
ENDROOT
BRANCH   4  11
ATOM     11  C   UNL     1       5.460   5.612  16.050  0.00  0.00    +0.000 C 
ATOM     12  O   UNL     1       6.386   6.392  15.857  0.00  0.00    +0.000 OA
ATOM     13  N   UNL     1       5.348   4.416  15.377  0.00  0.00    +0.000 N 
ATOM     14  H   UNL     1       4.608   3.753  15.563  0.00  0.00    +0.000 HD
BRANCH  13  15
ATOM     15  C   UNL     1       6.359   4.030  14.407  0.00  0.00    +0.000 C 
BRANCH  15  16
ATOM     16  C   UNL     1       5.768   3.609  13.050  0.00  0.00    +0.000 C 
BRANCH  16  17
ATOM     17  N   UNL     1       6.650   3.847  11.886  0.00  0.00    +0.000 NA
ATOM     18  C   UNL     1       7.670   4.858  12.186  0.00  0.00    +0.000 C 
ATOM     19  C   UNL     1       7.314   2.591  11.511  0.00  0.00    +0.000 C 
ENDBRANCH  16  17
ENDBRANCH  15  16
ENDBRANCH  13  15
ENDBRANCH   4  11
BRANCH   8  20
ATOM     20  C   UNL     1       2.057   3.987  20.872  0.00  0.00    +0.000 C 
ATOM     21  C   UNL     1       0.615   3.809  20.392  0.00  0.00    +0.000 C 
ATOM     22  C   UNL     1       2.477   2.819  21.766  0.00  0.00    +0.000 C 
ENDBRANCH   8  20
TORSDOF 5
ENDMDL
MODEL 7
REMARK VINA RESULT:      -6.2      3.113      7.601
REMARK  Name = 
REMARK  10 active torsions:
REMARK  status: ('A' for Active; 'I' for Inactive)
REMARK    1  A    between atoms: C_1  and  C_2
REMARK    2  A    between atoms: C_4  and  C_5
REMARK    3  A    between atoms: N_7  and  C_8
REMARK    4  A    between atoms: C_8  and  C_9
REMARK    5  A    between atoms: C_9  and  N_10
REMARK    6  A    between atoms: N_10  and  C_11
REMARK    7  A    between atoms: N_10  and  C_12
REMARK    8  A    between atoms: N_16  and  C_17
REMARK    9  A    between atoms: C_17  and  C_18
REMARK   10  A    between atoms: C_17  and  C_19
REMARK                            x       y       z     vdW  Elec       q    Type
REMARK                         _______ _______ _______ _____ _____    ______ ____
ROOT
ATOM      1  C   UNL     1       2.543   2.528  20.061  0.00  0.00    +0.000 C 
ATOM      2  C   UNL     1       2.897   3.843  19.424  0.00  0.00    +0.000 A 
ATOM      3  C   UNL     1       2.333   5.024  19.913  0.00  0.00    +0.000 A 
ATOM      4  C   UNL     1       2.673   6.244  19.317  0.00  0.00    +0.000 A 
ATOM      5  C   UNL     1       3.592   6.214  18.254  0.00  0.00    +0.000 A 
ATOM      6  C   UNL     1       4.214   7.135  17.384  0.00  0.00    +0.000 A 
ATOM      7  N   UNL     1       5.030   6.552  16.502  0.00  0.00    +0.000 NA
ATOM      8  N   UNL     1       4.936   5.234  16.811  0.00  0.00    +0.000 N 
ATOM      9  C   UNL     1       4.081   4.978  17.856  0.00  0.00    +0.000 A 
ATOM     10  N   UNL     1       3.771   3.779  18.390  0.00  0.00    +0.000 NA
ENDROOT
BRANCH   4  11
ATOM     11  C   UNL     1       2.135   7.548  19.773  0.00  0.00    +0.000 C 
ATOM     12  O   UNL     1       1.976   8.458  18.966  0.00  0.00    +0.000 OA
ATOM     13  N   UNL     1       1.796   7.670  21.101  0.00  0.00    +0.000 N 
ATOM     14  H   UNL     1       1.888   6.908  21.759  0.00  0.00    +0.000 HD
BRANCH  13  15
ATOM     15  C   UNL     1       1.211   8.905  21.592  0.00  0.00    +0.000 C 
BRANCH  15  16
ATOM     16  C   UNL     1      -0.201   9.170  21.041  0.00  0.00    +0.000 C 
BRANCH  16  17
ATOM     17  N   UNL     1      -0.366  10.466  20.346  0.00  0.00    +0.000 NA
ATOM     18  C   UNL     1      -1.197  10.325  19.144  0.00  0.00    +0.000 C 
ATOM     19  C   UNL     1      -0.997  11.431  21.256  0.00  0.00    +0.000 C 
ENDBRANCH  16  17
ENDBRANCH  15  16
ENDBRANCH  13  15
ENDBRANCH   4  11
BRANCH   8  20
ATOM     20  C   UNL     1       5.692   4.256  16.033  0.00  0.00    +0.000 C 
ATOM     21  C   UNL     1       5.447   4.436  14.533  0.00  0.00    +0.000 C 
ATOM     22  C   UNL     1       7.187   4.320  16.349  0.00  0.00    +0.000 C 
ENDBRANCH   8  20
TORSDOF 5
ENDMDL
MODEL 8
REMARK VINA RESULT:      -6.2      3.066      7.309
REMARK  Name = 
REMARK  10 active torsions:
REMARK  status: ('A' for Active; 'I' for Inactive)
REMARK    1  A    between atoms: C_1  and  C_2
REMARK    2  A    between atoms: C_4  and  C_5
REMARK    3  A    between atoms: N_7  and  C_8
REMARK    4  A    between atoms: C_8  and  C_9
REMARK    5  A    between atoms: C_9  and  N_10
REMARK    6  A    between atoms: N_10  and  C_11
REMARK    7  A    between atoms: N_10  and  C_12
REMARK    8  A    between atoms: N_16  and  C_17
REMARK    9  A    between atoms: C_17  and  C_18
REMARK   10  A    between atoms: C_17  and  C_19
REMARK                            x       y       z     vdW  Elec       q    Type
REMARK                         _______ _______ _______ _____ _____    ______ ____
ROOT
ATOM      1  C   UNL     1       1.809   3.409  19.124  0.00  0.00    +0.000 C 
ATOM      2  C   UNL     1       2.524   4.610  18.571  0.00  0.00    +0.000 A 
ATOM      3  C   UNL     1       1.941   5.875  18.680  0.00  0.00    +0.000 A 
ATOM      4  C   UNL     1       2.617   6.988  18.168  0.00  0.00    +0.000 A 
ATOM      5  C   UNL     1       3.875   6.770  17.579  0.00  0.00    +0.000 A 
ATOM      6  C   UNL     1       4.885   7.536  16.959  0.00  0.00    +0.000 A 
ATOM      7  N   UNL     1       5.918   6.798  16.543  0.00  0.00    +0.000 NA
ATOM      8  N   UNL     1       5.570   5.538  16.904  0.00  0.00    +0.000 N 
ATOM      9  C   UNL     1       4.347   5.467  17.528  0.00  0.00    +0.000 A 
ATOM     10  N   UNL     1       3.726   4.364  17.994  0.00  0.00    +0.000 NA
ENDROOT
BRANCH   4  11
ATOM     11  C   UNL     1       2.084   8.369  18.246  0.00  0.00    +0.000 C 
ATOM     12  O   UNL     1       2.090   9.082  17.248  0.00  0.00    +0.000 OA
ATOM     13  N   UNL     1       1.561   8.784  19.449  0.00  0.00    +0.000 N 
ATOM     14  H   UNL     1       1.518   8.184  20.261  0.00  0.00    +0.000 HD
BRANCH  13  15
ATOM     15  C   UNL     1       0.972  10.107  19.569  0.00  0.00    +0.000 C 
BRANCH  15  16
ATOM     16  C   UNL     1      -0.553  10.113  19.368  0.00  0.00    +0.000 C 
BRANCH  16  17
ATOM     17  N   UNL     1      -1.022  10.857  18.177  0.00  0.00    +0.000 NA
ATOM     18  C   UNL     1      -2.120  10.152  17.505  0.00  0.00    +0.000 C 
ATOM     19  C   UNL     1      -1.485  12.190  18.585  0.00  0.00    +0.000 C 
ENDBRANCH  16  17
ENDBRANCH  15  16
ENDBRANCH  13  15
ENDBRANCH   4  11
BRANCH   8  20
ATOM     20  C   UNL     1       6.465   4.426  16.592  0.00  0.00    +0.000 C 
ATOM     21  C   UNL     1       6.783   4.375  15.096  0.00  0.00    +0.000 C 
ATOM     22  C   UNL     1       7.751   4.492  17.417  0.00  0.00    +0.000 C 
ENDBRANCH   8  20
TORSDOF 5
ENDMDL
MODEL 9
REMARK VINA RESULT:      -6.1      2.629      7.242
REMARK  Name = 
REMARK  10 active torsions:
REMARK  status: ('A' for Active; 'I' for Inactive)
REMARK    1  A    between atoms: C_1  and  C_2
REMARK    2  A    between atoms: C_4  and  C_5
REMARK    3  A    between atoms: N_7  and  C_8
REMARK    4  A    between atoms: C_8  and  C_9
REMARK    5  A    between atoms: C_9  and  N_10
REMARK    6  A    between atoms: N_10  and  C_11
REMARK    7  A    between atoms: N_10  and  C_12
REMARK    8  A    between atoms: N_16  and  C_17
REMARK    9  A    between atoms: C_17  and  C_18
REMARK   10  A    between atoms: C_17  and  C_19
REMARK                            x       y       z     vdW  Elec       q    Type
REMARK                         _______ _______ _______ _____ _____    ______ ____
ROOT
ATOM      1  C   UNL     1       3.324   2.099  18.537  0.00  0.00    +0.000 C 
ATOM      2  C   UNL     1       3.611   3.476  18.006  0.00  0.00    +0.000 A 
ATOM      3  C   UNL     1       2.991   4.585  18.586  0.00  0.00    +0.000 A 
ATOM      4  C   UNL     1       3.269   5.864  18.089  0.00  0.00    +0.000 A 
ATOM      5  C   UNL     1       4.185   5.963  17.028  0.00  0.00    +0.000 A 
ATOM      6  C   UNL     1       4.758   6.979  16.233  0.00  0.00    +0.000 A 
ATOM      7  N   UNL     1       5.600   6.507  15.309  0.00  0.00    +0.000 NA
ATOM      8  N   UNL     1       5.572   5.166  15.514  0.00  0.00    +0.000 N 
ATOM      9  C   UNL     1       4.733   4.787  16.534  0.00  0.00    +0.000 A 
ATOM     10  N   UNL     1       4.485   3.536  16.971  0.00  0.00    +0.000 NA
ENDROOT
BRANCH   4  11
ATOM     11  C   UNL     1       2.669   7.099  18.645  0.00  0.00    +0.000 C 
ATOM     12  O   UNL     1       2.424   7.173  19.844  0.00  0.00    +0.000 OA
ATOM     13  N   UNL     1       2.442   8.145  17.779  0.00  0.00    +0.000 N 
ATOM     14  H   UNL     1       2.681   8.101  16.797  0.00  0.00    +0.000 HD
BRANCH  13  15
ATOM     15  C   UNL     1       1.908   9.401  18.277  0.00  0.00    +0.000 C 
BRANCH  15  16
ATOM     16  C   UNL     1       0.396   9.554  18.039  0.00  0.00    +0.000 C 
BRANCH  16  17
ATOM     17  N   UNL     1      -0.270  10.563  18.893  0.00  0.00    +0.000 NA
ATOM     18  C   UNL     1      -1.668  10.761  18.494  0.00  0.00    +0.000 C 
ATOM     19  C   UNL     1      -0.228  10.122  20.294  0.00  0.00    +0.000 C 
ENDBRANCH  16  17
ENDBRANCH  15  16
ENDBRANCH  13  15
ENDBRANCH   4  11
BRANCH   8  20
ATOM     20  C   UNL     1       6.373   4.291  14.661  0.00  0.00    +0.000 C 
ATOM     21  C   UNL     1       5.541   3.737  13.503  0.00  0.00    +0.000 C 
ATOM     22  C   UNL     1       7.621   5.004  14.139  0.00  0.00    +0.000 C 
ENDBRANCH   8  20
TORSDOF 5
ENDMDL
