MODEL 1
REMARK VINA RESULT:      -8.2      0.000      0.000
REMARK  Name = 
REMARK  15 active torsions:
REMARK  status: ('A' for Active; 'I' for Inactive)
REMARK    1  A    between atoms: N_1  and  C_2
REMARK    2  A    between atoms: C_2  and  C_3
REMARK    3  A    between atoms: C_3  and  C_4
REMARK    4  A    between atoms: C_4  and  C_5
REMARK    5  A    between atoms: C_5  and  C_6
REMARK    6  A    between atoms: C_6  and  N_7
REMARK    7  A    between atoms: C_6  and  C_27
REMARK    8  A    between atoms: N_7  and  C_8
REMARK    9  A    between atoms: C_8  and  C_9
REMARK   10  A    between atoms: C_8  and  C_20
REMARK   11  A    between atoms: C_9  and  N_10
REMARK   12  A    between atoms: N_13  and  C_14
REMARK   13  A    between atoms: C_20  and  C_21
REMARK   14  A    between atoms: N_29  and  C_30
REMARK   15  A    between atoms: C_30  and  C_31
REMARK                            x       y       z     vdW  Elec       q    Type
REMARK                         _______ _______ _______ _____ _____    ______ ____
ROOT
ATOM      1  N   UNL     1       4.977   5.315  18.105  0.00  0.00    +0.000 NA
ATOM      2  H   UNL     1       4.851   4.426  18.592  0.00  0.00    +0.000 HD
ENDROOT
BRANCH   1   3
ATOM      3  C   UNL     1       3.622   5.774  17.674  0.00  0.00    +0.000 C 
BRANCH   3   4
ATOM      4  C   UNL     1       3.436   7.303  17.789  0.00  0.00    +0.000 C 
ATOM      5  O   UNL     1       4.390   8.082  17.706  0.00  0.00    +0.000 OA
ATOM      6  N   UNL     1       2.137   7.733  17.925  0.00  0.00    +0.000 N 
ATOM      7  H   UNL     1       1.461   7.008  18.128  0.00  0.00    +0.000 HD
BRANCH   6   8
ATOM      8  C   UNL     1       1.827   9.117  18.201  0.00  0.00    +0.000 C 
BRANCH   8   9
ATOM      9  C   UNL     1       1.105   9.303  19.512  0.00  0.00    +0.000 A 
ATOM     10  C   UNL     1       1.321   8.413  20.575  0.00  0.00    +0.000 A 
ATOM     11  C   UNL     1       0.694   8.611  21.808  0.00  0.00    +0.000 A 
ATOM     12  C   UNL     1      -0.154   9.701  21.993  0.00  0.00    +0.000 A 
ATOM     13  C   UNL     1      -0.366  10.600  20.951  0.00  0.00    +0.000 A 
ATOM     14  C   UNL     1       0.263  10.405  19.718  0.00  0.00    +0.000 A 
ENDBRANCH   8   9
ENDBRANCH   6   8
ENDBRANCH   3   4
BRANCH   3  15
ATOM     15  C   UNL     1       2.534   5.047  18.487  0.00  0.00    +0.000 C 
BRANCH  15  16
ATOM     16  C   UNL     1       1.771   3.986  17.691  0.00  0.00    +0.000 C 
BRANCH  16  17
ATOM     17  C   UNL     1       1.064   2.975  18.590  0.00  0.00    +0.000 C 
BRANCH  17  18
ATOM     18  C   UNL     1       1.806   2.875  19.920  0.00  0.00    +0.000 C 
BRANCH  18  19
ATOM     19  N   UNL     1       0.873   2.924  21.037  0.00  0.00    +0.000 NA
ATOM     20  H   UNL     1       0.932   3.840  21.480  0.00  0.00    +0.000 HD
ATOM     21  H   UNL     1       1.153   2.245  21.743  0.00  0.00    +0.000 HD
ENDBRANCH  18  19
ENDBRANCH  17  18
ENDBRANCH  16  17
ENDBRANCH  15  16
ENDBRANCH   3  15
ENDBRANCH   1   3
BRANCH   1  22
ATOM     22  C   UNL     1       5.951   5.103  17.009  0.00  0.00    +0.000 C 
BRANCH  22  23
ATOM     23  C   UNL     1       7.277   5.876  17.178  0.00  0.00    +0.000 C 
BRANCH  23  24
ATOM     24  N   UNL     1       7.205   7.320  16.975  0.00  0.00    +0.000 N 
ATOM     25  C   UNL     1       7.933   8.069  17.882  0.00  0.00    +0.000 C 
ATOM     26  O   UNL     1       8.501   7.544  18.832  0.00  0.00    +0.000 OA
ATOM     27  N   UNL     1       7.927   9.414  17.583  0.00  0.00    +0.000 N 
ATOM     28  H   UNL     1       7.279   7.660  16.032  0.00  0.00    +0.000 HD
ATOM     29  H   UNL     1       7.147   9.738  17.034  0.00  0.00    +0.000 HD
BRANCH  27  30
ATOM     30  C   UNL     1       8.681  10.382  18.284  0.00  0.00    +0.000 A 
ATOM     31  C   UNL     1       9.382  10.084  19.457  0.00  0.00    +0.000 A 
ATOM     32  C   UNL     1      10.077  11.077  20.153  0.00  0.00    +0.000 A 
ATOM     33  C   UNL     1      10.093  12.377  19.669  0.00  0.00    +0.000 A 
ATOM     34  C   UNL     1       9.425  12.683  18.482  0.00  0.00    +0.000 A 
ATOM     35  C   UNL     1       8.728  11.686  17.786  0.00  0.00    +0.000 A 
ENDBRANCH  27  30
ENDBRANCH  23  24
ENDBRANCH  22  23
BRANCH  22  36
ATOM     36  C   UNL     1       5.320   5.427  15.622  0.00  0.00    +0.000 C 
BRANCH  36  37
ATOM     37  C   UNL     1       5.965   4.830  14.387  0.00  0.00    +0.000 A 
ATOM     38  C   UNL     1       5.268   3.861  13.648  0.00  0.00    +0.000 A 
ATOM     39  C   UNL     1       5.812   3.322  12.479  0.00  0.00    +0.000 A 
ATOM     40  C   UNL     1       7.068   3.732  12.039  0.00  0.00    +0.000 A 
ATOM     41  C   UNL     1       7.767   4.699  12.753  0.00  0.00    +0.000 A 
ATOM     42  C   UNL     1       7.202   5.266  13.897  0.00  0.00    +0.000 A 
ENDBRANCH  36  37
ENDBRANCH  22  36
ENDBRANCH   1  22
TORSDOF 15
ENDMDL
MODEL 2
REMARK VINA RESULT:      -8.1      3.451      8.697
REMARK  Name = 
REMARK  15 active torsions:
REMARK  status: ('A' for Active; 'I' for Inactive)
REMARK    1  A    between atoms: N_1  and  C_2
REMARK    2  A    between atoms: C_2  and  C_3
REMARK    3  A    between atoms: C_3  and  C_4
REMARK    4  A    between atoms: C_4  and  C_5
REMARK    5  A    between atoms: C_5  and  C_6
REMARK    6  A    between atoms: C_6  and  N_7
REMARK    7  A    between atoms: C_6  and  C_27
REMARK    8  A    between atoms: N_7  and  C_8
REMARK    9  A    between atoms: C_8  and  C_9
REMARK   10  A    between atoms: C_8  and  C_20
REMARK   11  A    between atoms: C_9  and  N_10
REMARK   12  A    between atoms: N_13  and  C_14
REMARK   13  A    between atoms: C_20  and  C_21
REMARK   14  A    between atoms: N_29  and  C_30
REMARK   15  A    between atoms: C_30  and  C_31
REMARK                            x       y       z     vdW  Elec       q    Type
REMARK                         _______ _______ _______ _____ _____    ______ ____
ROOT
ATOM      1  N   UNL     1       4.114   6.685  18.987  0.00  0.00    +0.000 NA
ATOM      2  H   UNL     1       4.680   7.504  18.757  0.00  0.00    +0.000 HD
ENDROOT
BRANCH   1   3
ATOM      3  C   UNL     1       4.530   5.589  18.061  0.00  0.00    +0.000 C 
BRANCH   3   4
ATOM      4  C   UNL     1       5.678   6.003  17.113  0.00  0.00    +0.000 C 
ATOM      5  O   UNL     1       5.912   7.187  16.852  0.00  0.00    +0.000 OA
ATOM      6  N   UNL     1       6.453   4.972  16.637  0.00  0.00    +0.000 N 
ATOM      7  H   UNL     1       6.084   4.044  16.796  0.00  0.00    +0.000 HD
BRANCH   6   8
ATOM      8  C   UNL     1       7.459   5.193  15.623  0.00  0.00    +0.000 C 
BRANCH   8   9
ATOM      9  C   UNL     1       7.055   4.651  14.275  0.00  0.00    +0.000 A 
ATOM     10  C   UNL     1       5.908   3.855  14.142  0.00  0.00    +0.000 A 
ATOM     11  C   UNL     1       5.502   3.393  12.887  0.00  0.00    +0.000 A 
ATOM     12  C   UNL     1       6.237   3.723  11.751  0.00  0.00    +0.000 A 
ATOM     13  C   UNL     1       7.370   4.524  11.865  0.00  0.00    +0.000 A 
ATOM     14  C   UNL     1       7.776   4.989  13.119  0.00  0.00    +0.000 A 
ENDBRANCH   8   9
ENDBRANCH   6   8
ENDBRANCH   3   4
BRANCH   3  15
ATOM     15  C   UNL     1       3.320   5.101  17.241  0.00  0.00    +0.000 C 
BRANCH  15  16
ATOM     16  C   UNL     1       3.194   3.578  17.173  0.00  0.00    +0.000 C 
BRANCH  16  17
ATOM     17  C   UNL     1       3.949   2.876  18.298  0.00  0.00    +0.000 C 
BRANCH  17  18
ATOM     18  C   UNL     1       3.520   1.412  18.359  0.00  0.00    +0.000 C 
BRANCH  18  19
ATOM     19  N   UNL     1       4.514   0.611  19.059  0.00  0.00    +0.000 NA
ATOM     20  H   UNL     1       4.892  -0.085  18.418  0.00  0.00    +0.000 HD
ATOM     21  H   UNL     1       4.064   0.093  19.812  0.00  0.00    +0.000 HD
ENDBRANCH  18  19
ENDBRANCH  17  18
ENDBRANCH  16  17
ENDBRANCH  15  16
ENDBRANCH   3  15
ENDBRANCH   1   3
BRANCH   1  22
ATOM     22  C   UNL     1       2.688   7.076  18.902  0.00  0.00    +0.000 C 
BRANCH  22  23
ATOM     23  C   UNL     1       2.456   8.567  18.570  0.00  0.00    +0.000 C 
BRANCH  23  24
ATOM     24  N   UNL     1       1.306   8.861  17.723  0.00  0.00    +0.000 N 
ATOM     25  C   UNL     1       0.242   9.458  18.375  0.00  0.00    +0.000 C 
ATOM     26  O   UNL     1       0.250   9.621  19.589  0.00  0.00    +0.000 OA
ATOM     27  N   UNL     1      -0.772   9.820  17.515  0.00  0.00    +0.000 N 
ATOM     28  H   UNL     1       1.486   9.259  16.816  0.00  0.00    +0.000 HD
ATOM     29  H   UNL     1      -0.818   9.305  16.650  0.00  0.00    +0.000 HD
BRANCH  27  30
ATOM     30  C   UNL     1      -1.921  10.543  17.909  0.00  0.00    +0.000 A 
ATOM     31  C   UNL     1      -1.873  11.573  18.852  0.00  0.00    +0.000 A 
ATOM     32  C   UNL     1      -3.037  12.234  19.256  0.00  0.00    +0.000 A 
ATOM     33  C   UNL     1      -4.259  11.882  18.701  0.00  0.00    +0.000 A 
ATOM     34  C   UNL     1      -4.317  10.878  17.733  0.00  0.00    +0.000 A 
ATOM     35  C   UNL     1      -3.150  10.216  17.331  0.00  0.00    +0.000 A 
ENDBRANCH  27  30
ENDBRANCH  23  24
ENDBRANCH  22  23
BRANCH  22  36
ATOM     36  C   UNL     1       1.919   6.696  20.202  0.00  0.00    +0.000 C 
BRANCH  36  37
ATOM     37  C   UNL     1       1.739   5.226  20.522  0.00  0.00    +0.000 A 
ATOM     38  C   UNL     1       0.798   4.475  19.801  0.00  0.00    +0.000 A 
ATOM     39  C   UNL     1       0.639   3.107  20.038  0.00  0.00    +0.000 A 
ATOM     40  C   UNL     1       1.406   2.471  21.012  0.00  0.00    +0.000 A 
ATOM     41  C   UNL     1       2.351   3.199  21.727  0.00  0.00    +0.000 A 
ATOM     42  C   UNL     1       2.538   4.556  21.458  0.00  0.00    +0.000 A 
ENDBRANCH  36  37
ENDBRANCH  22  36
ENDBRANCH   1  22
TORSDOF 15
ENDMDL
MODEL 3
REMARK VINA RESULT:      -7.8      1.556      2.161
REMARK  Name = 
REMARK  15 active torsions:
REMARK  status: ('A' for Active; 'I' for Inactive)
REMARK    1  A    between atoms: N_1  and  C_2
REMARK    2  A    between atoms: C_2  and  C_3
REMARK    3  A    between atoms: C_3  and  C_4
REMARK    4  A    between atoms: C_4  and  C_5
REMARK    5  A    between atoms: C_5  and  C_6
REMARK    6  A    between atoms: C_6  and  N_7
REMARK    7  A    between atoms: C_6  and  C_27
REMARK    8  A    between atoms: N_7  and  C_8
REMARK    9  A    between atoms: C_8  and  C_9
REMARK   10  A    between atoms: C_8  and  C_20
REMARK   11  A    between atoms: C_9  and  N_10
REMARK   12  A    between atoms: N_13  and  C_14
REMARK   13  A    between atoms: C_20  and  C_21
REMARK   14  A    between atoms: N_29  and  C_30
REMARK   15  A    between atoms: C_30  and  C_31
REMARK                            x       y       z     vdW  Elec       q    Type
REMARK                         _______ _______ _______ _____ _____    ______ ____
ROOT
ATOM      1  N   UNL     1       5.320   6.614  17.204  0.00  0.00    +0.000 NA
ATOM      2  H   UNL     1       5.043   7.585  17.362  0.00  0.00    +0.000 HD
ENDROOT
BRANCH   1   3
ATOM      3  C   UNL     1       4.281   5.751  17.843  0.00  0.00    +0.000 C 
BRANCH   3   4
ATOM      4  C   UNL     1       2.905   6.445  17.956  0.00  0.00    +0.000 C 
ATOM      5  O   UNL     1       1.853   5.800  17.988  0.00  0.00    +0.000 OA
ATOM      6  N   UNL     1       2.940   7.813  18.083  0.00  0.00    +0.000 N 
ATOM      7  H   UNL     1       3.838   8.242  17.897  0.00  0.00    +0.000 HD
BRANCH   6   8
ATOM      8  C   UNL     1       1.732   8.605  18.040  0.00  0.00    +0.000 C 
BRANCH   8   9
ATOM      9  C   UNL     1       1.295   9.075  19.405  0.00  0.00    +0.000 A 
ATOM     10  C   UNL     1       0.581  10.273  19.549  0.00  0.00    +0.000 A 
ATOM     11  C   UNL     1       0.129  10.687  20.806  0.00  0.00    +0.000 A 
ATOM     12  C   UNL     1       0.386   9.908  21.931  0.00  0.00    +0.000 A 
ATOM     13  C   UNL     1       1.082   8.709  21.801  0.00  0.00    +0.000 A 
ATOM     14  C   UNL     1       1.531   8.292  20.545  0.00  0.00    +0.000 A 
ENDBRANCH   8   9
ENDBRANCH   6   8
ENDBRANCH   3   4
BRANCH   3  15
ATOM     15  C   UNL     1       4.757   5.294  19.236  0.00  0.00    +0.000 C 
BRANCH  15  16
ATOM     16  C   UNL     1       4.807   3.775  19.404  0.00  0.00    +0.000 C 
BRANCH  16  17
ATOM     17  C   UNL     1       3.433   3.170  19.682  0.00  0.00    +0.000 C 
BRANCH  17  18
ATOM     18  C   UNL     1       2.957   2.407  18.448  0.00  0.00    +0.000 C 
BRANCH  18  19
ATOM     19  N   UNL     1       1.813   1.567  18.770  0.00  0.00    +0.000 NA
ATOM     20  H   UNL     1       1.045   1.797  18.141  0.00  0.00    +0.000 HD
ATOM     21  H   UNL     1       1.487   1.784  19.711  0.00  0.00    +0.000 HD
ENDBRANCH  18  19
ENDBRANCH  17  18
ENDBRANCH  16  17
ENDBRANCH  15  16
ENDBRANCH   3  15
ENDBRANCH   1   3
BRANCH   1  22
ATOM     22  C   UNL     1       6.695   6.439  17.727  0.00  0.00    +0.000 C 
BRANCH  22  23
ATOM     23  C   UNL     1       7.624   7.651  17.491  0.00  0.00    +0.000 C 
BRANCH  23  24
ATOM     24  N   UNL     1       8.453   8.049  18.623  0.00  0.00    +0.000 N 
ATOM     25  C   UNL     1       8.733   9.402  18.689  0.00  0.00    +0.000 C 
ATOM     26  O   UNL     1       8.387  10.168  17.798  0.00  0.00    +0.000 OA
ATOM     27  N   UNL     1       9.421   9.746  19.833  0.00  0.00    +0.000 N 
ATOM     28  H   UNL     1       8.240   7.646  19.520  0.00  0.00    +0.000 HD
ATOM     29  H   UNL     1       9.953   9.007  20.264  0.00  0.00    +0.000 HD
BRANCH  27  30
ATOM     30  C   UNL     1       9.733  11.076  20.196  0.00  0.00    +0.000 A 
ATOM     31  C   UNL     1      10.708  11.827  19.533  0.00  0.00    +0.000 A 
ATOM     32  C   UNL     1      11.027  13.122  19.951  0.00  0.00    +0.000 A 
ATOM     33  C   UNL     1      10.357  13.686  21.026  0.00  0.00    +0.000 A 
ATOM     34  C   UNL     1       9.357  12.960  21.677  0.00  0.00    +0.000 A 
ATOM     35  C   UNL     1       9.039  11.661  21.258  0.00  0.00    +0.000 A 
ENDBRANCH  27  30
ENDBRANCH  23  24
ENDBRANCH  22  23
BRANCH  22  36
ATOM     36  C   UNL     1       7.355   5.147  17.161  0.00  0.00    +0.000 C 
BRANCH  36  37
ATOM     37  C   UNL     1       7.003   4.723  15.749  0.00  0.00    +0.000 A 
ATOM     38  C   UNL     1       5.996   3.765  15.550  0.00  0.00    +0.000 A 
ATOM     39  C   UNL     1       5.613   3.384  14.261  0.00  0.00    +0.000 A 
ATOM     40  C   UNL     1       6.243   3.943  13.151  0.00  0.00    +0.000 A 
ATOM     41  C   UNL     1       7.234   4.902  13.331  0.00  0.00    +0.000 A 
ATOM     42  C   UNL     1       7.583   5.311  14.619  0.00  0.00    +0.000 A 
ENDBRANCH  36  37
ENDBRANCH  22  36
ENDBRANCH   1  22
TORSDOF 15
ENDMDL
MODEL 4
REMARK VINA RESULT:      -7.8      1.207      1.365
REMARK  Name = 
REMARK  15 active torsions:
REMARK  status: ('A' for Active; 'I' for Inactive)
REMARK    1  A    between atoms: N_1  and  C_2
REMARK    2  A    between atoms: C_2  and  C_3
REMARK    3  A    between atoms: C_3  and  C_4
REMARK    4  A    between atoms: C_4  and  C_5
REMARK    5  A    between atoms: C_5  and  C_6
REMARK    6  A    between atoms: C_6  and  N_7
REMARK    7  A    between atoms: C_6  and  C_27
REMARK    8  A    between atoms: N_7  and  C_8
REMARK    9  A    between atoms: C_8  and  C_9
REMARK   10  A    between atoms: C_8  and  C_20
REMARK   11  A    between atoms: C_9  and  N_10
REMARK   12  A    between atoms: N_13  and  C_14
REMARK   13  A    between atoms: C_20  and  C_21
REMARK   14  A    between atoms: N_29  and  C_30
REMARK   15  A    between atoms: C_30  and  C_31
REMARK                            x       y       z     vdW  Elec       q    Type
REMARK                         _______ _______ _______ _____ _____    ______ ____
ROOT
ATOM      1  N   UNL     1       4.599   6.676  17.080  0.00  0.00    +0.000 NA
ATOM      2  H   UNL     1       4.966   7.629  17.112  0.00  0.00    +0.000 HD
ENDROOT
BRANCH   1   3
ATOM      3  C   UNL     1       3.345   6.662  17.892  0.00  0.00    +0.000 C 
BRANCH   3   4
ATOM      4  C   UNL     1       2.611   8.022  17.895  0.00  0.00    +0.000 C 
ATOM      5  O   UNL     1       2.559   8.734  16.888  0.00  0.00    +0.000 OA
ATOM      6  N   UNL     1       1.972   8.348  19.067  0.00  0.00    +0.000 N 
ATOM      7  H   UNL     1       2.204   7.767  19.863  0.00  0.00    +0.000 HD
BRANCH   6   8
ATOM      8  C   UNL     1       1.381   9.651  19.265  0.00  0.00    +0.000 C 
BRANCH   8   9
ATOM      9  C   UNL     1       0.607   9.751  20.556  0.00  0.00    +0.000 A 
ATOM     10  C   UNL     1       0.356   8.605  21.325  0.00  0.00    +0.000 A 
ATOM     11  C   UNL     1      -0.315   8.699  22.547  0.00  0.00    +0.000 A 
ATOM     12  C   UNL     1      -0.742   9.939  23.015  0.00  0.00    +0.000 A 
ATOM     13  C   UNL     1      -0.487  11.088  22.269  0.00  0.00    +0.000 A 
ATOM     14  C   UNL     1       0.188  10.996  21.048  0.00  0.00    +0.000 A 
ENDBRANCH   8   9
ENDBRANCH   6   8
ENDBRANCH   3   4
BRANCH   3  15
ATOM     15  C   UNL     1       3.656   6.229  19.338  0.00  0.00    +0.000 C 
BRANCH  15  16
ATOM     16  C   UNL     1       3.018   4.896  19.735  0.00  0.00    +0.000 C 
BRANCH  16  17
ATOM     17  C   UNL     1       1.810   5.074  20.651  0.00  0.00    +0.000 C 
BRANCH  17  18
ATOM     18  C   UNL     1       0.828   3.928  20.422  0.00  0.00    +0.000 C 
BRANCH  18  19
ATOM     19  N   UNL     1       1.318   3.028  19.388  0.00  0.00    +0.000 NA
ATOM     20  H   UNL     1       0.835   3.231  18.514  0.00  0.00    +0.000 HD
ATOM     21  H   UNL     1       1.078   2.068  19.632  0.00  0.00    +0.000 HD
ENDBRANCH  18  19
ENDBRANCH  17  18
ENDBRANCH  16  17
ENDBRANCH  15  16
ENDBRANCH   3  15
ENDBRANCH   1   3
BRANCH   1  22
ATOM     22  C   UNL     1       5.665   5.760  17.548  0.00  0.00    +0.000 C 
BRANCH  22  23
ATOM     23  C   UNL     1       7.092   6.342  17.452  0.00  0.00    +0.000 C 
BRANCH  23  24
ATOM     24  N   UNL     1       7.185   7.796  17.380  0.00  0.00    +0.000 N 
ATOM     25  C   UNL     1       8.145   8.357  18.203  0.00  0.00    +0.000 C 
ATOM     26  O   UNL     1       8.782   7.675  18.996  0.00  0.00    +0.000 OA
ATOM     27  N   UNL     1       8.274   9.717  18.016  0.00  0.00    +0.000 N 
ATOM     28  H   UNL     1       7.151   8.219  16.468  0.00  0.00    +0.000 HD
ATOM     29  H   UNL     1       7.466  10.186  17.638  0.00  0.00    +0.000 HD
BRANCH  27  30
ATOM     30  C   UNL     1       9.255  10.511  18.650  0.00  0.00    +0.000 A 
ATOM     31  C   UNL     1       9.244  10.764  20.025  0.00  0.00    +0.000 A 
ATOM     32  C   UNL     1      10.202  11.595  20.612  0.00  0.00    +0.000 A 
ATOM     33  C   UNL     1      11.195  12.166  19.830  0.00  0.00    +0.000 A 
ATOM     34  C   UNL     1      11.238  11.895  18.461  0.00  0.00    +0.000 A 
ATOM     35  C   UNL     1      10.277  11.062  17.873  0.00  0.00    +0.000 A 
ENDBRANCH  27  30
ENDBRANCH  23  24
ENDBRANCH  22  23
BRANCH  22  36
ATOM     36  C   UNL     1       5.599   4.391  16.807  0.00  0.00    +0.000 C 
BRANCH  36  37
ATOM     37  C   UNL     1       6.032   4.344  15.355  0.00  0.00    +0.000 A 
ATOM     38  C   UNL     1       5.188   3.745  14.406  0.00  0.00    +0.000 A 
ATOM     39  C   UNL     1       5.533   3.724  13.052  0.00  0.00    +0.000 A 
ATOM     40  C   UNL     1       6.736   4.286  12.628  0.00  0.00    +0.000 A 
ATOM     41  C   UNL     1       7.577   4.892  13.554  0.00  0.00    +0.000 A 
ATOM     42  C   UNL     1       7.209   4.950  14.899  0.00  0.00    +0.000 A 
ENDBRANCH  36  37
ENDBRANCH  22  36
ENDBRANCH   1  22
TORSDOF 15
ENDMDL
MODEL 5
REMARK VINA RESULT:      -7.7      3.212      6.799
REMARK  Name = 
REMARK  15 active torsions:
REMARK  status: ('A' for Active; 'I' for Inactive)
REMARK    1  A    between atoms: N_1  and  C_2
REMARK    2  A    between atoms: C_2  and  C_3
REMARK    3  A    between atoms: C_3  and  C_4
REMARK    4  A    between atoms: C_4  and  C_5
REMARK    5  A    between atoms: C_5  and  C_6
REMARK    6  A    between atoms: C_6  and  N_7
REMARK    7  A    between atoms: C_6  and  C_27
REMARK    8  A    between atoms: N_7  and  C_8
REMARK    9  A    between atoms: C_8  and  C_9
REMARK   10  A    between atoms: C_8  and  C_20
REMARK   11  A    between atoms: C_9  and  N_10
REMARK   12  A    between atoms: N_13  and  C_14
REMARK   13  A    between atoms: C_20  and  C_21
REMARK   14  A    between atoms: N_29  and  C_30
REMARK   15  A    between atoms: C_30  and  C_31
REMARK                            x       y       z     vdW  Elec       q    Type
REMARK                         _______ _______ _______ _____ _____    ______ ____
ROOT
ATOM      1  N   UNL     1       2.268   8.802  18.406  0.00  0.00    +0.000 NA
ATOM      2  H   UNL     1       3.006   9.499  18.535  0.00  0.00    +0.000 HD
ENDROOT
BRANCH   1   3
ATOM      3  C   UNL     1       1.196   9.111  19.398  0.00  0.00    +0.000 C 
BRANCH   3   4
ATOM      4  C   UNL     1       0.917  10.625  19.537  0.00  0.00    +0.000 C 
ATOM      5  O   UNL     1       1.068  11.218  20.609  0.00  0.00    +0.000 OA
ATOM      6  N   UNL     1       0.558  11.270  18.377  0.00  0.00    +0.000 N 
ATOM      7  H   UNL     1       0.326  10.665  17.600  0.00  0.00    +0.000 HD
BRANCH   6   8
ATOM      8  C   UNL     1       0.118  12.646  18.386  0.00  0.00    +0.000 C 
BRANCH   8   9
ATOM      9  C   UNL     1       1.262  13.623  18.489  0.00  0.00    +0.000 A 
ATOM     10  C   UNL     1       2.554  13.250  18.089  0.00  0.00    +0.000 A 
ATOM     11  C   UNL     1       3.607  14.168  18.135  0.00  0.00    +0.000 A 
ATOM     12  C   UNL     1       3.380  15.469  18.578  0.00  0.00    +0.000 A 
ATOM     13  C   UNL     1       2.100  15.857  18.964  0.00  0.00    +0.000 A 
ATOM     14  C   UNL     1       1.045  14.941  18.917  0.00  0.00    +0.000 A 
ENDBRANCH   8   9
ENDBRANCH   6   8
ENDBRANCH   3   4
BRANCH   3  15
ATOM     15  C   UNL     1       1.558   8.514  20.772  0.00  0.00    +0.000 C 
BRANCH  15  16
ATOM     16  C   UNL     1       0.434   7.691  21.405  0.00  0.00    +0.000 C 
BRANCH  16  17
ATOM     17  C   UNL     1      -0.572   8.556  22.160  0.00  0.00    +0.000 C 
BRANCH  17  18
ATOM     18  C   UNL     1       0.168   9.426  23.172  0.00  0.00    +0.000 C 
BRANCH  18  19
ATOM     19  N   UNL     1      -0.440  10.746  23.260  0.00  0.00    +0.000 NA
ATOM     20  H   UNL     1      -0.156  11.185  24.135  0.00  0.00    +0.000 HD
ATOM     21  H   UNL     1      -1.453  10.651  23.303  0.00  0.00    +0.000 HD
ENDBRANCH  18  19
ENDBRANCH  17  18
ENDBRANCH  16  17
ENDBRANCH  15  16
ENDBRANCH   3  15
ENDBRANCH   1   3
BRANCH   1  22
ATOM     22  C   UNL     1       2.880   7.459  18.534  0.00  0.00    +0.000 C 
BRANCH  22  23
ATOM     23  C   UNL     1       4.293   7.342  17.921  0.00  0.00    +0.000 C 
BRANCH  23  24
ATOM     24  N   UNL     1       4.662   6.025  17.413  0.00  0.00    +0.000 N 
ATOM     25  C   UNL     1       5.066   6.007  16.090  0.00  0.00    +0.000 C 
ATOM     26  O   UNL     1       5.011   7.012  15.393  0.00  0.00    +0.000 OA
ATOM     27  N   UNL     1       5.511   4.765  15.690  0.00  0.00    +0.000 N 
ATOM     28  H   UNL     1       5.224   5.439  18.006  0.00  0.00    +0.000 HD
ATOM     29  H   UNL     1       5.157   3.982  16.215  0.00  0.00    +0.000 HD
BRANCH  27  30
ATOM     30  C   UNL     1       6.081   4.502  14.423  0.00  0.00    +0.000 A 
ATOM     31  C   UNL     1       7.274   5.093  13.998  0.00  0.00    +0.000 A 
ATOM     32  C   UNL     1       7.783   4.848  12.720  0.00  0.00    +0.000 A 
ATOM     33  C   UNL     1       7.110   3.992  11.860  0.00  0.00    +0.000 A 
ATOM     34  C   UNL     1       5.935   3.369  12.283  0.00  0.00    +0.000 A 
ATOM     35  C   UNL     1       5.425   3.616  13.565  0.00  0.00    +0.000 A 
ENDBRANCH  27  30
ENDBRANCH  23  24
ENDBRANCH  22  23
BRANCH  22  36
ATOM     36  C   UNL     1       1.952   6.357  17.942  0.00  0.00    +0.000 C 
BRANCH  36  37
ATOM     37  C   UNL     1       1.775   5.073  18.729  0.00  0.00    +0.000 A 
ATOM     38  C   UNL     1       1.366   3.909  18.061  0.00  0.00    +0.000 A 
ATOM     39  C   UNL     1       1.237   2.697  18.746  0.00  0.00    +0.000 A 
ATOM     40  C   UNL     1       1.500   2.635  20.113  0.00  0.00    +0.000 A 
ATOM     41  C   UNL     1       1.917   3.777  20.787  0.00  0.00    +0.000 A 
ATOM     42  C   UNL     1       2.086   4.976  20.091  0.00  0.00    +0.000 A 
ENDBRANCH  36  37
ENDBRANCH  22  36
ENDBRANCH   1  22
TORSDOF 15
ENDMDL
MODEL 6
REMARK VINA RESULT:      -7.7      4.917      9.954
REMARK  Name = 
REMARK  15 active torsions:
REMARK  status: ('A' for Active; 'I' for Inactive)
REMARK    1  A    between atoms: N_1  and  C_2
REMARK    2  A    between atoms: C_2  and  C_3
REMARK    3  A    between atoms: C_3  and  C_4
REMARK    4  A    between atoms: C_4  and  C_5
REMARK    5  A    between atoms: C_5  and  C_6
REMARK    6  A    between atoms: C_6  and  N_7
REMARK    7  A    between atoms: C_6  and  C_27
REMARK    8  A    between atoms: N_7  and  C_8
REMARK    9  A    between atoms: C_8  and  C_9
REMARK   10  A    between atoms: C_8  and  C_20
REMARK   11  A    between atoms: C_9  and  N_10
REMARK   12  A    between atoms: N_13  and  C_14
REMARK   13  A    between atoms: C_20  and  C_21
REMARK   14  A    between atoms: N_29  and  C_30
REMARK   15  A    between atoms: C_30  and  C_31
REMARK                            x       y       z     vdW  Elec       q    Type
REMARK                         _______ _______ _______ _____ _____    ______ ____
ROOT
ATOM      1  N   UNL     1      -0.648   9.754  20.134  0.00  0.00    +0.000 NA
ATOM      2  H   UNL     1      -0.183   8.883  19.871  0.00  0.00    +0.000 HD
ENDROOT
BRANCH   1   3
ATOM      3  C   UNL     1      -0.781  10.573  18.892  0.00  0.00    +0.000 C 
BRANCH   3   4
ATOM      4  C   UNL     1      -1.610  11.860  19.101  0.00  0.00    +0.000 C 
ATOM      5  O   UNL     1      -1.179  12.971  18.778  0.00  0.00    +0.000 OA
ATOM      6  N   UNL     1      -2.875  11.673  19.606  0.00  0.00    +0.000 N 
ATOM      7  H   UNL     1      -3.065  10.748  19.968  0.00  0.00    +0.000 HD
BRANCH   6   8
ATOM      8  C   UNL     1      -3.701  12.792  19.998  0.00  0.00    +0.000 C 
BRANCH   8   9
ATOM      9  C   UNL     1      -5.115  12.384  20.332  0.00  0.00    +0.000 A 
ATOM     10  C   UNL     1      -5.737  12.863  21.494  0.00  0.00    +0.000 A 
ATOM     11  C   UNL     1      -7.064  12.529  21.781  0.00  0.00    +0.000 A 
ATOM     12  C   UNL     1      -7.783  11.714  20.910  0.00  0.00    +0.000 A 
ATOM     13  C   UNL     1      -7.181  11.242  19.746  0.00  0.00    +0.000 A 
ATOM     14  C   UNL     1      -5.856  11.578  19.455  0.00  0.00    +0.000 A 
ENDBRANCH   8   9
ENDBRANCH   6   8
ENDBRANCH   3   4
BRANCH   3  15
ATOM     15  C   UNL     1      -1.399   9.726  17.763  0.00  0.00    +0.000 C 
BRANCH  15  16
ATOM     16  C   UNL     1      -2.184  10.542  16.735  0.00  0.00    +0.000 C 
BRANCH  16  17
ATOM     17  C   UNL     1      -2.930   9.664  15.734  0.00  0.00    +0.000 C 
BRANCH  17  18
ATOM     18  C   UNL     1      -3.260  10.483  14.489  0.00  0.00    +0.000 C 
BRANCH  18  19
ATOM     19  N   UNL     1      -2.727   9.844  13.295  0.00  0.00    +0.000 NA
ATOM     20  H   UNL     1      -2.492   8.877  13.512  0.00  0.00    +0.000 HD
ATOM     21  H   UNL     1      -1.855  10.298  13.027  0.00  0.00    +0.000 HD
ENDBRANCH  18  19
ENDBRANCH  17  18
ENDBRANCH  16  17
ENDBRANCH  15  16
ENDBRANCH   3  15
ENDBRANCH   1   3
BRANCH   1  22
ATOM     22  C   UNL     1       0.137  10.381  21.223  0.00  0.00    +0.000 C 
BRANCH  22  23
ATOM     23  C   UNL     1       1.488   9.690  21.512  0.00  0.00    +0.000 C 
BRANCH  23  24
ATOM     24  N   UNL     1       1.466   8.232  21.544  0.00  0.00    +0.000 N 
ATOM     25  C   UNL     1       1.888   7.620  20.378  0.00  0.00    +0.000 C 
ATOM     26  O   UNL     1       2.155   8.273  19.377  0.00  0.00    +0.000 OA
ATOM     27  N   UNL     1       1.958   6.248  20.494  0.00  0.00    +0.000 N 
ATOM     28  H   UNL     1       1.811   7.780  22.374  0.00  0.00    +0.000 HD
ATOM     29  H   UNL     1       1.371   5.838  21.203  0.00  0.00    +0.000 HD
BRANCH  27  30
ATOM     30  C   UNL     1       2.463   5.395  19.488  0.00  0.00    +0.000 A 
ATOM     31  C   UNL     1       1.636   4.754  18.561  0.00  0.00    +0.000 A 
ATOM     32  C   UNL     1       2.165   3.878  17.609  0.00  0.00    +0.000 A 
ATOM     33  C   UNL     1       3.532   3.650  17.563  0.00  0.00    +0.000 A 
ATOM     34  C   UNL     1       4.374   4.309  18.461  0.00  0.00    +0.000 A 
ATOM     35  C   UNL     1       3.843   5.187  19.415  0.00  0.00    +0.000 A 
ENDBRANCH  27  30
ENDBRANCH  23  24
ENDBRANCH  22  23
BRANCH  22  36
ATOM     36  C   UNL     1      -0.698  10.484  22.534  0.00  0.00    +0.000 C 
BRANCH  36  37
ATOM     37  C   UNL     1      -1.391  11.797  22.839  0.00  0.00    +0.000 A 
ATOM     38  C   UNL     1      -2.623  11.783  23.512  0.00  0.00    +0.000 A 
ATOM     39  C   UNL     1      -3.269  12.975  23.850  0.00  0.00    +0.000 A 
ATOM     40  C   UNL     1      -2.701  14.200  23.506  0.00  0.00    +0.000 A 
ATOM     41  C   UNL     1      -1.476  14.231  22.849  0.00  0.00    +0.000 A 
ATOM     42  C   UNL     1      -0.813  13.039  22.551  0.00  0.00    +0.000 A 
ENDBRANCH  36  37
ENDBRANCH  22  36
ENDBRANCH   1  22
TORSDOF 15
ENDMDL
MODEL 7
REMARK VINA RESULT:      -7.7      3.376      6.905
REMARK  Name = 
REMARK  15 active torsions:
REMARK  status: ('A' for Active; 'I' for Inactive)
REMARK    1  A    between atoms: N_1  and  C_2
REMARK    2  A    between atoms: C_2  and  C_3
REMARK    3  A    between atoms: C_3  and  C_4
REMARK    4  A    between atoms: C_4  and  C_5
REMARK    5  A    between atoms: C_5  and  C_6
REMARK    6  A    between atoms: C_6  and  N_7
REMARK    7  A    between atoms: C_6  and  C_27
REMARK    8  A    between atoms: N_7  and  C_8
REMARK    9  A    between atoms: C_8  and  C_9
REMARK   10  A    between atoms: C_8  and  C_20
REMARK   11  A    between atoms: C_9  and  N_10
REMARK   12  A    between atoms: N_13  and  C_14
REMARK   13  A    between atoms: C_20  and  C_21
REMARK   14  A    between atoms: N_29  and  C_30
REMARK   15  A    between atoms: C_30  and  C_31
REMARK                            x       y       z     vdW  Elec       q    Type
REMARK                         _______ _______ _______ _____ _____    ______ ____
ROOT
ATOM      1  N   UNL     1       2.289   8.507  18.003  0.00  0.00    +0.000 NA
ATOM      2  H   UNL     1       2.985   9.253  18.078  0.00  0.00    +0.000 HD
ENDROOT
BRANCH   1   3
ATOM      3  C   UNL     1       1.114   8.922  18.826  0.00  0.00    +0.000 C 
BRANCH   3   4
ATOM      4  C   UNL     1       0.600  10.337  18.476  0.00  0.00    +0.000 C 
ATOM      5  O   UNL     1      -0.563  10.534  18.111  0.00  0.00    +0.000 OA
ATOM      6  N   UNL     1       1.501  11.358  18.662  0.00  0.00    +0.000 N 
ATOM      7  H   UNL     1       2.457  11.067  18.821  0.00  0.00    +0.000 HD
BRANCH   6   8
ATOM      8  C   UNL     1       1.212  12.705  18.230  0.00  0.00    +0.000 C 
BRANCH   8   9
ATOM      9  C   UNL     1       1.784  13.750  19.155  0.00  0.00    +0.000 A 
ATOM     10  C   UNL     1       1.879  13.504  20.533  0.00  0.00    +0.000 A 
ATOM     11  C   UNL     1       2.455  14.448  21.387  0.00  0.00    +0.000 A 
ATOM     12  C   UNL     1       2.944  15.647  20.874  0.00  0.00    +0.000 A 
ATOM     13  C   UNL     1       2.870  15.899  19.506  0.00  0.00    +0.000 A 
ATOM     14  C   UNL     1       2.297  14.954  18.650  0.00  0.00    +0.000 A 
ENDBRANCH   8   9
ENDBRANCH   6   8
ENDBRANCH   3   4
BRANCH   3  15
ATOM     15  C   UNL     1       1.463   8.845  20.325  0.00  0.00    +0.000 C 
BRANCH  15  16
ATOM     16  C   UNL     1       0.241   8.838  21.246  0.00  0.00    +0.000 C 
BRANCH  16  17
ATOM     17  C   UNL     1      -0.253  10.245  21.574  0.00  0.00    +0.000 C 
BRANCH  17  18
ATOM     18  C   UNL     1      -0.726  10.289  23.024  0.00  0.00    +0.000 C 
BRANCH  18  19
ATOM     19  N   UNL     1       0.078   9.406  23.857  0.00  0.00    +0.000 NA
ATOM     20  H   UNL     1       0.308   8.567  23.326  0.00  0.00    +0.000 HD
ATOM     21  H   UNL     1      -0.473   9.097  24.656  0.00  0.00    +0.000 HD
ENDBRANCH  18  19
ENDBRANCH  17  18
ENDBRANCH  16  17
ENDBRANCH  15  16
ENDBRANCH   3  15
ENDBRANCH   1   3
BRANCH   1  22
ATOM     22  C   UNL     1       2.932   7.238  18.415  0.00  0.00    +0.000 C 
BRANCH  22  23
ATOM     23  C   UNL     1       4.399   7.089  17.955  0.00  0.00    +0.000 C 
BRANCH  23  24
ATOM     24  N   UNL     1       4.759   5.797  17.379  0.00  0.00    +0.000 N 
ATOM     25  C   UNL     1       5.159   5.844  16.056  0.00  0.00    +0.000 C 
ATOM     26  O   UNL     1       5.107   6.884  15.411  0.00  0.00    +0.000 OA
ATOM     27  N   UNL     1       5.597   4.622  15.591  0.00  0.00    +0.000 N 
ATOM     28  H   UNL     1       5.321   5.179  17.940  0.00  0.00    +0.000 HD
ATOM     29  H   UNL     1       5.240   3.815  16.077  0.00  0.00    +0.000 HD
BRANCH  27  30
ATOM     30  C   UNL     1       6.160   4.420  14.312  0.00  0.00    +0.000 A 
ATOM     31  C   UNL     1       7.321   5.076  13.889  0.00  0.00    +0.000 A 
ATOM     32  C   UNL     1       7.823   4.890  12.598  0.00  0.00    +0.000 A 
ATOM     33  C   UNL     1       7.178   4.030  11.723  0.00  0.00    +0.000 A 
ATOM     34  C   UNL     1       6.037   3.343  12.141  0.00  0.00    +0.000 A 
ATOM     35  C   UNL     1       5.534   3.530  13.435  0.00  0.00    +0.000 A 
ENDBRANCH  27  30
ENDBRANCH  23  24
ENDBRANCH  22  23
BRANCH  22  36
ATOM     36  C   UNL     1       2.101   6.006  17.948  0.00  0.00    +0.000 C 
BRANCH  36  37
ATOM     37  C   UNL     1       1.871   4.882  18.939  0.00  0.00    +0.000 A 
ATOM     38  C   UNL     1       2.152   5.095  20.298  0.00  0.00    +0.000 A 
ATOM     39  C   UNL     1       1.908   4.097  21.245  0.00  0.00    +0.000 A 
ATOM     40  C   UNL     1       1.394   2.865  20.847  0.00  0.00    +0.000 A 
ATOM     41  C   UNL     1       1.099   2.643  19.507  0.00  0.00    +0.000 A 
ATOM     42  C   UNL     1       1.304   3.656  18.569  0.00  0.00    +0.000 A 
ENDBRANCH  36  37
ENDBRANCH  22  36
ENDBRANCH   1  22
TORSDOF 15
ENDMDL
MODEL 8
REMARK VINA RESULT:      -7.7      3.370      6.771
REMARK  Name = 
REMARK  15 active torsions:
REMARK  status: ('A' for Active; 'I' for Inactive)
REMARK    1  A    between atoms: N_1  and  C_2
REMARK    2  A    between atoms: C_2  and  C_3
REMARK    3  A    between atoms: C_3  and  C_4
REMARK    4  A    between atoms: C_4  and  C_5
REMARK    5  A    between atoms: C_5  and  C_6
REMARK    6  A    between atoms: C_6  and  N_7
REMARK    7  A    between atoms: C_6  and  C_27
REMARK    8  A    between atoms: N_7  and  C_8
REMARK    9  A    between atoms: C_8  and  C_9
REMARK   10  A    between atoms: C_8  and  C_20
REMARK   11  A    between atoms: C_9  and  N_10
REMARK   12  A    between atoms: N_13  and  C_14
REMARK   13  A    between atoms: C_20  and  C_21
REMARK   14  A    between atoms: N_29  and  C_30
REMARK   15  A    between atoms: C_30  and  C_31
REMARK                            x       y       z     vdW  Elec       q    Type
REMARK                         _______ _______ _______ _____ _____    ______ ____
ROOT
ATOM      1  N   UNL     1       3.047   7.982  18.119  0.00  0.00    +0.000 NA
ATOM      2  H   UNL     1       3.604   8.729  18.541  0.00  0.00    +0.000 HD
ENDROOT
BRANCH   1   3
ATOM      3  C   UNL     1       1.618   8.258  18.456  0.00  0.00    +0.000 C 
BRANCH   3   4
ATOM      4  C   UNL     1       1.213   9.730  18.213  0.00  0.00    +0.000 C 
ATOM      5  O   UNL     1       2.055  10.622  18.079  0.00  0.00    +0.000 OA
ATOM      6  N   UNL     1      -0.137   9.960  18.094  0.00  0.00    +0.000 N 
ATOM      7  H   UNL     1      -0.733   9.189  18.366  0.00  0.00    +0.000 HD
BRANCH   6   8
ATOM      8  C   UNL     1      -0.668  11.302  18.023  0.00  0.00    +0.000 C 
BRANCH   8   9
ATOM      9  C   UNL     1      -2.111  11.336  17.584  0.00  0.00    +0.000 A 
ATOM     10  C   UNL     1      -2.463  10.985  16.272  0.00  0.00    +0.000 A 
ATOM     11  C   UNL     1      -3.803  10.965  15.875  0.00  0.00    +0.000 A 
ATOM     12  C   UNL     1      -4.805  11.293  16.785  0.00  0.00    +0.000 A 
ATOM     13  C   UNL     1      -4.471  11.629  18.095  0.00  0.00    +0.000 A 
ATOM     14  C   UNL     1      -3.132  11.647  18.494  0.00  0.00    +0.000 A 
ENDBRANCH   8   9
ENDBRANCH   6   8
ENDBRANCH   3   4
BRANCH   3  15
ATOM     15  C   UNL     1       1.334   7.868  19.919  0.00  0.00    +0.000 C 
BRANCH  15  16
ATOM     16  C   UNL     1       1.055   9.061  20.835  0.00  0.00    +0.000 C 
BRANCH  16  17
ATOM     17  C   UNL     1      -0.295   8.956  21.540  0.00  0.00    +0.000 C 
BRANCH  17  18
ATOM     18  C   UNL     1      -0.153   9.447  22.978  0.00  0.00    +0.000 C 
BRANCH  18  19
ATOM     19  N   UNL     1       1.249   9.538  23.357  0.00  0.00    +0.000 NA
ATOM     20  H   UNL     1       1.765  10.007  22.614  0.00  0.00    +0.000 HD
ATOM     21  H   UNL     1       1.642   8.601  23.431  0.00  0.00    +0.000 HD
ENDBRANCH  18  19
ENDBRANCH  17  18
ENDBRANCH  16  17
ENDBRANCH  15  16
ENDBRANCH   3  15
ENDBRANCH   1   3
BRANCH   1  22
ATOM     22  C   UNL     1       3.572   6.687  18.608  0.00  0.00    +0.000 C 
BRANCH  22  23
ATOM     23  C   UNL     1       5.065   6.446  18.294  0.00  0.00    +0.000 C 
BRANCH  23  24
ATOM     24  N   UNL     1       5.372   5.238  17.536  0.00  0.00    +0.000 N 
ATOM     25  C   UNL     1       5.554   5.436  16.179  0.00  0.00    +0.000 C 
ATOM     26  O   UNL     1       5.364   6.531  15.664  0.00  0.00    +0.000 OA
ATOM     27  N   UNL     1       5.952   4.290  15.525  0.00  0.00    +0.000 N 
ATOM     28  H   UNL     1       6.036   4.596  17.934  0.00  0.00    +0.000 HD
ATOM     29  H   UNL     1       5.704   3.421  15.972  0.00  0.00    +0.000 HD
BRANCH  27  30
ATOM     30  C   UNL     1       6.310   4.245  14.159  0.00  0.00    +0.000 A 
ATOM     31  C   UNL     1       5.660   3.417  13.238  0.00  0.00    +0.000 A 
ATOM     32  C   UNL     1       6.073   3.361  11.904  0.00  0.00    +0.000 A 
ATOM     33  C   UNL     1       7.130   4.149  11.474  0.00  0.00    +0.000 A 
ATOM     34  C   UNL     1       7.767   5.004  12.374  0.00  0.00    +0.000 A 
ATOM     35  C   UNL     1       7.353   5.059  13.712  0.00  0.00    +0.000 A 
ENDBRANCH  27  30
ENDBRANCH  23  24
ENDBRANCH  22  23
BRANCH  22  36
ATOM     36  C   UNL     1       2.720   5.495  18.079  0.00  0.00    +0.000 C 
BRANCH  36  37
ATOM     37  C   UNL     1       2.219   4.474  19.081  0.00  0.00    +0.000 A 
ATOM     38  C   UNL     1       2.561   4.615  20.435  0.00  0.00    +0.000 A 
ATOM     39  C   UNL     1       2.079   3.719  21.393  0.00  0.00    +0.000 A 
ATOM     40  C   UNL     1       1.261   2.658  21.010  0.00  0.00    +0.000 A 
ATOM     41  C   UNL     1       0.903   2.512  19.674  0.00  0.00    +0.000 A 
ATOM     42  C   UNL     1       1.351   3.434  18.727  0.00  0.00    +0.000 A 
ENDBRANCH  36  37
ENDBRANCH  22  36
ENDBRANCH   1  22
TORSDOF 15
ENDMDL
MODEL 9
REMARK VINA RESULT:      -7.7      3.492      8.359
REMARK  Name = 
REMARK  15 active torsions:
REMARK  status: ('A' for Active; 'I' for Inactive)
REMARK    1  A    between atoms: N_1  and  C_2
REMARK    2  A    between atoms: C_2  and  C_3
REMARK    3  A    between atoms: C_3  and  C_4
REMARK    4  A    between atoms: C_4  and  C_5
REMARK    5  A    between atoms: C_5  and  C_6
REMARK    6  A    between atoms: C_6  and  N_7
REMARK    7  A    between atoms: C_6  and  C_27
REMARK    8  A    between atoms: N_7  and  C_8
REMARK    9  A    between atoms: C_8  and  C_9
REMARK   10  A    between atoms: C_8  and  C_20
REMARK   11  A    between atoms: C_9  and  N_10
REMARK   12  A    between atoms: N_13  and  C_14
REMARK   13  A    between atoms: C_20  and  C_21
REMARK   14  A    between atoms: N_29  and  C_30
REMARK   15  A    between atoms: C_30  and  C_31
REMARK                            x       y       z     vdW  Elec       q    Type
REMARK                         _______ _______ _______ _____ _____    ______ ____
ROOT
ATOM      1  N   UNL     1       3.880   7.107  18.113  0.00  0.00    +0.000 NA
ATOM      2  H   UNL     1       3.987   7.813  17.382  0.00  0.00    +0.000 HD
ENDROOT
BRANCH   1   3
ATOM      3  C   UNL     1       4.525   5.856  17.611  0.00  0.00    +0.000 C 
BRANCH   3   4
ATOM      4  C   UNL     1       5.582   6.119  16.515  0.00  0.00    +0.000 C 
ATOM      5  O   UNL     1       5.540   7.125  15.799  0.00  0.00    +0.000 OA
ATOM      6  N   UNL     1       6.597   5.197  16.438  0.00  0.00    +0.000 N 
ATOM      7  H   UNL     1       6.451   4.347  16.967  0.00  0.00    +0.000 HD
BRANCH   6   8
ATOM      8  C   UNL     1       7.564   5.229  15.365  0.00  0.00    +0.000 C 
BRANCH   8   9
ATOM      9  C   UNL     1       7.027   4.651  14.079  0.00  0.00    +0.000 A 
ATOM     10  C   UNL     1       7.716   4.840  12.872  0.00  0.00    +0.000 A 
ATOM     11  C   UNL     1       7.250   4.263  11.687  0.00  0.00    +0.000 A 
ATOM     12  C   UNL     1       6.092   3.490  11.696  0.00  0.00    +0.000 A 
ATOM     13  C   UNL     1       5.405   3.282  12.890  0.00  0.00    +0.000 A 
ATOM     14  C   UNL     1       5.872   3.855  14.076  0.00  0.00    +0.000 A 
ENDBRANCH   8   9
ENDBRANCH   6   8
ENDBRANCH   3   4
BRANCH   3  15
ATOM     15  C   UNL     1       3.453   4.881  17.086  0.00  0.00    +0.000 C 
BRANCH  15  16
ATOM     16  C   UNL     1       3.729   3.416  17.428  0.00  0.00    +0.000 C 
BRANCH  16  17
ATOM     17  C   UNL     1       4.524   3.256  18.721  0.00  0.00    +0.000 C 
BRANCH  17  18
ATOM     18  C   UNL     1       4.309   1.850  19.276  0.00  0.00    +0.000 C 
BRANCH  18  19
ATOM     19  N   UNL     1       5.210   1.592  20.390  0.00  0.00    +0.000 NA
ATOM     20  H   UNL     1       4.672   1.223  21.174  0.00  0.00    +0.000 HD
ATOM     21  H   UNL     1       5.616   2.470  20.709  0.00  0.00    +0.000 HD
ENDBRANCH  18  19
ENDBRANCH  17  18
ENDBRANCH  16  17
ENDBRANCH  15  16
ENDBRANCH   3  15
ENDBRANCH   1   3
BRANCH   1  22
ATOM     22  C   UNL     1       2.437   6.990  18.428  0.00  0.00    +0.000 C 
BRANCH  22  23
ATOM     23  C   UNL     1       1.602   8.235  18.055  0.00  0.00    +0.000 C 
BRANCH  23  24
ATOM     24  N   UNL     1       1.752   9.392  18.931  0.00  0.00    +0.000 N 
ATOM     25  C   UNL     1       0.654  10.231  18.977  0.00  0.00    +0.000 C 
ATOM     26  O   UNL     1      -0.316  10.051  18.251  0.00  0.00    +0.000 OA
ATOM     27  N   UNL     1       0.799  11.244  19.901  0.00  0.00    +0.000 N 
ATOM     28  H   UNL     1       2.172   9.240  19.833  0.00  0.00    +0.000 HD
ATOM     29  H   UNL     1       1.747  11.491  20.135  0.00  0.00    +0.000 HD
BRANCH  27  30
ATOM     30  C   UNL     1      -0.219  12.170  20.222  0.00  0.00    +0.000 A 
ATOM     31  C   UNL     1      -1.289  11.849  21.063  0.00  0.00    +0.000 A 
ATOM     32  C   UNL     1      -2.305  12.773  21.320  0.00  0.00    +0.000 A 
ATOM     33  C   UNL     1      -2.248  14.038  20.754  0.00  0.00    +0.000 A 
ATOM     34  C   UNL     1      -1.168  14.384  19.939  0.00  0.00    +0.000 A 
ATOM     35  C   UNL     1      -0.151  13.456  19.681  0.00  0.00    +0.000 A 
ENDBRANCH  27  30
ENDBRANCH  23  24
ENDBRANCH  22  23
BRANCH  22  36
ATOM     36  C   UNL     1       2.214   6.632  19.927  0.00  0.00    +0.000 C 
BRANCH  36  37
ATOM     37  C   UNL     1       1.905   5.190  20.279  0.00  0.00    +0.000 A 
ATOM     38  C   UNL     1       2.453   4.635  21.446  0.00  0.00    +0.000 A 
ATOM     39  C   UNL     1       2.153   3.324  21.826  0.00  0.00    +0.000 A 
ATOM     40  C   UNL     1       1.313   2.542  21.036  0.00  0.00    +0.000 A 
ATOM     41  C   UNL     1       0.754   3.080  19.883  0.00  0.00    +0.000 A 
ATOM     42  C   UNL     1       1.021   4.404  19.529  0.00  0.00    +0.000 A 
ENDBRANCH  36  37
ENDBRANCH  22  36
ENDBRANCH   1  22
TORSDOF 15
ENDMDL
