MODEL 1
REMARK VINA RESULT:      -8.2      0.000      0.000
REMARK  Name = 
REMARK  10 active torsions:
REMARK  status: ('A' for Active; 'I' for Inactive)
REMARK    1  A    between atoms: C_1  and  O_2
REMARK    2  A    between atoms: O_2  and  C_3
REMARK    3  A    between atoms: C_5  and  C_6
REMARK    4  A    between atoms: C_6  and  C_8
REMARK    5  A    between atoms: N_10  and  C_11
REMARK    6  A    between atoms: C_19  and  C_20
REMARK    7  A    between atoms: C_26  and  O_27
REMARK    8  A    between atoms: O_27  and  C_28
REMARK    9  A    between atoms: C_29  and  O_30
REMARK   10  A    between atoms: O_30  and  C_31
REMARK                            x       y       z     vdW  Elec       q    Type
REMARK                         _______ _______ _______ _____ _____    ______ ____
ROOT
ATOM      1  C   UNL     1       1.583   9.389  18.839  0.00  0.00    +0.000 A 
ATOM      2  C   UNL     1       2.340   8.659  17.919  0.00  0.00    +0.000 A 
ATOM      3  N   UNL     1       2.702   7.440  18.462  0.00  0.00    +0.000 N 
ATOM      4  C   UNL     1       2.222   7.423  19.753  0.00  0.00    +0.000 A 
ATOM      5  C   UNL     1       1.513   8.580  19.999  0.00  0.00    +0.000 A 
ENDROOT
BRANCH   3   6
ATOM      6  C   UNL     1       3.415   6.379  17.815  0.00  0.00    +0.000 A 
ATOM      7  C   UNL     1       4.555   6.646  17.038  0.00  0.00    +0.000 A 
ATOM      8  C   UNL     1       5.212   5.606  16.370  0.00  0.00    +0.000 A 
ATOM      9  C   UNL     1       4.736   4.305  16.475  0.00  0.00    +0.000 A 
ATOM     10  F   UNL     1       5.359   3.318  15.820  0.00  0.00    +0.000 F 
ATOM     11  C   UNL     1       3.619   4.019  17.245  0.00  0.00    +0.000 A 
ATOM     12  C   UNL     1       2.962   5.052  17.919  0.00  0.00    +0.000 A 
ENDBRANCH   3   6
BRANCH   5  13
ATOM     13  C   UNL     1       0.823   8.862  21.287  0.00  0.00    +0.000 A 
ATOM     14  C   UNL     1      -0.512   8.632  21.574  0.00  0.00    +0.000 A 
ATOM     15  C   UNL     1      -0.734   9.083  22.896  0.00  0.00    +0.000 A 
ATOM     16  C   UNL     1       0.476   9.554  23.343  0.00  0.00    +0.000 A 
ATOM     17  O   UNL     1       1.422   9.400  22.386  0.00  0.00    +0.000 OA
ENDBRANCH   5  13
BRANCH   1  18
ATOM     18  C   UNL     1       0.963  10.699  18.591  0.00  0.00    +0.000 C 
ATOM     19  O   UNL     1       1.614  11.739  18.529  0.00  0.00    +0.000 OA
BRANCH  18  22
ATOM     20  C   UNL     1      -2.581  11.891  19.136  0.00  0.00    +0.000 A 
ATOM     21  C   UNL     1      -1.244  11.574  19.398  0.00  0.00    +0.000 A 
ATOM     22  C   UNL     1      -0.517  10.786  18.510  0.00  0.00    +0.000 A 
ATOM     23  C   UNL     1      -1.189  10.128  17.483  0.00  0.00    +0.000 A 
ATOM     24  C   UNL     1      -2.560  10.334  17.270  0.00  0.00    +0.000 A 
ATOM     25  C   UNL     1      -3.270  11.251  18.081  0.00  0.00    +0.000 A 
BRANCH  20  27
ATOM     26  C   UNL     1      -3.037  12.665  21.332  0.00  0.00    +0.000 C 
ATOM     27  O   UNL     1      -3.215  12.821  19.921  0.00  0.00    +0.000 OA
ENDBRANCH  20  27
BRANCH  24  28
ATOM     28  O   UNL     1      -3.010   9.599  16.202  0.00  0.00    +0.000 OA
ATOM     29  C   UNL     1      -2.995  10.161  14.900  0.00  0.00    +0.000 C 
ENDBRANCH  24  28
BRANCH  25  30
ATOM     30  O   UNL     1      -4.590  11.431  17.766  0.00  0.00    +0.000 OA
ATOM     31  C   UNL     1      -5.602  10.717  18.454  0.00  0.00    +0.000 C 
ENDBRANCH  25  30
ENDBRANCH  18  22
ENDBRANCH   1  18
TORSDOF 7
ENDMDL
MODEL 2
REMARK VINA RESULT:      -8.0      0.499      1.104
REMARK  Name = 
REMARK  10 active torsions:
REMARK  status: ('A' for Active; 'I' for Inactive)
REMARK    1  A    between atoms: C_1  and  O_2
REMARK    2  A    between atoms: O_2  and  C_3
REMARK    3  A    between atoms: C_5  and  C_6
REMARK    4  A    between atoms: C_6  and  C_8
REMARK    5  A    between atoms: N_10  and  C_11
REMARK    6  A    between atoms: C_19  and  C_20
REMARK    7  A    between atoms: C_26  and  O_27
REMARK    8  A    between atoms: O_27  and  C_28
REMARK    9  A    between atoms: C_29  and  O_30
REMARK   10  A    between atoms: O_30  and  C_31
REMARK                            x       y       z     vdW  Elec       q    Type
REMARK                         _______ _______ _______ _____ _____    ______ ____
ROOT
ATOM      1  C   UNL     1       1.604   9.384  18.783  0.00  0.00    +0.000 A 
ATOM      2  C   UNL     1       2.356   8.649  17.863  0.00  0.00    +0.000 A 
ATOM      3  N   UNL     1       2.684   7.415  18.393  0.00  0.00    +0.000 N 
ATOM      4  C   UNL     1       2.187   7.391  19.678  0.00  0.00    +0.000 A 
ATOM      5  C   UNL     1       1.501   8.561  19.931  0.00  0.00    +0.000 A 
ENDROOT
BRANCH   3   6
ATOM      6  C   UNL     1       3.380   6.346  17.740  0.00  0.00    +0.000 A 
ATOM      7  C   UNL     1       2.949   5.016  17.876  0.00  0.00    +0.000 A 
ATOM      8  C   UNL     1       3.667   3.977  17.273  0.00  0.00    +0.000 A 
ATOM      9  C   UNL     1       4.810   4.262  16.537  0.00  0.00    +0.000 A 
ATOM     10  F   UNL     1       5.503   3.262  15.978  0.00  0.00    +0.000 F 
ATOM     11  C   UNL     1       5.246   5.568  16.381  0.00  0.00    +0.000 A 
ATOM     12  C   UNL     1       4.531   6.611  16.976  0.00  0.00    +0.000 A 
ENDBRANCH   3   6
BRANCH   5  13
ATOM     13  C   UNL     1       0.802   8.841  21.214  0.00  0.00    +0.000 A 
ATOM     14  C   UNL     1       1.377   9.331  22.375  0.00  0.00    +0.000 A 
ATOM     15  C   UNL     1       0.350   9.404  23.345  0.00  0.00    +0.000 A 
ATOM     16  C   UNL     1      -0.791   8.964  22.721  0.00  0.00    +0.000 A 
ATOM     17  O   UNL     1      -0.529   8.647  21.431  0.00  0.00    +0.000 OA
ENDBRANCH   5  13
BRANCH   1  18
ATOM     18  C   UNL     1       1.018  10.711  18.545  0.00  0.00    +0.000 C 
ATOM     19  O   UNL     1       1.698  11.730  18.456  0.00  0.00    +0.000 OA
BRANCH  18  22
ATOM     20  C   UNL     1      -2.468  12.026  19.177  0.00  0.00    +0.000 A 
ATOM     21  C   UNL     1      -1.133  11.672  19.404  0.00  0.00    +0.000 A 
ATOM     22  C   UNL     1      -0.461  10.843  18.510  0.00  0.00    +0.000 A 
ATOM     23  C   UNL     1      -1.186  10.185  17.520  0.00  0.00    +0.000 A 
ATOM     24  C   UNL     1      -2.556  10.431  17.346  0.00  0.00    +0.000 A 
ATOM     25  C   UNL     1      -3.211  11.387  18.159  0.00  0.00    +0.000 A 
BRANCH  20  27
ATOM     26  C   UNL     1      -3.513  12.552  21.242  0.00  0.00    +0.000 C 
ATOM     27  O   UNL     1      -3.047  12.992  19.962  0.00  0.00    +0.000 OA
ENDBRANCH  20  27
BRANCH  24  28
ATOM     28  O   UNL     1      -3.064   9.688  16.309  0.00  0.00    +0.000 OA
ATOM     29  C   UNL     1      -3.032  10.204  14.989  0.00  0.00    +0.000 C 
ENDBRANCH  24  28
BRANCH  25  30
ATOM     30  O   UNL     1      -4.534  11.602  17.884  0.00  0.00    +0.000 OA
ATOM     31  C   UNL     1      -5.539  10.814  18.497  0.00  0.00    +0.000 C 
ENDBRANCH  25  30
ENDBRANCH  18  22
ENDBRANCH   1  18
TORSDOF 7
ENDMDL
MODEL 3
REMARK VINA RESULT:      -7.9      0.377      2.511
REMARK  Name = 
REMARK  10 active torsions:
REMARK  status: ('A' for Active; 'I' for Inactive)
REMARK    1  A    between atoms: C_1  and  O_2
REMARK    2  A    between atoms: O_2  and  C_3
REMARK    3  A    between atoms: C_5  and  C_6
REMARK    4  A    between atoms: C_6  and  C_8
REMARK    5  A    between atoms: N_10  and  C_11
REMARK    6  A    between atoms: C_19  and  C_20
REMARK    7  A    between atoms: C_26  and  O_27
REMARK    8  A    between atoms: O_27  and  C_28
REMARK    9  A    between atoms: C_29  and  O_30
REMARK   10  A    between atoms: O_30  and  C_31
REMARK                            x       y       z     vdW  Elec       q    Type
REMARK                         _______ _______ _______ _____ _____    ______ ____
ROOT
ATOM      1  C   UNL     1       1.620   9.482  18.909  0.00  0.00    +0.000 A 
ATOM      2  C   UNL     1       2.349   8.738  17.978  0.00  0.00    +0.000 A 
ATOM      3  N   UNL     1       2.630   7.483  18.485  0.00  0.00    +0.000 N 
ATOM      4  C   UNL     1       2.127   7.452  19.767  0.00  0.00    +0.000 A 
ATOM      5  C   UNL     1       1.483   8.641  20.041  0.00  0.00    +0.000 A 
ENDROOT
BRANCH   3   6
ATOM      6  C   UNL     1       3.290   6.403  17.814  0.00  0.00    +0.000 A 
ATOM      7  C   UNL     1       2.810   5.087  17.921  0.00  0.00    +0.000 A 
ATOM      8  C   UNL     1       3.494   4.035  17.301  0.00  0.00    +0.000 A 
ATOM      9  C   UNL     1       4.651   4.292  16.577  0.00  0.00    +0.000 A 
ATOM     10  F   UNL     1       5.309   3.278  16.000  0.00  0.00    +0.000 F 
ATOM     11  C   UNL     1       5.135   5.584  16.449  0.00  0.00    +0.000 A 
ATOM     12  C   UNL     1       4.455   6.640  17.061  0.00  0.00    +0.000 A 
ENDBRANCH   3   6
BRANCH   5  13
ATOM     13  C   UNL     1       0.788   8.921  21.326  0.00  0.00    +0.000 A 
ATOM     14  C   UNL     1      -0.554   8.715  21.599  0.00  0.00    +0.000 A 
ATOM     15  C   UNL     1      -0.777   9.155  22.925  0.00  0.00    +0.000 A 
ATOM     16  C   UNL     1       0.438   9.595  23.387  0.00  0.00    +0.000 A 
ATOM     17  O   UNL     1       1.389   9.434  22.437  0.00  0.00    +0.000 OA
ENDBRANCH   5  13
BRANCH   1  18
ATOM     18  C   UNL     1       1.083  10.833  18.695  0.00  0.00    +0.000 C 
ATOM     19  O   UNL     1       1.775  11.844  18.789  0.00  0.00    +0.000 OA
BRANCH  18  22
ATOM     20  C   UNL     1      -2.401  10.260  17.348  0.00  0.00    +0.000 A 
ATOM     21  C   UNL     1      -1.005  10.353  17.392  0.00  0.00    +0.000 A 
ATOM     22  C   UNL     1      -0.374  10.994  18.454  0.00  0.00    +0.000 A 
ATOM     23  C   UNL     1      -1.139  11.739  19.347  0.00  0.00    +0.000 A 
ATOM     24  C   UNL     1      -2.538  11.762  19.254  0.00  0.00    +0.000 A 
ATOM     25  C   UNL     1      -3.192  10.990  18.264  0.00  0.00    +0.000 A 
BRANCH  20  27
ATOM     26  C   UNL     1      -3.009   9.993  15.070  0.00  0.00    +0.000 C 
ATOM     27  O   UNL     1      -2.989   9.462  16.399  0.00  0.00    +0.000 OA
ENDBRANCH  20  27
BRANCH  24  28
ATOM     28  O   UNL     1      -3.087  12.545  20.238  0.00  0.00    +0.000 OA
ATOM     29  C   UNL     1      -2.488  12.588  21.523  0.00  0.00    +0.000 C 
ENDBRANCH  24  28
BRANCH  25  30
ATOM     30  O   UNL     1      -4.560  11.028  18.280  0.00  0.00    +0.000 OA
ATOM     31  C   UNL     1      -5.270  11.897  17.415  0.00  0.00    +0.000 C 
ENDBRANCH  25  30
ENDBRANCH  18  22
ENDBRANCH   1  18
TORSDOF 7
ENDMDL
MODEL 4
REMARK VINA RESULT:      -7.8      1.607      1.969
REMARK  Name = 
REMARK  10 active torsions:
REMARK  status: ('A' for Active; 'I' for Inactive)
REMARK    1  A    between atoms: C_1  and  O_2
REMARK    2  A    between atoms: O_2  and  C_3
REMARK    3  A    between atoms: C_5  and  C_6
REMARK    4  A    between atoms: C_6  and  C_8
REMARK    5  A    between atoms: N_10  and  C_11
REMARK    6  A    between atoms: C_19  and  C_20
REMARK    7  A    between atoms: C_26  and  O_27
REMARK    8  A    between atoms: O_27  and  C_28
REMARK    9  A    between atoms: C_29  and  O_30
REMARK   10  A    between atoms: O_30  and  C_31
REMARK                            x       y       z     vdW  Elec       q    Type
REMARK                         _______ _______ _______ _____ _____    ______ ____
ROOT
ATOM      1  C   UNL     1       1.847   8.171  18.915  0.00  0.00    +0.000 A 
ATOM      2  C   UNL     1       2.400   7.055  18.281  0.00  0.00    +0.000 A 
ATOM      3  N   UNL     1       2.406   5.973  19.142  0.00  0.00    +0.000 N 
ATOM      4  C   UNL     1       1.908   6.421  20.346  0.00  0.00    +0.000 A 
ATOM      5  C   UNL     1       1.533   7.743  20.228  0.00  0.00    +0.000 A 
ENDROOT
BRANCH   3   6
ATOM      6  C   UNL     1       2.820   4.633  18.848  0.00  0.00    +0.000 A 
ATOM      7  C   UNL     1       2.173   3.881  17.853  0.00  0.00    +0.000 A 
ATOM      8  C   UNL     1       2.555   2.556  17.611  0.00  0.00    +0.000 A 
ATOM      9  C   UNL     1       3.576   1.982  18.357  0.00  0.00    +0.000 A 
ATOM     10  F   UNL     1       3.925   0.709  18.132  0.00  0.00    +0.000 F 
ATOM     11  C   UNL     1       4.235   2.710  19.336  0.00  0.00    +0.000 A 
ATOM     12  C   UNL     1       3.863   4.035  19.579  0.00  0.00    +0.000 A 
ENDBRANCH   3   6
BRANCH   5  13
ATOM     13  C   UNL     1       0.915   8.522  21.335  0.00  0.00    +0.000 A 
ATOM     14  C   UNL     1      -0.422   8.523  21.695  0.00  0.00    +0.000 A 
ATOM     15  C   UNL     1      -0.560   9.432  22.769  0.00  0.00    +0.000 A 
ATOM     16  C   UNL     1       0.698   9.927  23.010  0.00  0.00    +0.000 A 
ATOM     17  O   UNL     1       1.594   9.364  22.164  0.00  0.00    +0.000 OA
ENDBRANCH   5  13
BRANCH   1  18
ATOM     18  C   UNL     1       1.612   9.481  18.292  0.00  0.00    +0.000 C 
ATOM     19  O   UNL     1       2.500  10.116  17.728  0.00  0.00    +0.000 OA
BRANCH  18  22
ATOM     20  C   UNL     1      -1.085  11.990  19.138  0.00  0.00    +0.000 A 
ATOM     21  C   UNL     1       0.085  11.229  19.242  0.00  0.00    +0.000 A 
ATOM     22  C   UNL     1       0.274  10.111  18.435  0.00  0.00    +0.000 A 
ATOM     23  C   UNL     1      -0.798   9.622  17.692  0.00  0.00    +0.000 A 
ATOM     24  C   UNL     1      -2.025  10.301  17.664  0.00  0.00    +0.000 A 
ATOM     25  C   UNL     1      -2.173  11.521  18.367  0.00  0.00    +0.000 A 
BRANCH  20  27
ATOM     26  C   UNL     1      -0.511  14.292  19.166  0.00  0.00    +0.000 C 
ATOM     27  O   UNL     1      -1.165  13.189  19.801  0.00  0.00    +0.000 OA
ENDBRANCH  20  27
BRANCH  24  28
ATOM     28  O   UNL     1      -2.930   9.652  16.863  0.00  0.00    +0.000 OA
ATOM     29  C   UNL     1      -2.948   9.906  15.467  0.00  0.00    +0.000 C 
ENDBRANCH  24  28
BRANCH  25  30
ATOM     30  O   UNL     1      -3.385  12.143  18.239  0.00  0.00    +0.000 OA
ATOM     31  C   UNL     1      -4.385  11.992  19.232  0.00  0.00    +0.000 C 
ENDBRANCH  25  30
ENDBRANCH  18  22
ENDBRANCH   1  18
TORSDOF 7
ENDMDL
MODEL 5
REMARK VINA RESULT:      -7.6      0.990      1.049
REMARK  Name = 
REMARK  10 active torsions:
REMARK  status: ('A' for Active; 'I' for Inactive)
REMARK    1  A    between atoms: C_1  and  O_2
REMARK    2  A    between atoms: O_2  and  C_3
REMARK    3  A    between atoms: C_5  and  C_6
REMARK    4  A    between atoms: C_6  and  C_8
REMARK    5  A    between atoms: N_10  and  C_11
REMARK    6  A    between atoms: C_19  and  C_20
REMARK    7  A    between atoms: C_26  and  O_27
REMARK    8  A    between atoms: O_27  and  C_28
REMARK    9  A    between atoms: C_29  and  O_30
REMARK   10  A    between atoms: O_30  and  C_31
REMARK                            x       y       z     vdW  Elec       q    Type
REMARK                         _______ _______ _______ _____ _____    ______ ____
ROOT
ATOM      1  C   UNL     1       0.880  10.041  18.846  0.00  0.00    +0.000 A 
ATOM      2  C   UNL     1       1.642   9.245  17.986  0.00  0.00    +0.000 A 
ATOM      3  N   UNL     1       2.104   8.127  18.656  0.00  0.00    +0.000 N 
ATOM      4  C   UNL     1       1.681   8.245  19.962  0.00  0.00    +0.000 A 
ATOM      5  C   UNL     1       0.912   9.382  20.100  0.00  0.00    +0.000 A 
ENDROOT
BRANCH   3   6
ATOM      6  C   UNL     1       2.853   7.035  18.109  0.00  0.00    +0.000 A 
ATOM      7  C   UNL     1       4.048   7.263  17.406  0.00  0.00    +0.000 A 
ATOM      8  C   UNL     1       4.743   6.191  16.833  0.00  0.00    +0.000 A 
ATOM      9  C   UNL     1       4.251   4.899  16.961  0.00  0.00    +0.000 A 
ATOM     10  F   UNL     1       4.912   3.880  16.397  0.00  0.00    +0.000 F 
ATOM     11  C   UNL     1       3.081   4.651  17.661  0.00  0.00    +0.000 A 
ATOM     12  C   UNL     1       2.384   5.716  18.239  0.00  0.00    +0.000 A 
ENDBRANCH   3   6
BRANCH   5  13
ATOM     13  C   UNL     1       0.262   9.784  21.376  0.00  0.00    +0.000 A 
ATOM     14  C   UNL     1      -0.353   8.942  22.288  0.00  0.00    +0.000 A 
ATOM     15  C   UNL     1      -0.860   9.758  23.326  0.00  0.00    +0.000 A 
ATOM     16  C   UNL     1      -0.519  11.047  22.995  0.00  0.00    +0.000 A 
ATOM     17  O   UNL     1       0.177  11.064  21.834  0.00  0.00    +0.000 OA
ENDBRANCH   5  13
BRANCH   1  18
ATOM     18  C   UNL     1       0.169  11.271  18.470  0.00  0.00    +0.000 C 
ATOM     19  O   UNL     1       0.748  12.336  18.269  0.00  0.00    +0.000 OA
BRANCH  18  22
ATOM     20  C   UNL     1      -3.438  12.046  19.291  0.00  0.00    +0.000 A 
ATOM     21  C   UNL     1      -2.073  11.790  19.467  0.00  0.00    +0.000 A 
ATOM     22  C   UNL     1      -1.316  11.255  18.429  0.00  0.00    +0.000 A 
ATOM     23  C   UNL     1      -1.966  10.762  17.300  0.00  0.00    +0.000 A 
ATOM     24  C   UNL     1      -3.354  10.898  17.151  0.00  0.00    +0.000 A 
ATOM     25  C   UNL     1      -4.107  11.576  18.139  0.00  0.00    +0.000 A 
BRANCH  20  27
ATOM     26  C   UNL     1      -3.486  13.950  20.706  0.00  0.00    +0.000 C 
ATOM     27  O   UNL     1      -4.116  12.747  20.256  0.00  0.00    +0.000 OA
ENDBRANCH  20  27
BRANCH  24  28
ATOM     28  O   UNL     1      -3.778  10.356  15.963  0.00  0.00    +0.000 OA
ATOM     29  C   UNL     1      -2.892  10.295  14.858  0.00  0.00    +0.000 C 
ENDBRANCH  24  28
BRANCH  25  30
ATOM     30  O   UNL     1      -5.446  11.709  17.885  0.00  0.00    +0.000 OA
ATOM     31  C   UNL     1      -6.385  10.824  18.469  0.00  0.00    +0.000 C 
ENDBRANCH  25  30
ENDBRANCH  18  22
ENDBRANCH   1  18
TORSDOF 7
ENDMDL
MODEL 6
REMARK VINA RESULT:      -7.6      1.546      1.796
REMARK  Name = 
REMARK  10 active torsions:
REMARK  status: ('A' for Active; 'I' for Inactive)
REMARK    1  A    between atoms: C_1  and  O_2
REMARK    2  A    between atoms: O_2  and  C_3
REMARK    3  A    between atoms: C_5  and  C_6
REMARK    4  A    between atoms: C_6  and  C_8
REMARK    5  A    between atoms: N_10  and  C_11
REMARK    6  A    between atoms: C_19  and  C_20
REMARK    7  A    between atoms: C_26  and  O_27
REMARK    8  A    between atoms: O_27  and  C_28
REMARK    9  A    between atoms: C_29  and  O_30
REMARK   10  A    between atoms: O_30  and  C_31
REMARK                            x       y       z     vdW  Elec       q    Type
REMARK                         _______ _______ _______ _____ _____    ______ ____
ROOT
ATOM      1  C   UNL     1       1.787   8.157  18.880  0.00  0.00    +0.000 A 
ATOM      2  C   UNL     1       2.355   7.057  18.233  0.00  0.00    +0.000 A 
ATOM      3  N   UNL     1       2.367   5.961  19.077  0.00  0.00    +0.000 N 
ATOM      4  C   UNL     1       1.857   6.386  20.284  0.00  0.00    +0.000 A 
ATOM      5  C   UNL     1       1.469   7.706  20.185  0.00  0.00    +0.000 A 
ENDROOT
BRANCH   3   6
ATOM      6  C   UNL     1       2.796   4.630  18.765  0.00  0.00    +0.000 A 
ATOM      7  C   UNL     1       3.982   4.110  19.311  0.00  0.00    +0.000 A 
ATOM      8  C   UNL     1       4.416   2.827  18.958  0.00  0.00    +0.000 A 
ATOM      9  C   UNL     1       3.671   2.064  18.067  0.00  0.00    +0.000 A 
ATOM     10  F   UNL     1       4.101   0.844  17.721  0.00  0.00    +0.000 F 
ATOM     11  C   UNL     1       2.493   2.555  17.527  0.00  0.00    +0.000 A 
ATOM     12  C   UNL     1       2.051   3.833  17.878  0.00  0.00    +0.000 A 
ENDBRANCH   3   6
BRANCH   5  13
ATOM     13  C   UNL     1       0.836   8.461  21.300  0.00  0.00    +0.000 A 
ATOM     14  C   UNL     1       1.490   9.212  22.262  0.00  0.00    +0.000 A 
ATOM     15  C   UNL     1       0.500   9.716  23.136  0.00  0.00    +0.000 A 
ATOM     16  C   UNL     1      -0.700   9.253  22.655  0.00  0.00    +0.000 A 
ATOM     17  O   UNL     1      -0.505   8.517  21.536  0.00  0.00    +0.000 OA
ENDBRANCH   5  13
BRANCH   1  18
ATOM     18  C   UNL     1       1.541   9.474  18.276  0.00  0.00    +0.000 C 
ATOM     19  O   UNL     1       2.438  10.156  17.786  0.00  0.00    +0.000 OA
BRANCH  18  22
ATOM     20  C   UNL     1      -1.311  11.817  19.087  0.00  0.00    +0.000 A 
ATOM     21  C   UNL     1      -0.129  11.082  19.232  0.00  0.00    +0.000 A 
ATOM     22  C   UNL     1       0.174  10.050  18.348  0.00  0.00    +0.000 A 
ATOM     23  C   UNL     1      -0.807   9.604  17.465  0.00  0.00    +0.000 A 
ATOM     24  C   UNL     1      -2.049  10.250  17.383  0.00  0.00    +0.000 A 
ATOM     25  C   UNL     1      -2.306  11.393  18.177  0.00  0.00    +0.000 A 
BRANCH  20  27
ATOM     26  C   UNL     1      -1.848  12.720  21.215  0.00  0.00    +0.000 C 
ATOM     27  O   UNL     1      -1.495  12.945  19.846  0.00  0.00    +0.000 OA
ENDBRANCH  20  27
BRANCH  24  28
ATOM     28  O   UNL     1      -2.853   9.654  16.443  0.00  0.00    +0.000 OA
ATOM     29  C   UNL     1      -2.869  10.146  15.113  0.00  0.00    +0.000 C 
ENDBRANCH  24  28
BRANCH  25  30
ATOM     30  O   UNL     1      -3.523  11.990  17.991  0.00  0.00    +0.000 OA
ATOM     31  C   UNL     1      -4.626  11.657  18.816  0.00  0.00    +0.000 C 
ENDBRANCH  25  30
ENDBRANCH  18  22
ENDBRANCH   1  18
TORSDOF 7
ENDMDL
MODEL 7
REMARK VINA RESULT:      -7.5      1.025      2.729
REMARK  Name = 
REMARK  10 active torsions:
REMARK  status: ('A' for Active; 'I' for Inactive)
REMARK    1  A    between atoms: C_1  and  O_2
REMARK    2  A    between atoms: O_2  and  C_3
REMARK    3  A    between atoms: C_5  and  C_6
REMARK    4  A    between atoms: C_6  and  C_8
REMARK    5  A    between atoms: N_10  and  C_11
REMARK    6  A    between atoms: C_19  and  C_20
REMARK    7  A    between atoms: C_26  and  O_27
REMARK    8  A    between atoms: O_27  and  C_28
REMARK    9  A    between atoms: C_29  and  O_30
REMARK   10  A    between atoms: O_30  and  C_31
REMARK                            x       y       z     vdW  Elec       q    Type
REMARK                         _______ _______ _______ _____ _____    ______ ____
ROOT
ATOM      1  C   UNL     1       0.955  10.142  18.881  0.00  0.00    +0.000 A 
ATOM      2  C   UNL     1       1.720   9.354  18.018  0.00  0.00    +0.000 A 
ATOM      3  N   UNL     1       2.086   8.177  18.646  0.00  0.00    +0.000 N 
ATOM      4  C   UNL     1       1.599   8.247  19.932  0.00  0.00    +0.000 A 
ATOM      5  C   UNL     1       0.883   9.415  20.094  0.00  0.00    +0.000 A 
ENDROOT
BRANCH   3   6
ATOM      6  C   UNL     1       2.806   7.078  18.076  0.00  0.00    +0.000 A 
ATOM      7  C   UNL     1       2.335   5.760  18.211  0.00  0.00    +0.000 A 
ATOM      8  C   UNL     1       3.075   4.691  17.693  0.00  0.00    +0.000 A 
ATOM      9  C   UNL     1       4.279   4.932  17.044  0.00  0.00    +0.000 A 
ATOM     10  F   UNL     1       4.990   3.903  16.566  0.00  0.00    +0.000 F 
ATOM     11  C   UNL     1       4.756   6.224  16.891  0.00  0.00    +0.000 A 
ATOM     12  C   UNL     1       4.020   7.297  17.400  0.00  0.00    +0.000 A 
ENDBRANCH   3   6
BRANCH   5  13
ATOM     13  C   UNL     1       0.186   9.782  21.357  0.00  0.00    +0.000 A 
ATOM     14  C   UNL     1      -0.129  11.062  21.781  0.00  0.00    +0.000 A 
ATOM     15  C   UNL     1      -0.749  10.936  23.046  0.00  0.00    +0.000 A 
ATOM     16  C   UNL     1      -0.785   9.590  23.317  0.00  0.00    +0.000 A 
ATOM     17  O   UNL     1      -0.245   8.890  22.292  0.00  0.00    +0.000 OA
ENDBRANCH   5  13
BRANCH   1  18
ATOM     18  C   UNL     1       0.330  11.428  18.539  0.00  0.00    +0.000 C 
ATOM     19  O   UNL     1       0.943  12.492  18.574  0.00  0.00    +0.000 OA
BRANCH  18  22
ATOM     20  C   UNL     1      -3.022  10.581  17.014  0.00  0.00    +0.000 A 
ATOM     21  C   UNL     1      -1.645  10.804  17.126  0.00  0.00    +0.000 A 
ATOM     22  C   UNL     1      -1.124  11.459  18.238  0.00  0.00    +0.000 A 
ATOM     23  C   UNL     1      -1.995  12.092  19.121  0.00  0.00    +0.000 A 
ATOM     24  C   UNL     1      -3.385  11.985  18.964  0.00  0.00    +0.000 A 
ATOM     25  C   UNL     1      -3.918  11.195  17.918  0.00  0.00    +0.000 A 
BRANCH  20  27
ATOM     26  C   UNL     1      -3.028  10.085  14.693  0.00  0.00    +0.000 C 
ATOM     27  O   UNL     1      -3.489   9.770  16.011  0.00  0.00    +0.000 OA
ENDBRANCH  20  27
BRANCH  24  28
ATOM     28  O   UNL     1      -4.047  12.673  19.950  0.00  0.00    +0.000 OA
ATOM     29  C   UNL     1      -3.469  12.792  21.239  0.00  0.00    +0.000 C 
ENDBRANCH  24  28
BRANCH  25  30
ATOM     30  O   UNL     1      -5.283  11.102  17.874  0.00  0.00    +0.000 OA
ATOM     31  C   UNL     1      -6.063  12.161  17.346  0.00  0.00    +0.000 C 
ENDBRANCH  25  30
ENDBRANCH  18  22
ENDBRANCH   1  18
TORSDOF 7
ENDMDL
MODEL 8
REMARK VINA RESULT:      -7.4      0.666      2.416
REMARK  Name = 
REMARK  10 active torsions:
REMARK  status: ('A' for Active; 'I' for Inactive)
REMARK    1  A    between atoms: C_1  and  O_2
REMARK    2  A    between atoms: O_2  and  C_3
REMARK    3  A    between atoms: C_5  and  C_6
REMARK    4  A    between atoms: C_6  and  C_8
REMARK    5  A    between atoms: N_10  and  C_11
REMARK    6  A    between atoms: C_19  and  C_20
REMARK    7  A    between atoms: C_26  and  O_27
REMARK    8  A    between atoms: O_27  and  C_28
REMARK    9  A    between atoms: C_29  and  O_30
REMARK   10  A    between atoms: O_30  and  C_31
REMARK                            x       y       z     vdW  Elec       q    Type
REMARK                         _______ _______ _______ _____ _____    ______ ____
ROOT
ATOM      1  C   UNL     1       1.671   9.431  18.834  0.00  0.00    +0.000 A 
ATOM      2  C   UNL     1       2.451   8.689  17.944  0.00  0.00    +0.000 A 
ATOM      3  N   UNL     1       2.706   7.434  18.466  0.00  0.00    +0.000 N 
ATOM      4  C   UNL     1       2.133   7.402  19.719  0.00  0.00    +0.000 A 
ATOM      5  C   UNL     1       1.473   8.590  19.956  0.00  0.00    +0.000 A 
ENDROOT
BRANCH   3   6
ATOM      6  C   UNL     1       3.405   6.356  17.832  0.00  0.00    +0.000 A 
ATOM      7  C   UNL     1       4.567   6.594  17.079  0.00  0.00    +0.000 A 
ATOM      8  C   UNL     1       5.210   5.537  16.424  0.00  0.00    +0.000 A 
ATOM      9  C   UNL     1       4.699   4.249  16.518  0.00  0.00    +0.000 A 
ATOM     10  F   UNL     1       5.310   3.247  15.874  0.00  0.00    +0.000 F 
ATOM     11  C   UNL     1       3.561   3.991  17.265  0.00  0.00    +0.000 A 
ATOM     12  C   UNL     1       2.916   5.040  17.926  0.00  0.00    +0.000 A 
ENDBRANCH   3   6
BRANCH   5  13
ATOM     13  C   UNL     1       0.708   8.868  21.202  0.00  0.00    +0.000 A 
ATOM     14  C   UNL     1       1.096   9.704  22.236  0.00  0.00    +0.000 A 
ATOM     15  C   UNL     1       0.085   9.635  23.223  0.00  0.00    +0.000 A 
ATOM     16  C   UNL     1      -0.863   8.770  22.733  0.00  0.00    +0.000 A 
ATOM     17  O   UNL     1      -0.503   8.325  21.506  0.00  0.00    +0.000 OA
ENDBRANCH   5  13
BRANCH   1  18
ATOM     18  C   UNL     1       1.143  10.781  18.590  0.00  0.00    +0.000 C 
ATOM     19  O   UNL     1       1.851  11.784  18.621  0.00  0.00    +0.000 OA
BRANCH  18  22
ATOM     20  C   UNL     1      -2.384  10.254  17.341  0.00  0.00    +0.000 A 
ATOM     21  C   UNL     1      -0.987  10.340  17.344  0.00  0.00    +0.000 A 
ATOM     22  C   UNL     1      -0.320  10.954  18.399  0.00  0.00    +0.000 A 
ATOM     23  C   UNL     1      -1.053  11.682  19.332  0.00  0.00    +0.000 A 
ATOM     24  C   UNL     1      -2.454  11.713  19.283  0.00  0.00    +0.000 A 
ATOM     25  C   UNL     1      -3.143  10.967  18.297  0.00  0.00    +0.000 A 
BRANCH  20  27
ATOM     26  C   UNL     1      -3.044  10.031  15.072  0.00  0.00    +0.000 C 
ATOM     27  O   UNL     1      -3.006   9.481  16.393  0.00  0.00    +0.000 OA
ENDBRANCH  20  27
BRANCH  24  28
ATOM     28  O   UNL     1      -2.967  12.477  20.302  0.00  0.00    +0.000 OA
ATOM     29  C   UNL     1      -2.415  13.754  20.574  0.00  0.00    +0.000 C 
ENDBRANCH  24  28
BRANCH  25  30
ATOM     30  O   UNL     1      -4.509  11.011  18.358  0.00  0.00    +0.000 OA
ATOM     31  C   UNL     1      -5.244  11.880  17.514  0.00  0.00    +0.000 C 
ENDBRANCH  25  30
ENDBRANCH  18  22
ENDBRANCH   1  18
TORSDOF 7
ENDMDL
MODEL 9
REMARK VINA RESULT:      -7.3      1.237      2.735
REMARK  Name = 
REMARK  10 active torsions:
REMARK  status: ('A' for Active; 'I' for Inactive)
REMARK    1  A    between atoms: C_1  and  O_2
REMARK    2  A    between atoms: O_2  and  C_3
REMARK    3  A    between atoms: C_5  and  C_6
REMARK    4  A    between atoms: C_6  and  C_8
REMARK    5  A    between atoms: N_10  and  C_11
REMARK    6  A    between atoms: C_19  and  C_20
REMARK    7  A    between atoms: C_26  and  O_27
REMARK    8  A    between atoms: O_27  and  C_28
REMARK    9  A    between atoms: C_29  and  O_30
REMARK   10  A    between atoms: O_30  and  C_31
REMARK                            x       y       z     vdW  Elec       q    Type
REMARK                         _______ _______ _______ _____ _____    ______ ____
ROOT
ATOM      1  C   UNL     1       1.613   8.857  18.998  0.00  0.00    +0.000 A 
ATOM      2  C   UNL     1       2.219   7.859  18.231  0.00  0.00    +0.000 A 
ATOM      3  N   UNL     1       2.320   6.690  18.963  0.00  0.00    +0.000 N 
ATOM      4  C   UNL     1       1.829   6.967  20.220  0.00  0.00    +0.000 A 
ATOM      5  C   UNL     1       1.366   8.265  20.262  0.00  0.00    +0.000 A 
ENDROOT
BRANCH   3   6
ATOM      6  C   UNL     1       2.810   5.422  18.511  0.00  0.00    +0.000 A 
ATOM      7  C   UNL     1       2.003   4.572  17.736  0.00  0.00    +0.000 A 
ATOM      8  C   UNL     1       2.478   3.315  17.344  0.00  0.00    +0.000 A 
ATOM      9  C   UNL     1       3.751   2.906  17.721  0.00  0.00    +0.000 A 
ATOM     10  F   UNL     1       4.192   1.696  17.357  0.00  0.00    +0.000 F 
ATOM     11  C   UNL     1       4.567   3.734  18.476  0.00  0.00    +0.000 A 
ATOM     12  C   UNL     1       4.102   4.992  18.867  0.00  0.00    +0.000 A 
ENDBRANCH   3   6
BRANCH   5  13
ATOM     13  C   UNL     1       0.731   8.873  21.462  0.00  0.00    +0.000 A 
ATOM     14  C   UNL     1       1.360   9.191  22.654  0.00  0.00    +0.000 A 
ATOM     15  C   UNL     1       0.367   9.707  23.520  0.00  0.00    +0.000 A 
ATOM     16  C   UNL     1      -0.806   9.683  22.806  0.00  0.00    +0.000 A 
ATOM     17  O   UNL     1      -0.587   9.203  21.559  0.00  0.00    +0.000 OA
ENDBRANCH   5  13
BRANCH   1  18
ATOM     18  C   UNL     1       1.276  10.209  18.532  0.00  0.00    +0.000 C 
ATOM     19  O   UNL     1       2.122  11.085  18.372  0.00  0.00    +0.000 OA
BRANCH  18  22
ATOM     20  C   UNL     1      -2.309  10.090  17.343  0.00  0.00    +0.000 A 
ATOM     21  C   UNL     1      -0.914   9.989  17.330  0.00  0.00    +0.000 A 
ATOM     22  C   UNL     1      -0.154  10.565  18.344  0.00  0.00    +0.000 A 
ATOM     23  C   UNL     1      -0.770  11.433  19.241  0.00  0.00    +0.000 A 
ATOM     24  C   UNL     1      -2.156  11.647  19.202  0.00  0.00    +0.000 A 
ATOM     25  C   UNL     1      -2.952  10.947  18.265  0.00  0.00    +0.000 A 
BRANCH  20  27
ATOM     26  C   UNL     1      -3.074   9.866  15.108  0.00  0.00    +0.000 C 
ATOM     27  O   UNL     1      -3.042   9.356  16.444  0.00  0.00    +0.000 OA
ENDBRANCH  20  27
BRANCH  24  28
ATOM     28  O   UNL     1      -2.548  12.526  20.181  0.00  0.00    +0.000 OA
ATOM     29  C   UNL     1      -1.586  13.062  21.075  0.00  0.00    +0.000 C 
ENDBRANCH  24  28
BRANCH  25  30
ATOM     30  O   UNL     1      -4.300  11.176  18.334  0.00  0.00    +0.000 OA
ATOM     31  C   UNL     1      -4.942  12.012  17.387  0.00  0.00    +0.000 C 
ENDBRANCH  25  30
ENDBRANCH  18  22
ENDBRANCH   1  18
TORSDOF 7
ENDMDL
