MODEL 1
REMARK VINA RESULT:      -7.7      0.000      0.000
REMARK  Name = 
REMARK  11 active torsions:
REMARK  status: ('A' for Active; 'I' for Inactive)
REMARK    1  A    between atoms: C_1  and  C_2
REMARK    2  A    between atoms: C_2  and  O_3
REMARK    3  A    between atoms: O_3  and  C_4
REMARK    4  A    between atoms: C_4  and  C_6
REMARK    5  A    between atoms: C_6  and  C_7
REMARK    6  A    between atoms: C_6  and  N_14
REMARK    7  A    between atoms: C_7  and  C_8
REMARK    8  A    between atoms: C_11  and  C_12
REMARK    9  A    between atoms: C_19  and  C_20
REMARK   10  A    between atoms: C_20  and  C_21
REMARK   11  A    between atoms: C_20  and  C_22
REMARK                            x       y       z     vdW  Elec       q    Type
REMARK                         _______ _______ _______ _____ _____    ______ ____
ROOT
ATOM      1  N   UNL     1       4.600   5.888  18.149  0.00  0.00    +0.000 N 
ATOM      2  C   UNL     1       3.632   6.792  18.307  0.00  0.00    +0.000 A 
ATOM      3  N   UNL     1       3.021   7.568  17.440  0.00  0.00    +0.000 NA
ATOM      4  C   UNL     1       2.132   8.281  18.208  0.00  0.00    +0.000 A 
ATOM      5  C   UNL     1       1.233   9.317  17.896  0.00  0.00    +0.000 A 
ATOM      6  C   UNL     1       0.403   9.845  18.915  0.00  0.00    +0.000 A 
ATOM      7  C   UNL     1       0.489   9.320  20.221  0.00  0.00    +0.000 A 
ATOM      8  C   UNL     1       1.386   8.294  20.553  0.00  0.00    +0.000 A 
ATOM      9  C   UNL     1       2.190   7.837  19.520  0.00  0.00    +0.000 A 
ATOM     10  O   UNL     1       3.174   6.901  19.593  0.00  0.00    +0.000 OA
ATOM     11  H   UNL     1       5.302   5.822  18.884  0.00  0.00    +0.000 HD
ENDROOT
BRANCH   6  12
ATOM     12  C   UNL     1      -0.585  10.953  18.572  0.00  0.00    +0.000 C 
ATOM     13  C   UNL     1      -1.706  10.445  17.660  0.00  0.00    +0.000 C 
ATOM     14  C   UNL     1      -1.176  11.623  19.815  0.00  0.00    +0.000 C 
ENDBRANCH   6  12
BRANCH   1  15
ATOM     15  C   UNL     1       5.054   5.394  16.840  0.00  0.00    +0.000 C 
BRANCH  15  16
ATOM     16  C   UNL     1       6.567   5.692  16.722  0.00  0.00    +0.000 C 
ATOM     17  O   UNL     1       7.417   4.809  16.744  0.00  0.00    +0.000 OA
BRANCH  16  18
ATOM     18  O   UNL     1       6.844   7.027  16.790  0.00  0.00    +0.000 OA
BRANCH  18  20
ATOM     19  C   UNL     1       8.058   8.902  17.829  0.00  0.00    +0.000 C 
ATOM     20  C   UNL     1       7.738   7.419  17.848  0.00  0.00    +0.000 C 
ENDBRANCH  18  20
ENDBRANCH  16  18
ENDBRANCH  15  16
BRANCH  15  21
ATOM     21  C   UNL     1       4.720   3.913  16.624  0.00  0.00    +0.000 C 
BRANCH  21  22
ATOM     22  C   UNL     1       3.710   3.364  17.584  0.00  0.00    +0.000 A 
ATOM     23  C   UNL     1       2.396   3.042  17.303  0.00  0.00    +0.000 A 
ATOM     24  S   UNL     1       1.610   2.476  18.712  0.00  0.00    +0.000 S 
ATOM     25  C   UNL     1       3.073   2.676  19.590  0.00  0.00    +0.000 A 
ATOM     26  C   UNL     1       3.127   2.358  21.042  0.00  0.00    +0.000 C 
ATOM     27  N   UNL     1       4.094   3.135  18.896  0.00  0.00    +0.000 NA
ENDBRANCH  21  22
ENDBRANCH  15  21
ENDBRANCH   1  15
TORSDOF 7
ENDMDL
MODEL 2
REMARK VINA RESULT:      -7.6      1.213      1.498
REMARK  Name = 
REMARK  11 active torsions:
REMARK  status: ('A' for Active; 'I' for Inactive)
REMARK    1  A    between atoms: C_1  and  C_2
REMARK    2  A    between atoms: C_2  and  O_3
REMARK    3  A    between atoms: O_3  and  C_4
REMARK    4  A    between atoms: C_4  and  C_6
REMARK    5  A    between atoms: C_6  and  C_7
REMARK    6  A    between atoms: C_6  and  N_14
REMARK    7  A    between atoms: C_7  and  C_8
REMARK    8  A    between atoms: C_11  and  C_12
REMARK    9  A    between atoms: C_19  and  C_20
REMARK   10  A    between atoms: C_20  and  C_21
REMARK   11  A    between atoms: C_20  and  C_22
REMARK                            x       y       z     vdW  Elec       q    Type
REMARK                         _______ _______ _______ _____ _____    ______ ____
ROOT
ATOM      1  N   UNL     1       3.611   6.398  18.509  0.00  0.00    +0.000 N 
ATOM      2  C   UNL     1       2.711   7.368  18.680  0.00  0.00    +0.000 A 
ATOM      3  N   UNL     1       2.113   8.158  17.817  0.00  0.00    +0.000 NA
ATOM      4  C   UNL     1       1.307   8.949  18.600  0.00  0.00    +0.000 A 
ATOM      5  C   UNL     1       0.463  10.033  18.295  0.00  0.00    +0.000 A 
ATOM      6  C   UNL     1      -0.284  10.642  19.331  0.00  0.00    +0.000 A 
ATOM      7  C   UNL     1      -0.175  10.149  20.647  0.00  0.00    +0.000 A 
ATOM      8  C   UNL     1       0.668   9.076  20.973  0.00  0.00    +0.000 A 
ATOM      9  C   UNL     1       1.395   8.539  19.921  0.00  0.00    +0.000 A 
ATOM     10  O   UNL     1       2.319   7.543  19.981  0.00  0.00    +0.000 OA
ATOM     11  H   UNL     1       4.339   6.308  19.216  0.00  0.00    +0.000 HD
ENDROOT
BRANCH   6  12
ATOM     12  C   UNL     1      -1.213  11.803  18.997  0.00  0.00    +0.000 C 
ATOM     13  C   UNL     1      -0.457  12.955  18.328  0.00  0.00    +0.000 C 
ATOM     14  C   UNL     1      -2.403  11.378  18.132  0.00  0.00    +0.000 C 
ENDBRANCH   6  12
BRANCH   1  15
ATOM     15  C   UNL     1       3.973   5.840  17.198  0.00  0.00    +0.000 C 
BRANCH  15  16
ATOM     16  C   UNL     1       5.185   6.638  16.664  0.00  0.00    +0.000 C 
ATOM     17  O   UNL     1       5.425   6.753  15.467  0.00  0.00    +0.000 OA
BRANCH  16  18
ATOM     18  O   UNL     1       6.040   7.019  17.658  0.00  0.00    +0.000 OA
BRANCH  18  20
ATOM     19  C   UNL     1       7.817   5.936  18.977  0.00  0.00    +0.000 C 
ATOM     20  C   UNL     1       7.345   6.412  17.617  0.00  0.00    +0.000 C 
ENDBRANCH  18  20
ENDBRANCH  16  18
ENDBRANCH  15  16
BRANCH  15  21
ATOM     21  C   UNL     1       4.234   4.329  17.256  0.00  0.00    +0.000 C 
BRANCH  21  22
ATOM     22  C   UNL     1       3.281   3.574  18.130  0.00  0.00    +0.000 A 
ATOM     23  C   UNL     1       2.243   2.765  17.709  0.00  0.00    +0.000 A 
ATOM     24  S   UNL     1       1.403   2.130  19.057  0.00  0.00    +0.000 S 
ATOM     25  C   UNL     1       2.489   2.954  20.102  0.00  0.00    +0.000 A 
ATOM     26  C   UNL     1       2.329   2.859  21.578  0.00  0.00    +0.000 C 
ATOM     27  N   UNL     1       3.425   3.664  19.505  0.00  0.00    +0.000 NA
ENDBRANCH  21  22
ENDBRANCH  15  21
ENDBRANCH   1  15
TORSDOF 7
ENDMDL
MODEL 3
REMARK VINA RESULT:      -7.5      2.400      4.520
REMARK  Name = 
REMARK  11 active torsions:
REMARK  status: ('A' for Active; 'I' for Inactive)
REMARK    1  A    between atoms: C_1  and  C_2
REMARK    2  A    between atoms: C_2  and  O_3
REMARK    3  A    between atoms: O_3  and  C_4
REMARK    4  A    between atoms: C_4  and  C_6
REMARK    5  A    between atoms: C_6  and  C_7
REMARK    6  A    between atoms: C_6  and  N_14
REMARK    7  A    between atoms: C_7  and  C_8
REMARK    8  A    between atoms: C_11  and  C_12
REMARK    9  A    between atoms: C_19  and  C_20
REMARK   10  A    between atoms: C_20  and  C_21
REMARK   11  A    between atoms: C_20  and  C_22
REMARK                            x       y       z     vdW  Elec       q    Type
REMARK                         _______ _______ _______ _____ _____    ______ ____
ROOT
ATOM      1  N   UNL     1       3.098   5.422  18.075  0.00  0.00    +0.000 N 
ATOM      2  C   UNL     1       2.562   6.531  18.589  0.00  0.00    +0.000 A 
ATOM      3  N   UNL     1       2.003   6.762  19.756  0.00  0.00    +0.000 NA
ATOM      4  C   UNL     1       1.639   8.086  19.687  0.00  0.00    +0.000 A 
ATOM      5  C   UNL     1       0.943   8.922  20.579  0.00  0.00    +0.000 A 
ATOM      6  C   UNL     1       0.742  10.282  20.241  0.00  0.00    +0.000 A 
ATOM      7  C   UNL     1       1.247  10.775  19.020  0.00  0.00    +0.000 A 
ATOM      8  C   UNL     1       1.935   9.955  18.114  0.00  0.00    +0.000 A 
ATOM      9  C   UNL     1       2.077   8.627  18.488  0.00  0.00    +0.000 A 
ATOM     10  O   UNL     1       2.644   7.623  17.768  0.00  0.00    +0.000 OA
ATOM     11  H   UNL     1       2.953   5.251  17.082  0.00  0.00    +0.000 HD
ENDROOT
BRANCH   6  12
ATOM     12  C   UNL     1       0.006  11.192  21.216  0.00  0.00    +0.000 C 
ATOM     13  C   UNL     1      -1.236  11.819  20.574  0.00  0.00    +0.000 C 
ATOM     14  C   UNL     1      -0.373  10.481  22.518  0.00  0.00    +0.000 C 
ENDBRANCH   6  12
BRANCH   1  15
ATOM     15  C   UNL     1       3.380   4.210  18.859  0.00  0.00    +0.000 C 
BRANCH  15  16
ATOM     16  C   UNL     1       2.520   3.063  18.279  0.00  0.00    +0.000 C 
ATOM     17  O   UNL     1       2.194   3.013  17.099  0.00  0.00    +0.000 OA
BRANCH  16  18
ATOM     18  O   UNL     1       2.016   2.245  19.250  0.00  0.00    +0.000 OA
BRANCH  18  20
ATOM     19  C   UNL     1       1.541   2.740  21.617  0.00  0.00    +0.000 C 
ATOM     20  C   UNL     1       1.102   2.870  20.171  0.00  0.00    +0.000 C 
ENDBRANCH  18  20
ENDBRANCH  16  18
ENDBRANCH  15  16
BRANCH  15  21
ATOM     21  C   UNL     1       4.876   3.872  18.897  0.00  0.00    +0.000 C 
BRANCH  21  22
ATOM     22  C   UNL     1       5.708   4.653  17.927  0.00  0.00    +0.000 A 
ATOM     23  C   UNL     1       6.045   4.275  16.641  0.00  0.00    +0.000 A 
ATOM     24  S   UNL     1       7.030   5.468  15.913  0.00  0.00    +0.000 S 
ATOM     25  C   UNL     1       6.920   6.411  17.345  0.00  0.00    +0.000 A 
ATOM     26  C   UNL     1       7.627   7.717  17.440  0.00  0.00    +0.000 C 
ATOM     27  N   UNL     1       6.200   5.888  18.316  0.00  0.00    +0.000 NA
ENDBRANCH  21  22
ENDBRANCH  15  21
ENDBRANCH   1  15
TORSDOF 7
ENDMDL
MODEL 4
REMARK VINA RESULT:      -7.5      1.105      1.705
REMARK  Name = 
REMARK  11 active torsions:
REMARK  status: ('A' for Active; 'I' for Inactive)
REMARK    1  A    between atoms: C_1  and  C_2
REMARK    2  A    between atoms: C_2  and  O_3
REMARK    3  A    between atoms: O_3  and  C_4
REMARK    4  A    between atoms: C_4  and  C_6
REMARK    5  A    between atoms: C_6  and  C_7
REMARK    6  A    between atoms: C_6  and  N_14
REMARK    7  A    between atoms: C_7  and  C_8
REMARK    8  A    between atoms: C_11  and  C_12
REMARK    9  A    between atoms: C_19  and  C_20
REMARK   10  A    between atoms: C_20  and  C_21
REMARK   11  A    between atoms: C_20  and  C_22
REMARK                            x       y       z     vdW  Elec       q    Type
REMARK                         _______ _______ _______ _____ _____    ______ ____
ROOT
ATOM      1  N   UNL     1       4.237   5.790  18.523  0.00  0.00    +0.000 N 
ATOM      2  C   UNL     1       3.322   6.758  18.605  0.00  0.00    +0.000 A 
ATOM      3  N   UNL     1       2.760   7.501  17.678  0.00  0.00    +0.000 NA
ATOM      4  C   UNL     1       1.912   8.320  18.384  0.00  0.00    +0.000 A 
ATOM      5  C   UNL     1       1.076   9.380  17.989  0.00  0.00    +0.000 A 
ATOM      6  C   UNL     1       0.276  10.030  18.959  0.00  0.00    +0.000 A 
ATOM      7  C   UNL     1       0.327   9.601  20.301  0.00  0.00    +0.000 A 
ATOM      8  C   UNL     1       1.161   8.553  20.716  0.00  0.00    +0.000 A 
ATOM      9  C   UNL     1       1.941   7.973  19.726  0.00  0.00    +0.000 A 
ATOM     10  O   UNL     1       2.868   6.990  19.876  0.00  0.00    +0.000 OA
ATOM     11  H   UNL     1       4.931   5.739  19.266  0.00  0.00    +0.000 HD
ENDROOT
BRANCH   6  12
ATOM     12  C   UNL     1      -0.645  11.165  18.527  0.00  0.00    +0.000 C 
ATOM     13  C   UNL     1      -1.779  10.659  17.630  0.00  0.00    +0.000 C 
ATOM     14  C   UNL     1      -1.216  11.947  19.713  0.00  0.00    +0.000 C 
ENDBRANCH   6  12
BRANCH   1  15
ATOM     15  C   UNL     1       4.665   5.174  17.257  0.00  0.00    +0.000 C 
BRANCH  15  16
ATOM     16  C   UNL     1       6.187   5.406  17.111  0.00  0.00    +0.000 C 
ATOM     17  O   UNL     1       6.744   6.415  17.527  0.00  0.00    +0.000 OA
BRANCH  16  18
ATOM     18  O   UNL     1       6.783   4.474  16.310  0.00  0.00    +0.000 OA
BRANCH  18  20
ATOM     19  C   UNL     1       6.178   3.977  13.974  0.00  0.00    +0.000 C 
ATOM     20  C   UNL     1       6.952   4.860  14.933  0.00  0.00    +0.000 C 
ENDBRANCH  18  20
ENDBRANCH  16  18
ENDBRANCH  15  16
BRANCH  15  21
ATOM     21  C   UNL     1       4.277   3.692  17.166  0.00  0.00    +0.000 C 
BRANCH  21  22
ATOM     22  C   UNL     1       3.193   3.282  18.114  0.00  0.00    +0.000 A 
ATOM     23  C   UNL     1       1.878   3.001  17.790  0.00  0.00    +0.000 A 
ATOM     24  S   UNL     1       0.994   2.602  19.198  0.00  0.00    +0.000 S 
ATOM     25  C   UNL     1       2.420   2.806  20.133  0.00  0.00    +0.000 A 
ATOM     26  C   UNL     1       2.385   2.615  21.608  0.00  0.00    +0.000 C 
ATOM     27  N   UNL     1       3.498   3.150  19.459  0.00  0.00    +0.000 NA
ENDBRANCH  21  22
ENDBRANCH  15  21
ENDBRANCH   1  15
TORSDOF 7
ENDMDL
MODEL 5
REMARK VINA RESULT:      -7.4      2.796      7.384
REMARK  Name = 
REMARK  11 active torsions:
REMARK  status: ('A' for Active; 'I' for Inactive)
REMARK    1  A    between atoms: C_1  and  C_2
REMARK    2  A    between atoms: C_2  and  O_3
REMARK    3  A    between atoms: O_3  and  C_4
REMARK    4  A    between atoms: C_4  and  C_6
REMARK    5  A    between atoms: C_6  and  C_7
REMARK    6  A    between atoms: C_6  and  N_14
REMARK    7  A    between atoms: C_7  and  C_8
REMARK    8  A    between atoms: C_11  and  C_12
REMARK    9  A    between atoms: C_19  and  C_20
REMARK   10  A    between atoms: C_20  and  C_21
REMARK   11  A    between atoms: C_20  and  C_22
REMARK                            x       y       z     vdW  Elec       q    Type
REMARK                         _______ _______ _______ _____ _____    ______ ____
ROOT
ATOM      1  N   UNL     1       3.486   5.356  19.970  0.00  0.00    +0.000 N 
ATOM      2  C   UNL     1       4.137   5.137  18.826  0.00  0.00    +0.000 A 
ATOM      3  N   UNL     1       3.702   4.809  17.630  0.00  0.00    +0.000 NA
ATOM      4  C   UNL     1       4.849   4.717  16.878  0.00  0.00    +0.000 A 
ATOM      5  C   UNL     1       5.074   4.341  15.541  0.00  0.00    +0.000 A 
ATOM      6  C   UNL     1       6.392   4.376  15.024  0.00  0.00    +0.000 A 
ATOM      7  C   UNL     1       7.452   4.793  15.856  0.00  0.00    +0.000 A 
ATOM      8  C   UNL     1       7.248   5.162  17.193  0.00  0.00    +0.000 A 
ATOM      9  C   UNL     1       5.942   5.081  17.650  0.00  0.00    +0.000 A 
ATOM     10  O   UNL     1       5.491   5.322  18.910  0.00  0.00    +0.000 OA
ATOM     11  H   UNL     1       3.932   5.038  20.829  0.00  0.00    +0.000 HD
ENDROOT
BRANCH   6  12
ATOM     12  C   UNL     1       6.633   3.988  13.571  0.00  0.00    +0.000 C 
ATOM     13  C   UNL     1       5.318   3.708  12.837  0.00  0.00    +0.000 C 
ATOM     14  C   UNL     1       7.453   5.032  12.808  0.00  0.00    +0.000 C 
ENDBRANCH   6  12
BRANCH   1  15
ATOM     15  C   UNL     1       2.025   5.493  20.067  0.00  0.00    +0.000 C 
BRANCH  15  16
ATOM     16  C   UNL     1       1.433   4.082  20.297  0.00  0.00    +0.000 C 
ATOM     17  O   UNL     1       1.549   3.483  21.359  0.00  0.00    +0.000 OA
BRANCH  16  18
ATOM     18  O   UNL     1       0.956   3.522  19.147  0.00  0.00    +0.000 OA
BRANCH  18  20
ATOM     19  C   UNL     1       2.645   1.811  18.612  0.00  0.00    +0.000 C 
ATOM     20  C   UNL     1       1.209   2.113  18.994  0.00  0.00    +0.000 C 
ENDBRANCH  18  20
ENDBRANCH  16  18
ENDBRANCH  15  16
BRANCH  15  21
ATOM     21  C   UNL     1       1.601   6.499  21.144  0.00  0.00    +0.000 C 
BRANCH  21  22
ATOM     22  C   UNL     1       1.365   7.886  20.630  0.00  0.00    +0.000 A 
ATOM     23  C   UNL     1       0.697   8.904  21.285  0.00  0.00    +0.000 A 
ATOM     24  S   UNL     1       0.648  10.305  20.305  0.00  0.00    +0.000 S 
ATOM     25  C   UNL     1       1.536   9.471  19.094  0.00  0.00    +0.000 A 
ATOM     26  C   UNL     1       1.876  10.146  17.813  0.00  0.00    +0.000 C 
ATOM     27  N   UNL     1       1.857   8.226  19.381  0.00  0.00    +0.000 NA
ENDBRANCH  21  22
ENDBRANCH  15  21
ENDBRANCH   1  15
TORSDOF 7
ENDMDL
MODEL 6
REMARK VINA RESULT:      -7.4      2.804      7.439
REMARK  Name = 
REMARK  11 active torsions:
REMARK  status: ('A' for Active; 'I' for Inactive)
REMARK    1  A    between atoms: C_1  and  C_2
REMARK    2  A    between atoms: C_2  and  O_3
REMARK    3  A    between atoms: O_3  and  C_4
REMARK    4  A    between atoms: C_4  and  C_6
REMARK    5  A    between atoms: C_6  and  C_7
REMARK    6  A    between atoms: C_6  and  N_14
REMARK    7  A    between atoms: C_7  and  C_8
REMARK    8  A    between atoms: C_11  and  C_12
REMARK    9  A    between atoms: C_19  and  C_20
REMARK   10  A    between atoms: C_20  and  C_21
REMARK   11  A    between atoms: C_20  and  C_22
REMARK                            x       y       z     vdW  Elec       q    Type
REMARK                         _______ _______ _______ _____ _____    ______ ____
ROOT
ATOM      1  N   UNL     1       3.668   4.915  19.981  0.00  0.00    +0.000 N 
ATOM      2  C   UNL     1       4.266   4.882  18.789  0.00  0.00    +0.000 A 
ATOM      3  N   UNL     1       3.774   4.917  17.571  0.00  0.00    +0.000 NA
ATOM      4  C   UNL     1       4.886   4.841  16.766  0.00  0.00    +0.000 A 
ATOM      5  C   UNL     1       5.039   4.766  15.370  0.00  0.00    +0.000 A 
ATOM      6  C   UNL     1       6.341   4.729  14.816  0.00  0.00    +0.000 A 
ATOM      7  C   UNL     1       7.460   4.774  15.672  0.00  0.00    +0.000 A 
ATOM      8  C   UNL     1       7.329   4.839  17.067  0.00  0.00    +0.000 A 
ATOM      9  C   UNL     1       6.030   4.844  17.551  0.00  0.00    +0.000 A 
ATOM     10  O   UNL     1       5.634   4.841  18.852  0.00  0.00    +0.000 OA
ATOM     11  H   UNL     1       4.068   4.340  20.720  0.00  0.00    +0.000 HD
ENDROOT
BRANCH   6  12
ATOM     12  C   UNL     1       6.506   4.669  13.302  0.00  0.00    +0.000 C 
ATOM     13  C   UNL     1       7.900   5.133  12.869  0.00  0.00    +0.000 C 
ATOM     14  C   UNL     1       6.208   3.281  12.729  0.00  0.00    +0.000 C 
ENDBRANCH   6  12
BRANCH   1  15
ATOM     15  C   UNL     1       2.246   5.239  20.174  0.00  0.00    +0.000 C 
BRANCH  15  16
ATOM     16  C   UNL     1       1.588   4.050  20.913  0.00  0.00    +0.000 C 
ATOM     17  O   UNL     1       2.054   3.571  21.940  0.00  0.00    +0.000 OA
BRANCH  16  18
ATOM     18  O   UNL     1       0.571   3.488  20.196  0.00  0.00    +0.000 OA
BRANCH  18  20
ATOM     19  C   UNL     1       1.951   1.883  18.936  0.00  0.00    +0.000 C 
ATOM     20  C   UNL     1       0.930   3.004  18.888  0.00  0.00    +0.000 C 
ENDBRANCH  18  20
ENDBRANCH  16  18
ENDBRANCH  15  16
BRANCH  15  21
ATOM     21  C   UNL     1       2.043   6.576  20.898  0.00  0.00    +0.000 C 
BRANCH  21  22
ATOM     22  C   UNL     1       1.790   7.736  19.986  0.00  0.00    +0.000 A 
ATOM     23  C   UNL     1       2.233   7.871  18.683  0.00  0.00    +0.000 A 
ATOM     24  S   UNL     1       1.729   9.372  18.039  0.00  0.00    +0.000 S 
ATOM     25  C   UNL     1       0.940   9.727  19.523  0.00  0.00    +0.000 A 
ATOM     26  C   UNL     1       0.226  11.020  19.704  0.00  0.00    +0.000 C 
ATOM     27  N   UNL     1       1.035   8.799  20.453  0.00  0.00    +0.000 NA
ENDBRANCH  21  22
ENDBRANCH  15  21
ENDBRANCH   1  15
TORSDOF 7
ENDMDL
MODEL 7
REMARK VINA RESULT:      -7.3      1.410      1.631
REMARK  Name = 
REMARK  11 active torsions:
REMARK  status: ('A' for Active; 'I' for Inactive)
REMARK    1  A    between atoms: C_1  and  C_2
REMARK    2  A    between atoms: C_2  and  O_3
REMARK    3  A    between atoms: O_3  and  C_4
REMARK    4  A    between atoms: C_4  and  C_6
REMARK    5  A    between atoms: C_6  and  C_7
REMARK    6  A    between atoms: C_6  and  N_14
REMARK    7  A    between atoms: C_7  and  C_8
REMARK    8  A    between atoms: C_11  and  C_12
REMARK    9  A    between atoms: C_19  and  C_20
REMARK   10  A    between atoms: C_20  and  C_21
REMARK   11  A    between atoms: C_20  and  C_22
REMARK                            x       y       z     vdW  Elec       q    Type
REMARK                         _______ _______ _______ _____ _____    ______ ____
ROOT
ATOM      1  N   UNL     1       3.693   6.475  18.351  0.00  0.00    +0.000 N 
ATOM      2  C   UNL     1       2.771   7.428  18.497  0.00  0.00    +0.000 A 
ATOM      3  N   UNL     1       2.145   8.172  17.612  0.00  0.00    +0.000 NA
ATOM      4  C   UNL     1       1.326   8.970  18.375  0.00  0.00    +0.000 A 
ATOM      5  C   UNL     1       0.453  10.021  18.041  0.00  0.00    +0.000 A 
ATOM      6  C   UNL     1      -0.300  10.647  19.063  0.00  0.00    +0.000 A 
ATOM      7  C   UNL     1      -0.167  10.203  20.395  0.00  0.00    +0.000 A 
ATOM      8  C   UNL     1       0.706   9.163  20.749  0.00  0.00    +0.000 A 
ATOM      9  C   UNL     1       1.436   8.608  19.710  0.00  0.00    +0.000 A 
ATOM     10  O   UNL     1       2.386   7.638  19.794  0.00  0.00    +0.000 OA
ATOM     11  H   UNL     1       4.429   6.427  19.053  0.00  0.00    +0.000 HD
ENDROOT
BRANCH   6  12
ATOM     12  C   UNL     1      -1.261  11.771  18.699  0.00  0.00    +0.000 C 
ATOM     13  C   UNL     1      -2.235  11.345  17.595  0.00  0.00    +0.000 C 
ATOM     14  C   UNL     1      -2.033  12.306  19.908  0.00  0.00    +0.000 C 
ENDBRANCH   6  12
BRANCH   1  15
ATOM     15  C   UNL     1       4.058   5.881  17.056  0.00  0.00    +0.000 C 
BRANCH  15  16
ATOM     16  C   UNL     1       5.260   6.675  16.494  0.00  0.00    +0.000 C 
ATOM     17  O   UNL     1       5.498   6.753  15.294  0.00  0.00    +0.000 OA
BRANCH  16  18
ATOM     18  O   UNL     1       6.111   7.098  17.475  0.00  0.00    +0.000 OA
BRANCH  18  20
ATOM     19  C   UNL     1       7.743   5.999  18.958  0.00  0.00    +0.000 C 
ATOM     20  C   UNL     1       7.369   6.400  17.544  0.00  0.00    +0.000 C 
ENDBRANCH  18  20
ENDBRANCH  16  18
ENDBRANCH  15  16
BRANCH  15  21
ATOM     21  C   UNL     1       4.335   4.375  17.159  0.00  0.00    +0.000 C 
BRANCH  21  22
ATOM     22  C   UNL     1       3.818   3.741  18.413  0.00  0.00    +0.000 A 
ATOM     23  C   UNL     1       4.561   3.053  19.354  0.00  0.00    +0.000 A 
ATOM     24  S   UNL     1       3.546   2.480  20.606  0.00  0.00    +0.000 S 
ATOM     25  C   UNL     1       2.198   3.204  19.824  0.00  0.00    +0.000 A 
ATOM     26  C   UNL     1       0.835   3.079  20.407  0.00  0.00    +0.000 C 
ATOM     27  N   UNL     1       2.466   3.837  18.700  0.00  0.00    +0.000 NA
ENDBRANCH  21  22
ENDBRANCH  15  21
ENDBRANCH   1  15
TORSDOF 7
ENDMDL
MODEL 8
REMARK VINA RESULT:      -7.3      2.560      4.580
REMARK  Name = 
REMARK  11 active torsions:
REMARK  status: ('A' for Active; 'I' for Inactive)
REMARK    1  A    between atoms: C_1  and  C_2
REMARK    2  A    between atoms: C_2  and  O_3
REMARK    3  A    between atoms: O_3  and  C_4
REMARK    4  A    between atoms: C_4  and  C_6
REMARK    5  A    between atoms: C_6  and  C_7
REMARK    6  A    between atoms: C_6  and  N_14
REMARK    7  A    between atoms: C_7  and  C_8
REMARK    8  A    between atoms: C_11  and  C_12
REMARK    9  A    between atoms: C_19  and  C_20
REMARK   10  A    between atoms: C_20  and  C_21
REMARK   11  A    between atoms: C_20  and  C_22
REMARK                            x       y       z     vdW  Elec       q    Type
REMARK                         _______ _______ _______ _____ _____    ______ ____
ROOT
ATOM      1  N   UNL     1       3.077   5.046  18.221  0.00  0.00    +0.000 N 
ATOM      2  C   UNL     1       2.589   6.216  18.638  0.00  0.00    +0.000 A 
ATOM      3  N   UNL     1       2.104   6.588  19.802  0.00  0.00    +0.000 NA
ATOM      4  C   UNL     1       1.755   7.903  19.606  0.00  0.00    +0.000 A 
ATOM      5  C   UNL     1       1.126   8.847  20.438  0.00  0.00    +0.000 A 
ATOM      6  C   UNL     1       0.924  10.164  19.961  0.00  0.00    +0.000 A 
ATOM      7  C   UNL     1       1.361  10.508  18.665  0.00  0.00    +0.000 A 
ATOM      8  C   UNL     1       1.981   9.578  17.818  0.00  0.00    +0.000 A 
ATOM      9  C   UNL     1       2.127   8.298  18.330  0.00  0.00    +0.000 A 
ATOM     10  O   UNL     1       2.635   7.208  17.695  0.00  0.00    +0.000 OA
ATOM     11  H   UNL     1       2.869   4.768  17.264  0.00  0.00    +0.000 HD
ENDROOT
BRANCH   6  12
ATOM     12  C   UNL     1       0.261  11.192  20.869  0.00  0.00    +0.000 C 
ATOM     13  C   UNL     1       1.044  12.509  20.896  0.00  0.00    +0.000 C 
ATOM     14  C   UNL     1      -1.201  11.454  20.499  0.00  0.00    +0.000 C 
ENDBRANCH   6  12
BRANCH   1  15
ATOM     15  C   UNL     1       3.389   3.923  19.119  0.00  0.00    +0.000 C 
BRANCH  15  16
ATOM     16  C   UNL     1       2.650   2.674  18.585  0.00  0.00    +0.000 C 
ATOM     17  O   UNL     1       2.614   2.386  17.394  0.00  0.00    +0.000 OA
BRANCH  16  18
ATOM     18  O   UNL     1       1.900   2.060  19.547  0.00  0.00    +0.000 OA
BRANCH  18  20
ATOM     19  C   UNL     1       1.409   2.626  21.894  0.00  0.00    +0.000 C 
ATOM     20  C   UNL     1       1.183   2.944  20.429  0.00  0.00    +0.000 C 
ENDBRANCH  18  20
ENDBRANCH  16  18
ENDBRANCH  15  16
BRANCH  15  21
ATOM     21  C   UNL     1       4.899   3.700  19.275  0.00  0.00    +0.000 C 
BRANCH  21  22
ATOM     22  C   UNL     1       5.740   4.517  18.343  0.00  0.00    +0.000 A 
ATOM     23  C   UNL     1       6.482   5.637  18.669  0.00  0.00    +0.000 A 
ATOM     24  S   UNL     1       7.261   6.256  17.279  0.00  0.00    +0.000 S 
ATOM     25  C   UNL     1       6.579   4.984  16.348  0.00  0.00    +0.000 A 
ATOM     26  C   UNL     1       6.847   4.896  14.887  0.00  0.00    +0.000 C 
ATOM     27  N   UNL     1       5.816   4.140  17.012  0.00  0.00    +0.000 NA
ENDBRANCH  21  22
ENDBRANCH  15  21
ENDBRANCH   1  15
TORSDOF 7
ENDMDL
MODEL 9
REMARK VINA RESULT:      -7.3      1.565      2.136
REMARK  Name = 
REMARK  11 active torsions:
REMARK  status: ('A' for Active; 'I' for Inactive)
REMARK    1  A    between atoms: C_1  and  C_2
REMARK    2  A    between atoms: C_2  and  O_3
REMARK    3  A    between atoms: O_3  and  C_4
REMARK    4  A    between atoms: C_4  and  C_6
REMARK    5  A    between atoms: C_6  and  C_7
REMARK    6  A    between atoms: C_6  and  N_14
REMARK    7  A    between atoms: C_7  and  C_8
REMARK    8  A    between atoms: C_11  and  C_12
REMARK    9  A    between atoms: C_19  and  C_20
REMARK   10  A    between atoms: C_20  and  C_21
REMARK   11  A    between atoms: C_20  and  C_22
REMARK                            x       y       z     vdW  Elec       q    Type
REMARK                         _______ _______ _______ _____ _____    ______ ____
ROOT
ATOM      1  N   UNL     1       3.682   6.432  18.506  0.00  0.00    +0.000 N 
ATOM      2  C   UNL     1       2.752   7.382  18.619  0.00  0.00    +0.000 A 
ATOM      3  N   UNL     1       2.144   8.112  17.711  0.00  0.00    +0.000 NA
ATOM      4  C   UNL     1       1.305   8.916  18.445  0.00  0.00    +0.000 A 
ATOM      5  C   UNL     1       0.435   9.959  18.078  0.00  0.00    +0.000 A 
ATOM      6  C   UNL     1      -0.345  10.594  19.075  0.00  0.00    +0.000 A 
ATOM      7  C   UNL     1      -0.240  10.166  20.414  0.00  0.00    +0.000 A 
ATOM      8  C   UNL     1       0.629   9.135  20.801  0.00  0.00    +0.000 A 
ATOM      9  C   UNL     1       1.385   8.571  19.786  0.00  0.00    +0.000 A 
ATOM     10  O   UNL     1       2.337   7.606  19.904  0.00  0.00    +0.000 OA
ATOM     11  H   UNL     1       4.402   6.396  19.225  0.00  0.00    +0.000 HD
ENDROOT
BRANCH   6  12
ATOM     12  C   UNL     1      -1.302  11.709  18.674  0.00  0.00    +0.000 C 
ATOM     13  C   UNL     1      -0.568  13.041  18.488  0.00  0.00    +0.000 C 
ATOM     14  C   UNL     1      -2.112  11.372  17.420  0.00  0.00    +0.000 C 
ENDBRANCH   6  12
BRANCH   1  15
ATOM     15  C   UNL     1       4.079   5.823  17.227  0.00  0.00    +0.000 C 
BRANCH  15  16
ATOM     16  C   UNL     1       5.595   6.068  17.038  0.00  0.00    +0.000 C 
ATOM     17  O   UNL     1       6.334   6.380  17.965  0.00  0.00    +0.000 OA
BRANCH  16  18
ATOM     18  O   UNL     1       5.961   6.090  15.723  0.00  0.00    +0.000 OA
BRANCH  18  20
ATOM     19  C   UNL     1       6.221   4.109  14.282  0.00  0.00    +0.000 C 
ATOM     20  C   UNL     1       6.846   5.032  15.310  0.00  0.00    +0.000 C 
ENDBRANCH  18  20
ENDBRANCH  16  18
ENDBRANCH  15  16
BRANCH  15  21
ATOM     21  C   UNL     1       3.700   4.339  17.141  0.00  0.00    +0.000 C 
BRANCH  21  22
ATOM     22  C   UNL     1       3.566   3.662  18.470  0.00  0.00    +0.000 A 
ATOM     23  C   UNL     1       4.555   2.972  19.146  0.00  0.00    +0.000 A 
ATOM     24  S   UNL     1       3.941   2.344  20.614  0.00  0.00    +0.000 S 
ATOM     25  C   UNL     1       2.416   3.051  20.260  0.00  0.00    +0.000 A 
ATOM     26  C   UNL     1       1.272   2.877  21.196  0.00  0.00    +0.000 C 
ATOM     27  N   UNL     1       2.347   3.716  19.125  0.00  0.00    +0.000 NA
ENDBRANCH  21  22
ENDBRANCH  15  21
ENDBRANCH   1  15
TORSDOF 7
ENDMDL
