MODEL 1
REMARK VINA RESULT:      -6.8      0.000      0.000
REMARK  Name = 
REMARK  10 active torsions:
REMARK  status: ('A' for Active; 'I' for Inactive)
REMARK    1  A    between atoms: C_1  and  C_2
REMARK    2  A    between atoms: C_2  and  O_3
REMARK    3  A    between atoms: O_3  and  C_4
REMARK    4  A    between atoms: C_4  and  C_6
REMARK    5  A    between atoms: C_7  and  C_8
REMARK    6  A    between atoms: C_11  and  N_12
REMARK    7  A    between atoms: N_12  and  C_13
REMARK    8  A    between atoms: C_13  and  C_15
REMARK    9  A    between atoms: C_18  and  O_19
REMARK   10  A    between atoms: C_21  and  O_22
REMARK                            x       y       z     vdW  Elec       q    Type
REMARK                         _______ _______ _______ _____ _____    ______ ____
ROOT
ATOM      1  N   UNL     1       4.250   5.210  16.482  0.00  0.00    +0.000 N 
ATOM      2  H   UNL     1       3.601   4.901  15.757  0.00  0.00    +0.000 HD
ENDROOT
BRANCH   1   8
ATOM      3  C   UNL     1       3.530   4.570  18.846  0.00  0.00    +0.000 A 
ATOM      4  C   UNL     1       2.726   5.250  19.854  0.00  0.00    +0.000 A 
ATOM      5  C   UNL     1       2.232   4.666  21.139  0.00  0.00    +0.000 C 
ATOM      6  C   UNL     1       2.491   6.566  19.500  0.00  0.00    +0.000 A 
ATOM      7  S   UNL     1       3.215   6.994  18.016  0.00  0.00    +0.000 S 
ATOM      8  C   UNL     1       3.713   5.390  17.744  0.00  0.00    +0.000 A 
BRANCH   3   9
ATOM      9  C   UNL     1       4.095   3.227  18.994  0.00  0.00    +0.000 C 
ATOM     10  O   UNL     1       4.915   2.929  19.861  0.00  0.00    +0.000 OA
BRANCH   9  11
ATOM     11  O   UNL     1       3.706   2.373  17.996  0.00  0.00    +0.000 OA
BRANCH  11  13
ATOM     12  C   UNL     1       1.533   1.801  18.923  0.00  0.00    +0.000 C 
ATOM     13  C   UNL     1       2.298   2.337  17.724  0.00  0.00    +0.000 C 
ENDBRANCH  11  13
ENDBRANCH   9  11
ENDBRANCH   3   9
ENDBRANCH   1   8
BRANCH   1  14
ATOM     14  C   UNL     1       5.600   5.048  16.189  0.00  0.00    +0.000 C 
ATOM     15  S   UNL     1       6.219   4.071  14.951  0.00  0.00    +0.000 S 
BRANCH  14  16
ATOM     16  C   UNL     1       6.520   5.919  17.003  0.00  0.00    +0.000 A 
ATOM     17  C   UNL     1       6.630   7.284  16.676  0.00  0.00    +0.000 A 
ATOM     18  C   UNL     1       7.446   8.137  17.423  0.00  0.00    +0.000 A 
ATOM     19  C   UNL     1       8.177   7.621  18.485  0.00  0.00    +0.000 A 
ATOM     20  C   UNL     1       8.099   6.273  18.821  0.00  0.00    +0.000 A 
ATOM     21  C   UNL     1       7.264   5.427  18.085  0.00  0.00    +0.000 A 
BRANCH  19  22
ATOM     22  O   UNL     1       8.991   8.419  19.233  0.00  0.00    +0.000 OA
ATOM     23  H   UNL     1       9.677   8.799  18.656  0.00  0.00    +0.000 HD
ENDBRANCH  19  22
BRANCH  21  24
ATOM     24  O   UNL     1       7.160   4.110  18.451  0.00  0.00    +0.000 OA
ATOM     25  H   UNL     1       6.263   3.971  18.807  0.00  0.00    +0.000 HD
ENDBRANCH  21  24
ENDBRANCH  14  16
ENDBRANCH   1  14
TORSDOF 8
ENDMDL
MODEL 2
REMARK VINA RESULT:      -6.5      1.979      2.918
REMARK  Name = 
REMARK  10 active torsions:
REMARK  status: ('A' for Active; 'I' for Inactive)
REMARK    1  A    between atoms: C_1  and  C_2
REMARK    2  A    between atoms: C_2  and  O_3
REMARK    3  A    between atoms: O_3  and  C_4
REMARK    4  A    between atoms: C_4  and  C_6
REMARK    5  A    between atoms: C_7  and  C_8
REMARK    6  A    between atoms: C_11  and  N_12
REMARK    7  A    between atoms: N_12  and  C_13
REMARK    8  A    between atoms: C_13  and  C_15
REMARK    9  A    between atoms: C_18  and  O_19
REMARK   10  A    between atoms: C_21  and  O_22
REMARK                            x       y       z     vdW  Elec       q    Type
REMARK                         _______ _______ _______ _____ _____    ______ ____
ROOT
ATOM      1  N   UNL     1       3.972   4.696  16.709  0.00  0.00    +0.000 N 
ATOM      2  H   UNL     1       3.299   4.928  15.978  0.00  0.00    +0.000 HD
ENDROOT
BRANCH   1   8
ATOM      3  C   UNL     1       2.882   4.697  19.018  0.00  0.00    +0.000 A 
ATOM      4  C   UNL     1       2.676   3.655  20.015  0.00  0.00    +0.000 A 
ATOM      5  C   UNL     1       2.180   3.848  21.413  0.00  0.00    +0.000 C 
ATOM      6  C   UNL     1       2.963   2.405  19.498  0.00  0.00    +0.000 A 
ATOM      7  S   UNL     1       3.453   2.459  17.865  0.00  0.00    +0.000 S 
ATOM      8  C   UNL     1       3.447   4.160  17.872  0.00  0.00    +0.000 A 
BRANCH   3   9
ATOM      9  C   UNL     1       2.509   6.103  19.189  0.00  0.00    +0.000 C 
ATOM     10  O   UNL     1       2.278   6.614  20.283  0.00  0.00    +0.000 OA
BRANCH   9  11
ATOM     11  O   UNL     1       2.331   6.755  17.997  0.00  0.00    +0.000 OA
BRANCH  11  13
ATOM     12  C   UNL     1       1.561   9.049  17.762  0.00  0.00    +0.000 C 
ATOM     13  C   UNL     1       2.751   8.126  17.970  0.00  0.00    +0.000 C 
ENDBRANCH  11  13
ENDBRANCH   9  11
ENDBRANCH   3   9
ENDBRANCH   1   8
BRANCH   1  14
ATOM     14  C   UNL     1       5.298   4.607  16.300  0.00  0.00    +0.000 C 
ATOM     15  S   UNL     1       5.852   3.710  14.974  0.00  0.00    +0.000 S 
BRANCH  14  16
ATOM     16  C   UNL     1       6.246   5.484  17.073  0.00  0.00    +0.000 A 
ATOM     17  C   UNL     1       6.542   6.768  16.579  0.00  0.00    +0.000 A 
ATOM     18  C   UNL     1       7.389   7.630  17.279  0.00  0.00    +0.000 A 
ATOM     19  C   UNL     1       7.968   7.199  18.465  0.00  0.00    +0.000 A 
ATOM     20  C   UNL     1       7.706   5.930  18.970  0.00  0.00    +0.000 A 
ATOM     21  C   UNL     1       6.839   5.078  18.278  0.00  0.00    +0.000 A 
BRANCH  19  22
ATOM     22  O   UNL     1       8.808   8.007  19.173  0.00  0.00    +0.000 OA
ATOM     23  H   UNL     1       8.425   8.166  20.053  0.00  0.00    +0.000 HD
ENDBRANCH  19  22
BRANCH  21  24
ATOM     24  O   UNL     1       6.552   3.846  18.806  0.00  0.00    +0.000 OA
ATOM     25  H   UNL     1       6.995   3.177  18.253  0.00  0.00    +0.000 HD
ENDBRANCH  21  24
ENDBRANCH  14  16
ENDBRANCH   1  14
TORSDOF 8
ENDMDL
MODEL 3
REMARK VINA RESULT:      -6.4      2.167      3.243
REMARK  Name = 
REMARK  10 active torsions:
REMARK  status: ('A' for Active; 'I' for Inactive)
REMARK    1  A    between atoms: C_1  and  C_2
REMARK    2  A    between atoms: C_2  and  O_3
REMARK    3  A    between atoms: O_3  and  C_4
REMARK    4  A    between atoms: C_4  and  C_6
REMARK    5  A    between atoms: C_7  and  C_8
REMARK    6  A    between atoms: C_11  and  N_12
REMARK    7  A    between atoms: N_12  and  C_13
REMARK    8  A    between atoms: C_13  and  C_15
REMARK    9  A    between atoms: C_18  and  O_19
REMARK   10  A    between atoms: C_21  and  O_22
REMARK                            x       y       z     vdW  Elec       q    Type
REMARK                         _______ _______ _______ _____ _____    ______ ____
ROOT
ATOM      1  N   UNL     1       3.649   4.644  17.128  0.00  0.00    +0.000 N 
ATOM      2  H   UNL     1       3.043   5.165  16.493  0.00  0.00    +0.000 HD
ENDROOT
BRANCH   1   8
ATOM      3  C   UNL     1       2.540   4.207  19.385  0.00  0.00    +0.000 A 
ATOM      4  C   UNL     1       2.124   2.985  20.063  0.00  0.00    +0.000 A 
ATOM      5  C   UNL     1       1.650   2.870  21.477  0.00  0.00    +0.000 C 
ATOM      6  C   UNL     1       2.178   1.898  19.211  0.00  0.00    +0.000 A 
ATOM      7  S   UNL     1       2.697   2.312  17.639  0.00  0.00    +0.000 S 
ATOM      8  C   UNL     1       3.013   3.914  18.115  0.00  0.00    +0.000 A 
BRANCH   3   9
ATOM      9  C   UNL     1       2.438   5.553  19.952  0.00  0.00    +0.000 C 
ATOM     10  O   UNL     1       1.782   5.816  20.958  0.00  0.00    +0.000 OA
BRANCH   9  11
ATOM     11  O   UNL     1       3.049   6.504  19.177  0.00  0.00    +0.000 OA
BRANCH  11  13
ATOM     12  C   UNL     1       2.793   8.395  17.672  0.00  0.00    +0.000 C 
ATOM     13  C   UNL     1       2.270   7.678  18.905  0.00  0.00    +0.000 C 
ENDBRANCH  11  13
ENDBRANCH   9  11
ENDBRANCH   3   9
ENDBRANCH   1   8
BRANCH   1  14
ATOM     14  C   UNL     1       4.956   4.454  16.691  0.00  0.00    +0.000 C 
ATOM     15  S   UNL     1       5.429   3.382  15.467  0.00  0.00    +0.000 S 
BRANCH  14  16
ATOM     16  C   UNL     1       5.962   5.381  17.321  0.00  0.00    +0.000 A 
ATOM     17  C   UNL     1       6.706   4.928  18.426  0.00  0.00    +0.000 A 
ATOM     18  C   UNL     1       7.674   5.741  19.022  0.00  0.00    +0.000 A 
ATOM     19  C   UNL     1       7.881   7.022  18.530  0.00  0.00    +0.000 A 
ATOM     20  C   UNL     1       7.150   7.501  17.448  0.00  0.00    +0.000 A 
ATOM     21  C   UNL     1       6.198   6.677  16.839  0.00  0.00    +0.000 A 
BRANCH  19  22
ATOM     22  O   UNL     1       8.810   7.849  19.089  0.00  0.00    +0.000 OA
ATOM     23  H   UNL     1       9.116   8.482  18.416  0.00  0.00    +0.000 HD
ENDBRANCH  19  22
BRANCH  21  24
ATOM     24  O   UNL     1       5.514   7.142  15.747  0.00  0.00    +0.000 OA
ATOM     25  H   UNL     1       5.726   8.088  15.645  0.00  0.00    +0.000 HD
ENDBRANCH  21  24
ENDBRANCH  14  16
ENDBRANCH   1  14
TORSDOF 8
ENDMDL
MODEL 4
REMARK VINA RESULT:      -6.4      3.084      5.942
REMARK  Name = 
REMARK  10 active torsions:
REMARK  status: ('A' for Active; 'I' for Inactive)
REMARK    1  A    between atoms: C_1  and  C_2
REMARK    2  A    between atoms: C_2  and  O_3
REMARK    3  A    between atoms: O_3  and  C_4
REMARK    4  A    between atoms: C_4  and  C_6
REMARK    5  A    between atoms: C_7  and  C_8
REMARK    6  A    between atoms: C_11  and  N_12
REMARK    7  A    between atoms: N_12  and  C_13
REMARK    8  A    between atoms: C_13  and  C_15
REMARK    9  A    between atoms: C_18  and  O_19
REMARK   10  A    between atoms: C_21  and  O_22
REMARK                            x       y       z     vdW  Elec       q    Type
REMARK                         _______ _______ _______ _____ _____    ______ ____
ROOT
ATOM      1  N   UNL     1       3.957   5.693  19.761  0.00  0.00    +0.000 N 
ATOM      2  H   UNL     1       4.524   5.726  20.609  0.00  0.00    +0.000 HD
ENDROOT
BRANCH   1   8
ATOM      3  C   UNL     1       5.829   5.043  18.151  0.00  0.00    +0.000 A 
ATOM      4  C   UNL     1       5.829   4.411  16.838  0.00  0.00    +0.000 A 
ATOM      5  C   UNL     1       7.005   4.258  15.926  0.00  0.00    +0.000 C 
ATOM      6  C   UNL     1       4.580   3.907  16.526  0.00  0.00    +0.000 A 
ATOM      7  S   UNL     1       3.433   4.164  17.762  0.00  0.00    +0.000 S 
ATOM      8  C   UNL     1       4.540   5.092  18.660  0.00  0.00    +0.000 A 
BRANCH   3   9
ATOM      9  C   UNL     1       7.024   5.523  18.849  0.00  0.00    +0.000 C 
ATOM     10  O   UNL     1       7.216   5.362  20.052  0.00  0.00    +0.000 OA
BRANCH   9  11
ATOM     11  O   UNL     1       7.845   6.269  18.045  0.00  0.00    +0.000 OA
BRANCH  11  13
ATOM     12  C   UNL     1       7.797   8.671  17.675  0.00  0.00    +0.000 C 
ATOM     13  C   UNL     1       8.250   7.538  18.579  0.00  0.00    +0.000 C 
ENDBRANCH  11  13
ENDBRANCH   9  11
ENDBRANCH   3   9
ENDBRANCH   1   8
BRANCH   1  14
ATOM     14  C   UNL     1       2.596   5.913  19.940  0.00  0.00    +0.000 C 
ATOM     15  S   UNL     1       1.521   4.831  20.677  0.00  0.00    +0.000 S 
BRANCH  14  16
ATOM     16  C   UNL     1       2.128   7.282  19.522  0.00  0.00    +0.000 A 
ATOM     17  C   UNL     1       2.179   7.632  18.159  0.00  0.00    +0.000 A 
ATOM     18  C   UNL     1       1.724   8.878  17.720  0.00  0.00    +0.000 A 
ATOM     19  C   UNL     1       1.242   9.791  18.648  0.00  0.00    +0.000 A 
ATOM     20  C   UNL     1       1.194   9.478  20.003  0.00  0.00    +0.000 A 
ATOM     21  C   UNL     1       1.628   8.221  20.436  0.00  0.00    +0.000 A 
BRANCH  19  22
ATOM     22  O   UNL     1       0.798  11.020  18.261  0.00  0.00    +0.000 OA
ATOM     23  H   UNL     1       1.386  11.700  18.633  0.00  0.00    +0.000 HD
ENDBRANCH  19  22
BRANCH  21  24
ATOM     24  O   UNL     1       1.536   7.906  21.766  0.00  0.00    +0.000 OA
ATOM     25  H   UNL     1       2.267   8.356  22.229  0.00  0.00    +0.000 HD
ENDBRANCH  21  24
ENDBRANCH  14  16
ENDBRANCH   1  14
TORSDOF 8
ENDMDL
MODEL 5
REMARK VINA RESULT:      -6.3      1.965      6.127
REMARK  Name = 
REMARK  10 active torsions:
REMARK  status: ('A' for Active; 'I' for Inactive)
REMARK    1  A    between atoms: C_1  and  C_2
REMARK    2  A    between atoms: C_2  and  O_3
REMARK    3  A    between atoms: O_3  and  C_4
REMARK    4  A    between atoms: C_4  and  C_6
REMARK    5  A    between atoms: C_7  and  C_8
REMARK    6  A    between atoms: C_11  and  N_12
REMARK    7  A    between atoms: N_12  and  C_13
REMARK    8  A    between atoms: C_13  and  C_15
REMARK    9  A    between atoms: C_18  and  O_19
REMARK   10  A    between atoms: C_21  and  O_22
REMARK                            x       y       z     vdW  Elec       q    Type
REMARK                         _______ _______ _______ _____ _____    ______ ____
ROOT
ATOM      1  N   UNL     1       4.550   3.978  16.293  0.00  0.00    +0.000 N 
ATOM      2  H   UNL     1       3.919   3.193  16.131  0.00  0.00    +0.000 HD
ENDROOT
BRANCH   1   8
ATOM      3  C   UNL     1       6.749   4.815  15.300  0.00  0.00    +0.000 A 
ATOM      4  C   UNL     1       7.232   4.939  13.931  0.00  0.00    +0.000 A 
ATOM      5  C   UNL     1       8.486   5.625  13.490  0.00  0.00    +0.000 C 
ATOM      6  C   UNL     1       6.393   4.290  13.044  0.00  0.00    +0.000 A 
ATOM      7  S   UNL     1       5.068   3.540  13.813  0.00  0.00    +0.000 S 
ATOM      8  C   UNL     1       5.503   4.206  15.316  0.00  0.00    +0.000 A 
BRANCH   3   9
ATOM      9  C   UNL     1       7.489   5.240  16.490  0.00  0.00    +0.000 C 
ATOM     10  O   UNL     1       7.824   4.472  17.390  0.00  0.00    +0.000 OA
BRANCH   9  11
ATOM     11  O   UNL     1       7.664   6.597  16.551  0.00  0.00    +0.000 OA
BRANCH  11  13
ATOM     12  C   UNL     1       7.982   8.654  17.807  0.00  0.00    +0.000 C 
ATOM     13  C   UNL     1       7.741   7.155  17.871  0.00  0.00    +0.000 C 
ENDBRANCH  11  13
ENDBRANCH   9  11
ENDBRANCH   3   9
ENDBRANCH   1   8
BRANCH   1  14
ATOM     14  C   UNL     1       4.134   4.896  17.251  0.00  0.00    +0.000 C 
ATOM     15  S   UNL     1       4.129   6.579  17.052  0.00  0.00    +0.000 S 
BRANCH  14  16
ATOM     16  C   UNL     1       3.555   4.276  18.494  0.00  0.00    +0.000 A 
ATOM     17  C   UNL     1       2.201   4.506  18.802  0.00  0.00    +0.000 A 
ATOM     18  C   UNL     1       1.611   3.925  19.927  0.00  0.00    +0.000 A 
ATOM     19  C   UNL     1       2.383   3.132  20.766  0.00  0.00    +0.000 A 
ATOM     20  C   UNL     1       3.728   2.899  20.494  0.00  0.00    +0.000 A 
ATOM     21  C   UNL     1       4.309   3.464  19.355  0.00  0.00    +0.000 A 
BRANCH  19  22
ATOM     22  O   UNL     1       1.847   2.554  21.878  0.00  0.00    +0.000 OA
ATOM     23  H   UNL     1       2.567   2.199  22.428  0.00  0.00    +0.000 HD
ENDBRANCH  19  22
BRANCH  21  24
ATOM     24  O   UNL     1       5.622   3.194  19.073  0.00  0.00    +0.000 OA
ATOM     25  H   UNL     1       5.759   2.236  19.186  0.00  0.00    +0.000 HD
ENDBRANCH  21  24
ENDBRANCH  14  16
ENDBRANCH   1  14
TORSDOF 8
ENDMDL
MODEL 6
REMARK VINA RESULT:      -6.2      2.194      3.172
REMARK  Name = 
REMARK  10 active torsions:
REMARK  status: ('A' for Active; 'I' for Inactive)
REMARK    1  A    between atoms: C_1  and  C_2
REMARK    2  A    between atoms: C_2  and  O_3
REMARK    3  A    between atoms: O_3  and  C_4
REMARK    4  A    between atoms: C_4  and  C_6
REMARK    5  A    between atoms: C_7  and  C_8
REMARK    6  A    between atoms: C_11  and  N_12
REMARK    7  A    between atoms: N_12  and  C_13
REMARK    8  A    between atoms: C_13  and  C_15
REMARK    9  A    between atoms: C_18  and  O_19
REMARK   10  A    between atoms: C_21  and  O_22
REMARK                            x       y       z     vdW  Elec       q    Type
REMARK                         _______ _______ _______ _____ _____    ______ ____
ROOT
ATOM      1  N   UNL     1       5.632   4.234  19.107  0.00  0.00    +0.000 N 
ATOM      2  H   UNL     1       6.202   4.464  19.922  0.00  0.00    +0.000 HD
ENDROOT
BRANCH   1   8
ATOM      3  C   UNL     1       3.110   4.475  19.423  0.00  0.00    +0.000 A 
ATOM      4  C   UNL     1       2.086   3.572  19.934  0.00  0.00    +0.000 A 
ATOM      5  C   UNL     1       0.663   3.921  20.233  0.00  0.00    +0.000 C 
ATOM      6  C   UNL     1       2.580   2.289  20.082  0.00  0.00    +0.000 A 
ATOM      7  S   UNL     1       4.215   2.150  19.616  0.00  0.00    +0.000 S 
ATOM      8  C   UNL     1       4.335   3.829  19.365  0.00  0.00    +0.000 A 
BRANCH   3   9
ATOM      9  C   UNL     1       2.870   5.856  18.996  0.00  0.00    +0.000 C 
ATOM     10  O   UNL     1       2.950   6.226  17.827  0.00  0.00    +0.000 OA
BRANCH   9  11
ATOM     11  O   UNL     1       2.665   6.709  20.048  0.00  0.00    +0.000 OA
BRANCH  11  13
ATOM     12  C   UNL     1       1.167   8.394  20.957  0.00  0.00    +0.000 C 
ATOM     13  C   UNL     1       1.939   7.908  19.742  0.00  0.00    +0.000 C 
ENDBRANCH  11  13
ENDBRANCH   9  11
ENDBRANCH   3   9
ENDBRANCH   1   8
BRANCH   1  14
ATOM     14  C   UNL     1       6.108   4.705  17.888  0.00  0.00    +0.000 C 
ATOM     15  S   UNL     1       5.827   3.976  16.385  0.00  0.00    +0.000 S 
BRANCH  14  16
ATOM     16  C   UNL     1       6.827   6.025  17.970  0.00  0.00    +0.000 A 
ATOM     17  C   UNL     1       6.424   7.074  17.123  0.00  0.00    +0.000 A 
ATOM     18  C   UNL     1       7.040   8.326  17.187  0.00  0.00    +0.000 A 
ATOM     19  C   UNL     1       8.083   8.526  18.082  0.00  0.00    +0.000 A 
ATOM     20  C   UNL     1       8.511   7.503  18.922  0.00  0.00    +0.000 A 
ATOM     21  C   UNL     1       7.877   6.258  18.871  0.00  0.00    +0.000 A 
BRANCH  19  22
ATOM     22  O   UNL     1       8.715   9.730  18.169  0.00  0.00    +0.000 OA
ATOM     23  H   UNL     1       9.227   9.877  17.354  0.00  0.00    +0.000 HD
ENDBRANCH  19  22
BRANCH  21  24
ATOM     24  O   UNL     1       8.278   5.270  19.732  0.00  0.00    +0.000 OA
ATOM     25  H   UNL     1       7.494   4.976  20.232  0.00  0.00    +0.000 HD
ENDBRANCH  21  24
ENDBRANCH  14  16
ENDBRANCH   1  14
TORSDOF 8
ENDMDL
MODEL 7
REMARK VINA RESULT:      -6.2      3.037      5.955
REMARK  Name = 
REMARK  10 active torsions:
REMARK  status: ('A' for Active; 'I' for Inactive)
REMARK    1  A    between atoms: C_1  and  C_2
REMARK    2  A    between atoms: C_2  and  O_3
REMARK    3  A    between atoms: O_3  and  C_4
REMARK    4  A    between atoms: C_4  and  C_6
REMARK    5  A    between atoms: C_7  and  C_8
REMARK    6  A    between atoms: C_11  and  N_12
REMARK    7  A    between atoms: N_12  and  C_13
REMARK    8  A    between atoms: C_13  and  C_15
REMARK    9  A    between atoms: C_18  and  O_19
REMARK   10  A    between atoms: C_21  and  O_22
REMARK                            x       y       z     vdW  Elec       q    Type
REMARK                         _______ _______ _______ _____ _____    ______ ____
ROOT
ATOM      1  N   UNL     1       3.963   5.732  19.729  0.00  0.00    +0.000 N 
ATOM      2  H   UNL     1       4.565   5.879  20.539  0.00  0.00    +0.000 HD
ENDROOT
BRANCH   1   8
ATOM      3  C   UNL     1       5.835   5.083  18.118  0.00  0.00    +0.000 A 
ATOM      4  C   UNL     1       5.838   4.417  16.822  0.00  0.00    +0.000 A 
ATOM      5  C   UNL     1       7.008   4.267  15.902  0.00  0.00    +0.000 C 
ATOM      6  C   UNL     1       4.598   3.875  16.535  0.00  0.00    +0.000 A 
ATOM      7  S   UNL     1       3.457   4.138  17.776  0.00  0.00    +0.000 S 
ATOM      8  C   UNL     1       4.550   5.116  18.638  0.00  0.00    +0.000 A 
BRANCH   3   9
ATOM      9  C   UNL     1       7.025   5.609  18.790  0.00  0.00    +0.000 C 
ATOM     10  O   UNL     1       7.265   5.429  19.982  0.00  0.00    +0.000 OA
BRANCH   9  11
ATOM     11  O   UNL     1       7.778   6.420  17.982  0.00  0.00    +0.000 OA
BRANCH  11  13
ATOM     12  C   UNL     1       8.125   8.824  17.892  0.00  0.00    +0.000 C 
ATOM     13  C   UNL     1       7.174   7.671  17.622  0.00  0.00    +0.000 C 
ENDBRANCH  11  13
ENDBRANCH   9  11
ENDBRANCH   3   9
ENDBRANCH   1   8
BRANCH   1  14
ATOM     14  C   UNL     1       2.597   5.829  19.968  0.00  0.00    +0.000 C 
ATOM     15  S   UNL     1       1.608   4.562  20.503  0.00  0.00    +0.000 S 
BRANCH  14  16
ATOM     16  C   UNL     1       2.039   7.220  19.824  0.00  0.00    +0.000 A 
ATOM     17  C   UNL     1       1.301   7.771  20.889  0.00  0.00    +0.000 A 
ATOM     18  C   UNL     1       0.794   9.070  20.814  0.00  0.00    +0.000 A 
ATOM     19  C   UNL     1       0.998   9.815  19.660  0.00  0.00    +0.000 A 
ATOM     20  C   UNL     1       1.711   9.290  18.586  0.00  0.00    +0.000 A 
ATOM     21  C   UNL     1       2.238   7.998  18.674  0.00  0.00    +0.000 A 
BRANCH  19  22
ATOM     22  O   UNL     1       0.511  11.083  19.545  0.00  0.00    +0.000 OA
ATOM     23  H   UNL     1      -0.144  11.234  20.249  0.00  0.00    +0.000 HD
ENDBRANCH  19  22
BRANCH  21  24
ATOM     24  O   UNL     1       2.975   7.507  17.628  0.00  0.00    +0.000 OA
ATOM     25  H   UNL     1       2.432   7.580  16.822  0.00  0.00    +0.000 HD
ENDBRANCH  21  24
ENDBRANCH  14  16
ENDBRANCH   1  14
TORSDOF 8
ENDMDL
MODEL 8
REMARK VINA RESULT:      -6.2      3.485      5.601
REMARK  Name = 
REMARK  10 active torsions:
REMARK  status: ('A' for Active; 'I' for Inactive)
REMARK    1  A    between atoms: C_1  and  C_2
REMARK    2  A    between atoms: C_2  and  O_3
REMARK    3  A    between atoms: O_3  and  C_4
REMARK    4  A    between atoms: C_4  and  C_6
REMARK    5  A    between atoms: C_7  and  C_8
REMARK    6  A    between atoms: C_11  and  N_12
REMARK    7  A    between atoms: N_12  and  C_13
REMARK    8  A    between atoms: C_13  and  C_15
REMARK    9  A    between atoms: C_18  and  O_19
REMARK   10  A    between atoms: C_21  and  O_22
REMARK                            x       y       z     vdW  Elec       q    Type
REMARK                         _______ _______ _______ _____ _____    ______ ____
ROOT
ATOM      1  N   UNL     1       2.920   6.282  19.928  0.00  0.00    +0.000 N 
ATOM      2  H   UNL     1       2.738   6.610  20.877  0.00  0.00    +0.000 HD
ENDROOT
BRANCH   1   8
ATOM      3  C   UNL     1       3.710   3.959  19.220  0.00  0.00    +0.000 A 
ATOM      4  C   UNL     1       3.021   2.683  19.072  0.00  0.00    +0.000 A 
ATOM      5  C   UNL     1       3.582   1.436  18.466  0.00  0.00    +0.000 C 
ATOM      6  C   UNL     1       1.749   2.736  19.611  0.00  0.00    +0.000 A 
ATOM      7  S   UNL     1       1.379   4.256  20.290  0.00  0.00    +0.000 S 
ATOM      8  C   UNL     1       2.844   4.915  19.731  0.00  0.00    +0.000 A 
BRANCH   3   9
ATOM      9  C   UNL     1       5.123   4.188  18.910  0.00  0.00    +0.000 C 
ATOM     10  O   UNL     1       5.932   4.628  19.724  0.00  0.00    +0.000 OA
BRANCH   9  11
ATOM     11  O   UNL     1       5.418   3.973  17.590  0.00  0.00    +0.000 OA
BRANCH  11  13
ATOM     12  C   UNL     1       6.702   4.526  15.601  0.00  0.00    +0.000 C 
ATOM     13  C   UNL     1       6.630   4.580  17.118  0.00  0.00    +0.000 C 
ENDBRANCH  11  13
ENDBRANCH   9  11
ENDBRANCH   3   9
ENDBRANCH   1   8
BRANCH   1  14
ATOM     14  C   UNL     1       2.852   7.251  18.933  0.00  0.00    +0.000 C 
ATOM     15  S   UNL     1       3.747   7.236  17.495  0.00  0.00    +0.000 S 
BRANCH  14  16
ATOM     16  C   UNL     1       1.804   8.307  19.165  0.00  0.00    +0.000 A 
ATOM     17  C   UNL     1       1.289   9.010  18.060  0.00  0.00    +0.000 A 
ATOM     18  C   UNL     1       0.293   9.974  18.224  0.00  0.00    +0.000 A 
ATOM     19  C   UNL     1      -0.174  10.260  19.500  0.00  0.00    +0.000 A 
ATOM     20  C   UNL     1       0.327   9.591  20.612  0.00  0.00    +0.000 A 
ATOM     21  C   UNL     1       1.308   8.609  20.442  0.00  0.00    +0.000 A 
BRANCH  19  22
ATOM     22  O   UNL     1      -1.140  11.201  19.702  0.00  0.00    +0.000 OA
ATOM     23  H   UNL     1      -1.074  11.530  20.615  0.00  0.00    +0.000 HD
ENDBRANCH  19  22
BRANCH  21  24
ATOM     24  O   UNL     1       1.764   7.926  21.539  0.00  0.00    +0.000 OA
ATOM     25  H   UNL     1       1.813   6.982  21.301  0.00  0.00    +0.000 HD
ENDBRANCH  21  24
ENDBRANCH  14  16
ENDBRANCH   1  14
TORSDOF 8
ENDMDL
MODEL 9
REMARK VINA RESULT:      -6.2      1.968      2.902
REMARK  Name = 
REMARK  10 active torsions:
REMARK  status: ('A' for Active; 'I' for Inactive)
REMARK    1  A    between atoms: C_1  and  C_2
REMARK    2  A    between atoms: C_2  and  O_3
REMARK    3  A    between atoms: O_3  and  C_4
REMARK    4  A    between atoms: C_4  and  C_6
REMARK    5  A    between atoms: C_7  and  C_8
REMARK    6  A    between atoms: C_11  and  N_12
REMARK    7  A    between atoms: N_12  and  C_13
REMARK    8  A    between atoms: C_13  and  C_15
REMARK    9  A    between atoms: C_18  and  O_19
REMARK   10  A    between atoms: C_21  and  O_22
REMARK                            x       y       z     vdW  Elec       q    Type
REMARK                         _______ _______ _______ _____ _____    ______ ____
ROOT
ATOM      1  N   UNL     1       5.378   3.879  18.489  0.00  0.00    +0.000 N 
ATOM      2  H   UNL     1       6.008   3.951  19.289  0.00  0.00    +0.000 HD
ENDROOT
BRANCH   1   8
ATOM      3  C   UNL     1       3.000   4.060  19.400  0.00  0.00    +0.000 A 
ATOM      4  C   UNL     1       1.931   3.085  19.575  0.00  0.00    +0.000 A 
ATOM      5  C   UNL     1       0.640   3.302  20.300  0.00  0.00    +0.000 C 
ATOM      6  C   UNL     1       2.230   1.895  18.938  0.00  0.00    +0.000 A 
ATOM      7  S   UNL     1       3.737   1.932  18.138  0.00  0.00    +0.000 S 
ATOM      8  C   UNL     1       4.085   3.474  18.766  0.00  0.00    +0.000 A 
BRANCH   3   9
ATOM      9  C   UNL     1       2.924   5.466  19.803  0.00  0.00    +0.000 C 
ATOM     10  O   UNL     1       2.362   5.847  20.828  0.00  0.00    +0.000 OA
BRANCH   9  11
ATOM     11  O   UNL     1       3.438   6.318  18.861  0.00  0.00    +0.000 OA
BRANCH  11  13
ATOM     12  C   UNL     1       2.502   8.317  17.845  0.00  0.00    +0.000 C 
ATOM     13  C   UNL     1       2.504   6.798  17.883  0.00  0.00    +0.000 C 
ENDBRANCH  11  13
ENDBRANCH   9  11
ENDBRANCH   3   9
ENDBRANCH   1   8
BRANCH   1  14
ATOM     14  C   UNL     1       5.795   4.533  17.335  0.00  0.00    +0.000 C 
ATOM     15  S   UNL     1       5.409   4.063  15.754  0.00  0.00    +0.000 S 
BRANCH  14  16
ATOM     16  C   UNL     1       6.552   5.811  17.585  0.00  0.00    +0.000 A 
ATOM     17  C   UNL     1       6.129   6.989  16.941  0.00  0.00    +0.000 A 
ATOM     18  C   UNL     1       6.780   8.204  17.168  0.00  0.00    +0.000 A 
ATOM     19  C   UNL     1       7.876   8.239  18.021  0.00  0.00    +0.000 A 
ATOM     20  C   UNL     1       8.324   7.087  18.659  0.00  0.00    +0.000 A 
ATOM     21  C   UNL     1       7.656   5.878  18.447  0.00  0.00    +0.000 A 
BRANCH  19  22
ATOM     22  O   UNL     1       8.543   9.404  18.261  0.00  0.00    +0.000 OA
ATOM     23  H   UNL     1       7.951  10.015  18.733  0.00  0.00    +0.000 HD
ENDBRANCH  19  22
BRANCH  21  24
ATOM     24  O   UNL     1       8.079   4.757  19.114  0.00  0.00    +0.000 OA
ATOM     25  H   UNL     1       7.608   3.992  18.736  0.00  0.00    +0.000 HD
ENDBRANCH  21  24
ENDBRANCH  14  16
ENDBRANCH   1  14
TORSDOF 8
ENDMDL
