MODEL 1
REMARK VINA RESULT:      -6.5      0.000      0.000
REMARK  Name = 
REMARK  6 active torsions:
REMARK  status: ('A' for Active; 'I' for Inactive)
REMARK    1  A    between atoms: C_1  and  C_2
REMARK    2  A    between atoms: C_4  and  C_5
REMARK    3  A    between atoms: C_5  and  N_6
REMARK    4  A    between atoms: C_12  and  C_13
REMARK    5  A    between atoms: C_12  and  C_14
REMARK    6  A    between atoms: C_15  and  C_16
REMARK                            x       y       z     vdW  Elec       q    Type
REMARK                         _______ _______ _______ _____ _____    ______ ____
ROOT
ATOM      1  N   UNL     1       5.580   5.760  18.305  0.00  0.00    +0.000 NA
ATOM      2  C   UNL     1       4.800   6.218  17.133  0.00  0.00    +0.000 C 
ATOM      3  C   UNL     1       4.908   5.332  15.884  0.00  0.00    +0.000 C 
ATOM      4  S   UNL     1       6.606   5.077  15.309  0.00  0.00    +0.000 S 
ATOM      5  O   UNL     1       6.641   3.749  14.468  0.00  0.00    +0.000 OA
ATOM      6  C   UNL     1       7.429   4.745  16.913  0.00  0.00    +0.000 C 
ATOM      7  C   UNL     1       7.060   5.805  17.986  0.00  0.00    +0.000 C 
ATOM      8  C   UNL     1       7.590   7.183  17.472  0.00  0.00    +0.000 C 
ATOM      9  C   UNL     1       7.864   5.600  19.306  0.00  0.00    +0.000 C 
ENDROOT
BRANCH   1  10
ATOM     10  C   UNL     1       5.169   4.371  18.710  0.00  0.00    +0.000 C 
BRANCH  10  14
ATOM     11  C   UNL     1       1.211   6.224  20.884  0.00  0.00    +0.000 C 
ATOM     12  C   UNL     1       2.041   5.145  20.280  0.00  0.00    +0.000 A 
ATOM     13  N   UNL     1       3.351   5.193  20.157  0.00  0.00    +0.000 NA
ATOM     14  C   UNL     1       3.795   4.184  19.308  0.00  0.00    +0.000 A 
ATOM     15  C   UNL     1       2.803   3.316  18.890  0.00  0.00    +0.000 A 
ATOM     16  C   UNL     1       2.835   2.223  17.872  0.00  0.00    +0.000 C 
ATOM     17  S   UNL     1       1.302   3.759  19.594  0.00  0.00    +0.000 S 
ENDBRANCH  10  14
ENDBRANCH   1  10
TORSDOF 2
ENDMDL
MODEL 2
REMARK VINA RESULT:      -6.3      2.473      5.777
REMARK  Name = 
REMARK  6 active torsions:
REMARK  status: ('A' for Active; 'I' for Inactive)
REMARK    1  A    between atoms: C_1  and  C_2
REMARK    2  A    between atoms: C_4  and  C_5
REMARK    3  A    between atoms: C_5  and  N_6
REMARK    4  A    between atoms: C_12  and  C_13
REMARK    5  A    between atoms: C_12  and  C_14
REMARK    6  A    between atoms: C_15  and  C_16
REMARK                            x       y       z     vdW  Elec       q    Type
REMARK                         _______ _______ _______ _____ _____    ______ ____
ROOT
ATOM      1  N   UNL     1       3.846   4.406  19.085  0.00  0.00    +0.000 NA
ATOM      2  C   UNL     1       4.022   2.963  19.365  0.00  0.00    +0.000 C 
ATOM      3  C   UNL     1       2.943   2.043  18.779  0.00  0.00    +0.000 C 
ATOM      4  S   UNL     1       1.258   2.468  19.291  0.00  0.00    +0.000 S 
ATOM      5  O   UNL     1       0.263   1.895  18.217  0.00  0.00    +0.000 OA
ATOM      6  C   UNL     1       1.322   4.288  19.081  0.00  0.00    +0.000 C 
ATOM      7  C   UNL     1       2.580   4.907  19.748  0.00  0.00    +0.000 C 
ATOM      8  C   UNL     1       2.473   4.622  21.283  0.00  0.00    +0.000 C 
ATOM      9  C   UNL     1       2.564   6.464  19.688  0.00  0.00    +0.000 C 
ENDROOT
BRANCH   1  10
ATOM     10  C   UNL     1       3.803   4.661  17.603  0.00  0.00    +0.000 C 
BRANCH  10  14
ATOM     11  C   UNL     1       6.073   3.776  13.375  0.00  0.00    +0.000 C 
ATOM     12  C   UNL     1       5.998   4.083  14.829  0.00  0.00    +0.000 A 
ATOM     13  N   UNL     1       4.956   3.824  15.593  0.00  0.00    +0.000 NA
ATOM     14  C   UNL     1       5.077   4.479  16.815  0.00  0.00    +0.000 A 
ATOM     15  C   UNL     1       6.279   5.140  16.989  0.00  0.00    +0.000 A 
ATOM     16  C   UNL     1       6.727   6.073  18.066  0.00  0.00    +0.000 C 
ATOM     17  S   UNL     1       7.278   4.912  15.612  0.00  0.00    +0.000 S 
ENDBRANCH  10  14
ENDBRANCH   1  10
TORSDOF 2
ENDMDL
MODEL 3
REMARK VINA RESULT:      -6.2      3.017      4.381
REMARK  Name = 
REMARK  6 active torsions:
REMARK  status: ('A' for Active; 'I' for Inactive)
REMARK    1  A    between atoms: C_1  and  C_2
REMARK    2  A    between atoms: C_4  and  C_5
REMARK    3  A    between atoms: C_5  and  N_6
REMARK    4  A    between atoms: C_12  and  C_13
REMARK    5  A    between atoms: C_12  and  C_14
REMARK    6  A    between atoms: C_15  and  C_16
REMARK                            x       y       z     vdW  Elec       q    Type
REMARK                         _______ _______ _______ _____ _____    ______ ____
ROOT
ATOM      1  N   UNL     1       2.954   5.517  18.239  0.00  0.00    +0.000 NA
ATOM      2  C   UNL     1       2.098   4.313  18.326  0.00  0.00    +0.000 C 
ATOM      3  C   UNL     1       2.508   3.291  19.395  0.00  0.00    +0.000 C 
ATOM      4  S   UNL     1       4.213   2.703  19.235  0.00  0.00    +0.000 S 
ATOM      5  O   UNL     1       4.683   2.181  20.642  0.00  0.00    +0.000 OA
ATOM      6  C   UNL     1       5.061   4.297  18.919  0.00  0.00    +0.000 C 
ATOM      7  C   UNL     1       4.353   5.123  17.811  0.00  0.00    +0.000 C 
ATOM      8  C   UNL     1       4.436   4.286  16.491  0.00  0.00    +0.000 C 
ATOM      9  C   UNL     1       5.149   6.412  17.448  0.00  0.00    +0.000 C 
ENDROOT
BRANCH   1  10
ATOM     10  C   UNL     1       2.990   6.243  19.556  0.00  0.00    +0.000 C 
BRANCH  10  14
ATOM     11  C   UNL     1       0.564   9.213  22.575  0.00  0.00    +0.000 C 
ATOM     12  C   UNL     1       0.965   8.668  21.249  0.00  0.00    +0.000 A 
ATOM     13  N   UNL     1       1.466   7.465  21.058  0.00  0.00    +0.000 NA
ATOM     14  C   UNL     1       1.999   7.360  19.777  0.00  0.00    +0.000 A 
ATOM     15  C   UNL     1       1.787   8.471  18.980  0.00  0.00    +0.000 A 
ATOM     16  C   UNL     1       2.325   8.814  17.630  0.00  0.00    +0.000 C 
ATOM     17  S   UNL     1       0.884   9.647  19.844  0.00  0.00    +0.000 S 
ENDBRANCH  10  14
ENDBRANCH   1  10
TORSDOF 2
ENDMDL
MODEL 4
REMARK VINA RESULT:      -6.1      3.284      5.009
REMARK  Name = 
REMARK  6 active torsions:
REMARK  status: ('A' for Active; 'I' for Inactive)
REMARK    1  A    between atoms: C_1  and  C_2
REMARK    2  A    between atoms: C_4  and  C_5
REMARK    3  A    between atoms: C_5  and  N_6
REMARK    4  A    between atoms: C_12  and  C_13
REMARK    5  A    between atoms: C_12  and  C_14
REMARK    6  A    between atoms: C_15  and  C_16
REMARK                            x       y       z     vdW  Elec       q    Type
REMARK                         _______ _______ _______ _____ _____    ______ ____
ROOT
ATOM      1  N   UNL     1       2.610   5.339  18.536  0.00  0.00    +0.000 NA
ATOM      2  C   UNL     1       1.366   4.596  18.837  0.00  0.00    +0.000 C 
ATOM      3  C   UNL     1       1.358   3.842  20.174  0.00  0.00    +0.000 C 
ATOM      4  S   UNL     1       2.722   2.665  20.363  0.00  0.00    +0.000 S 
ATOM      5  O   UNL     1       2.954   2.430  21.900  0.00  0.00    +0.000 OA
ATOM      6  C   UNL     1       4.105   3.694  19.739  0.00  0.00    +0.000 C 
ATOM      7  C   UNL     1       3.763   4.368  18.383  0.00  0.00    +0.000 C 
ATOM      8  C   UNL     1       3.536   3.221  17.344  0.00  0.00    +0.000 C 
ATOM      9  C   UNL     1       4.986   5.131  17.788  0.00  0.00    +0.000 C 
ENDROOT
BRANCH   1  10
ATOM     10  C   UNL     1       2.907   6.345  19.615  0.00  0.00    +0.000 C 
BRANCH  10  14
ATOM     11  C   UNL     1       0.490   9.328  22.628  0.00  0.00    +0.000 C 
ATOM     12  C   UNL     1       0.886   8.777  21.303  0.00  0.00    +0.000 A 
ATOM     13  N   UNL     1       1.387   7.573  21.116  0.00  0.00    +0.000 NA
ATOM     14  C   UNL     1       1.916   7.462  19.834  0.00  0.00    +0.000 A 
ATOM     15  C   UNL     1       1.699   8.569  19.033  0.00  0.00    +0.000 A 
ATOM     16  C   UNL     1       2.232   8.906  17.678  0.00  0.00    +0.000 C 
ATOM     17  S   UNL     1       0.799   9.748  19.893  0.00  0.00    +0.000 S 
ENDBRANCH  10  14
ENDBRANCH   1  10
TORSDOF 2
ENDMDL
MODEL 5
REMARK VINA RESULT:      -6.1      1.433      2.002
REMARK  Name = 
REMARK  6 active torsions:
REMARK  status: ('A' for Active; 'I' for Inactive)
REMARK    1  A    between atoms: C_1  and  C_2
REMARK    2  A    between atoms: C_4  and  C_5
REMARK    3  A    between atoms: C_5  and  N_6
REMARK    4  A    between atoms: C_12  and  C_13
REMARK    5  A    between atoms: C_12  and  C_14
REMARK    6  A    between atoms: C_15  and  C_16
REMARK                            x       y       z     vdW  Elec       q    Type
REMARK                         _______ _______ _______ _____ _____    ______ ____
ROOT
ATOM      1  N   UNL     1       5.008   6.084  17.557  0.00  0.00    +0.000 NA
ATOM      2  C   UNL     1       4.939   6.766  16.245  0.00  0.00    +0.000 C 
ATOM      3  C   UNL     1       5.274   5.890  15.030  0.00  0.00    +0.000 C 
ATOM      4  S   UNL     1       6.902   5.100  15.119  0.00  0.00    +0.000 S 
ATOM      5  O   UNL     1       6.879   3.830  14.193  0.00  0.00    +0.000 OA
ATOM      6  C   UNL     1       6.871   4.525  16.859  0.00  0.00    +0.000 C 
ATOM      7  C   UNL     1       6.432   5.649  17.836  0.00  0.00    +0.000 C 
ATOM      8  C   UNL     1       7.506   6.783  17.744  0.00  0.00    +0.000 C 
ATOM      9  C   UNL     1       6.537   5.200  19.325  0.00  0.00    +0.000 C 
ENDROOT
BRANCH   1  10
ATOM     10  C   UNL     1       4.078   4.901  17.593  0.00  0.00    +0.000 C 
BRANCH  10  14
ATOM     11  C   UNL     1       2.320   2.815  21.640  0.00  0.00    +0.000 C 
ATOM     12  C   UNL     1       2.351   3.820  20.542  0.00  0.00    +0.000 A 
ATOM     13  N   UNL     1       2.948   3.638  19.382  0.00  0.00    +0.000 NA
ATOM     14  C   UNL     1       3.047   4.844  18.694  0.00  0.00    +0.000 A 
ATOM     15  C   UNL     1       2.413   5.905  19.314  0.00  0.00    +0.000 A 
ATOM     16  C   UNL     1       2.422   7.363  18.992  0.00  0.00    +0.000 C 
ATOM     17  S   UNL     1       1.663   5.374  20.763  0.00  0.00    +0.000 S 
ENDBRANCH  10  14
ENDBRANCH   1  10
TORSDOF 2
ENDMDL
MODEL 6
REMARK VINA RESULT:      -6.0      2.690      5.996
REMARK  Name = 
REMARK  6 active torsions:
REMARK  status: ('A' for Active; 'I' for Inactive)
REMARK    1  A    between atoms: C_1  and  C_2
REMARK    2  A    between atoms: C_4  and  C_5
REMARK    3  A    between atoms: C_5  and  N_6
REMARK    4  A    between atoms: C_12  and  C_13
REMARK    5  A    between atoms: C_12  and  C_14
REMARK    6  A    between atoms: C_15  and  C_16
REMARK                            x       y       z     vdW  Elec       q    Type
REMARK                         _______ _______ _______ _____ _____    ______ ____
ROOT
ATOM      1  N   UNL     1       3.117   3.980  18.265  0.00  0.00    +0.000 NA
ATOM      2  C   UNL     1       2.256   5.047  18.823  0.00  0.00    +0.000 C 
ATOM      3  C   UNL     1       2.277   5.177  20.352  0.00  0.00    +0.000 C 
ATOM      4  S   UNL     1       1.842   3.652  21.226  0.00  0.00    +0.000 S 
ATOM      5  O   UNL     1       2.460   3.723  22.669  0.00  0.00    +0.000 OA
ATOM      6  C   UNL     1       2.828   2.449  20.255  0.00  0.00    +0.000 C 
ATOM      7  C   UNL     1       2.620   2.626  18.726  0.00  0.00    +0.000 C 
ATOM      8  C   UNL     1       1.112   2.333  18.431  0.00  0.00    +0.000 C 
ATOM      9  C   UNL     1       3.349   1.518  17.908  0.00  0.00    +0.000 C 
ENDROOT
BRANCH   1  10
ATOM     10  C   UNL     1       4.551   4.183  18.673  0.00  0.00    +0.000 C 
BRANCH  10  14
ATOM     11  C   UNL     1       5.737   4.145  13.940  0.00  0.00    +0.000 C 
ATOM     12  C   UNL     1       6.008   4.250  15.400  0.00  0.00    +0.000 A 
ATOM     13  N   UNL     1       5.224   3.766  16.340  0.00  0.00    +0.000 NA
ATOM     14  C   UNL     1       5.593   4.267  17.585  0.00  0.00    +0.000 A 
ATOM     15  C   UNL     1       6.736   5.046  17.567  0.00  0.00    +0.000 A 
ATOM     16  C   UNL     1       7.357   5.881  18.638  0.00  0.00    +0.000 C 
ATOM     17  S   UNL     1       7.366   5.126  15.973  0.00  0.00    +0.000 S 
ENDBRANCH  10  14
ENDBRANCH   1  10
TORSDOF 2
ENDMDL
MODEL 7
REMARK VINA RESULT:      -6.0      2.253      5.404
REMARK  Name = 
REMARK  6 active torsions:
REMARK  status: ('A' for Active; 'I' for Inactive)
REMARK    1  A    between atoms: C_1  and  C_2
REMARK    2  A    between atoms: C_4  and  C_5
REMARK    3  A    between atoms: C_5  and  N_6
REMARK    4  A    between atoms: C_12  and  C_13
REMARK    5  A    between atoms: C_12  and  C_14
REMARK    6  A    between atoms: C_15  and  C_16
REMARK                            x       y       z     vdW  Elec       q    Type
REMARK                         _______ _______ _______ _____ _____    ______ ____
ROOT
ATOM      1  N   UNL     1       3.696   4.561  19.270  0.00  0.00    +0.000 NA
ATOM      2  C   UNL     1       4.007   3.115  19.328  0.00  0.00    +0.000 C 
ATOM      3  C   UNL     1       2.977   2.193  18.661  0.00  0.00    +0.000 C 
ATOM      4  S   UNL     1       1.294   2.386  19.300  0.00  0.00    +0.000 S 
ATOM      5  O   UNL     1       0.293   1.884  18.197  0.00  0.00    +0.000 OA
ATOM      6  C   UNL     1       1.194   4.216  19.356  0.00  0.00    +0.000 C 
ATOM      7  C   UNL     1       2.430   4.845  20.053  0.00  0.00    +0.000 C 
ATOM      8  C   UNL     1       2.433   4.337  21.533  0.00  0.00    +0.000 C 
ATOM      9  C   UNL     1       2.280   6.387  20.222  0.00  0.00    +0.000 C 
ENDROOT
BRANCH   1  10
ATOM     10  C   UNL     1       3.549   5.019  17.845  0.00  0.00    +0.000 C 
BRANCH  10  14
ATOM     11  C   UNL     1       7.626   7.693  17.642  0.00  0.00    +0.000 C 
ATOM     12  C   UNL     1       6.630   6.708  17.139  0.00  0.00    +0.000 A 
ATOM     13  N   UNL     1       5.378   6.642  17.541  0.00  0.00    +0.000 NA
ATOM     14  C   UNL     1       4.792   5.456  17.109  0.00  0.00    +0.000 A 
ATOM     15  C   UNL     1       5.598   4.692  16.284  0.00  0.00    +0.000 A 
ATOM     16  C   UNL     1       5.408   3.310  15.751  0.00  0.00    +0.000 C 
ATOM     17  S   UNL     1       7.096   5.488  16.028  0.00  0.00    +0.000 S 
ENDBRANCH  10  14
ENDBRANCH   1  10
TORSDOF 2
ENDMDL
MODEL 8
REMARK VINA RESULT:      -5.8      1.152      1.237
REMARK  Name = 
REMARK  6 active torsions:
REMARK  status: ('A' for Active; 'I' for Inactive)
REMARK    1  A    between atoms: C_1  and  C_2
REMARK    2  A    between atoms: C_4  and  C_5
REMARK    3  A    between atoms: C_5  and  N_6
REMARK    4  A    between atoms: C_12  and  C_13
REMARK    5  A    between atoms: C_12  and  C_14
REMARK    6  A    between atoms: C_15  and  C_16
REMARK                            x       y       z     vdW  Elec       q    Type
REMARK                         _______ _______ _______ _____ _____    ______ ____
ROOT
ATOM      1  N   UNL     1       5.558   5.584  18.282  0.00  0.00    +0.000 NA
ATOM      2  C   UNL     1       4.737   6.041  17.138  0.00  0.00    +0.000 C 
ATOM      3  C   UNL     1       4.902   5.232  15.845  0.00  0.00    +0.000 C 
ATOM      4  S   UNL     1       6.611   5.136  15.250  0.00  0.00    +0.000 S 
ATOM      5  O   UNL     1       6.740   3.860  14.341  0.00  0.00    +0.000 OA
ATOM      6  C   UNL     1       7.468   4.786  16.832  0.00  0.00    +0.000 C 
ATOM      7  C   UNL     1       7.028   5.758  17.960  0.00  0.00    +0.000 C 
ATOM      8  C   UNL     1       7.448   7.198  17.517  0.00  0.00    +0.000 C 
ATOM      9  C   UNL     1       7.855   5.547  19.264  0.00  0.00    +0.000 C 
ENDROOT
BRANCH   1  10
ATOM     10  C   UNL     1       5.257   4.148  18.615  0.00  0.00    +0.000 C 
BRANCH  10  14
ATOM     11  C   UNL     1       0.754   4.702  20.413  0.00  0.00    +0.000 C 
ATOM     12  C   UNL     1       2.148   4.180  20.398  0.00  0.00    +0.000 A 
ATOM     13  N   UNL     1       3.144   4.735  19.739  0.00  0.00    +0.000 NA
ATOM     14  C   UNL     1       4.232   3.870  19.688  0.00  0.00    +0.000 A 
ATOM     15  C   UNL     1       4.067   2.705  20.417  0.00  0.00    +0.000 A 
ATOM     16  C   UNL     1       4.913   1.477  20.488  0.00  0.00    +0.000 C 
ATOM     17  S   UNL     1       2.538   2.713  21.195  0.00  0.00    +0.000 S 
ENDBRANCH  10  14
ENDBRANCH   1  10
TORSDOF 2
ENDMDL
MODEL 9
REMARK VINA RESULT:      -5.8      3.827      5.462
REMARK  Name = 
REMARK  6 active torsions:
REMARK  status: ('A' for Active; 'I' for Inactive)
REMARK    1  A    between atoms: C_1  and  C_2
REMARK    2  A    between atoms: C_4  and  C_5
REMARK    3  A    between atoms: C_5  and  N_6
REMARK    4  A    between atoms: C_12  and  C_13
REMARK    5  A    between atoms: C_12  and  C_14
REMARK    6  A    between atoms: C_15  and  C_16
REMARK                            x       y       z     vdW  Elec       q    Type
REMARK                         _______ _______ _______ _____ _____    ______ ____
ROOT
ATOM      1  N   UNL     1       1.384   4.404  19.993  0.00  0.00    +0.000 NA
ATOM      2  C   UNL     1       1.435   3.527  21.184  0.00  0.00    +0.000 C 
ATOM      3  C   UNL     1       2.824   2.981  21.539  0.00  0.00    +0.000 C 
ATOM      4  S   UNL     1       3.623   2.072  20.192  0.00  0.00    +0.000 S 
ATOM      5  O   UNL     1       5.175   2.099  20.439  0.00  0.00    +0.000 OA
ATOM      6  C   UNL     1       3.259   3.204  18.797  0.00  0.00    +0.000 C 
ATOM      7  C   UNL     1       1.762   3.614  18.757  0.00  0.00    +0.000 C 
ATOM      8  C   UNL     1       0.933   2.308  18.521  0.00  0.00    +0.000 C 
ATOM      9  C   UNL     1       1.426   4.465  17.495  0.00  0.00    +0.000 C 
ENDROOT
BRANCH   1  10
ATOM     10  C   UNL     1       2.295   5.588  20.162  0.00  0.00    +0.000 C 
BRANCH  10  14
ATOM     11  C   UNL     1       0.546   9.471  22.545  0.00  0.00    +0.000 C 
ATOM     12  C   UNL     1       0.922   8.682  21.340  0.00  0.00    +0.000 A 
ATOM     13  N   UNL     1       1.047   7.371  21.317  0.00  0.00    +0.000 NA
ATOM     14  C   UNL     1       1.679   6.966  20.145  0.00  0.00    +0.000 A 
ATOM     15  C   UNL     1       1.923   7.990  19.248  0.00  0.00    +0.000 A 
ATOM     16  C   UNL     1       2.706   8.000  17.976  0.00  0.00    +0.000 C 
ATOM     17  S   UNL     1       1.326   9.472  19.873  0.00  0.00    +0.000 S 
ENDBRANCH  10  14
ENDBRANCH   1  10
TORSDOF 2
ENDMDL
