MODEL 1
REMARK VINA RESULT:      -7.5      0.000      0.000
REMARK  Name = 
REMARK  6 active torsions:
REMARK  status: ('A' for Active; 'I' for Inactive)
REMARK    1  A    between atoms: C_1  and  C_2
REMARK    2  A    between atoms: C_2  and  S_3
REMARK    3  A    between atoms: C_2  and  C_10
REMARK    4  A    between atoms: S_3  and  C_4
REMARK    5  A    between atoms: N_15  and  S_16
REMARK    6  A    between atoms: S_16  and  C_19
REMARK                            x       y       z     vdW  Elec       q    Type
REMARK                         _______ _______ _______ _____ _____    ______ ____
ROOT
ATOM      1  C   UNL     1       2.608   7.752  18.363  0.00  0.00    +0.000 C 
ATOM      2  O   UNL     1       2.947   8.329  17.323  0.00  0.00    +0.000 OA
ATOM      3  N   UNL     1       1.700   8.354  19.234  0.00  0.00    +0.000 N 
ATOM      4  C   UNL     1       1.109   9.644  18.839  0.00  0.00    +0.000 C 
ATOM      5  C   UNL     1      -0.316   9.833  19.402  0.00  0.00    +0.000 C 
ATOM      6  N   UNL     1      -0.400   9.560  20.871  0.00  0.00    +0.000 NA
ATOM      7  C   UNL     1       0.148   8.198  21.168  0.00  0.00    +0.000 C 
ATOM      8  C   UNL     1       1.589   8.049  20.667  0.00  0.00    +0.000 C 
ENDROOT
BRANCH   6   9
ATOM      9  S   UNL     1       0.140  10.780  21.933  0.00  0.00    +0.000 S 
ATOM     10  O   UNL     1       0.477  10.172  23.202  0.00  0.00    +0.000 OA
ATOM     11  O   UNL     1       1.133  11.563  21.222  0.00  0.00    +0.000 OA
BRANCH   9  12
ATOM     12  C   UNL     1      -1.266  11.809  22.189  0.00  0.00    +0.000 A 
ATOM     13  C   UNL     1      -2.081  11.622  23.313  0.00  0.00    +0.000 A 
ATOM     14  C   UNL     1      -3.260  12.360  23.443  0.00  0.00    +0.000 A 
ATOM     15  C   UNL     1      -3.624  13.279  22.457  0.00  0.00    +0.000 A 
ATOM     16  C   UNL     1      -2.806  13.462  21.341  0.00  0.00    +0.000 A 
ATOM     17  C   UNL     1      -1.631  12.723  21.208  0.00  0.00    +0.000 A 
ATOM     18  F   UNL     1      -0.877  12.916  20.119  0.00  0.00    +0.000 F 
ENDBRANCH   9  12
ENDBRANCH   6   9
BRANCH   1  20
ATOM     19  C   UNL     1       1.810   5.392  18.845  0.00  0.00    +0.000 C 
ATOM     20  C   UNL     1       3.029   6.290  18.616  0.00  0.00    +0.000 C 
BRANCH  20  21
ATOM     21  S   UNL     1       4.099   5.549  17.319  0.00  0.00    +0.000 S 
BRANCH  21  22
ATOM     22  C   UNL     1       5.714   6.039  17.860  0.00  0.00    +0.000 A 
ATOM     23  C   UNL     1       6.373   7.096  17.233  0.00  0.00    +0.000 A 
ATOM     24  C   UNL     1       7.642   7.481  17.654  0.00  0.00    +0.000 A 
ATOM     25  C   UNL     1       8.258   6.815  18.717  0.00  0.00    +0.000 A 
ATOM     26  C   UNL     1       7.593   5.775  19.365  0.00  0.00    +0.000 A 
ATOM     27  C   UNL     1       6.319   5.394  18.948  0.00  0.00    +0.000 A 
ENDBRANCH  21  22
ENDBRANCH  20  21
ENDBRANCH   1  20
TORSDOF 5
ENDMDL
MODEL 2
REMARK VINA RESULT:      -7.4      1.344      1.918
REMARK  Name = 
REMARK  6 active torsions:
REMARK  status: ('A' for Active; 'I' for Inactive)
REMARK    1  A    between atoms: C_1  and  C_2
REMARK    2  A    between atoms: C_2  and  S_3
REMARK    3  A    between atoms: C_2  and  C_10
REMARK    4  A    between atoms: S_3  and  C_4
REMARK    5  A    between atoms: N_15  and  S_16
REMARK    6  A    between atoms: S_16  and  C_19
REMARK                            x       y       z     vdW  Elec       q    Type
REMARK                         _______ _______ _______ _____ _____    ______ ____
ROOT
ATOM      1  C   UNL     1       2.533   7.637  18.672  0.00  0.00    +0.000 C 
ATOM      2  O   UNL     1       3.047   8.162  17.678  0.00  0.00    +0.000 OA
ATOM      3  N   UNL     1       1.583   8.333  19.419  0.00  0.00    +0.000 N 
ATOM      4  C   UNL     1       1.163   9.663  18.944  0.00  0.00    +0.000 C 
ATOM      5  C   UNL     1      -0.297   9.988  19.324  0.00  0.00    +0.000 C 
ATOM      6  N   UNL     1      -0.585   9.752  20.773  0.00  0.00    +0.000 NA
ATOM      7  C   UNL     1      -0.203   8.352  21.146  0.00  0.00    +0.000 C 
ATOM      8  C   UNL     1       1.269   8.067  20.830  0.00  0.00    +0.000 C 
ENDROOT
BRANCH   6   9
ATOM      9  S   UNL     1      -0.072  10.939  21.884  0.00  0.00    +0.000 S 
ATOM     10  O   UNL     1       0.296  10.285  23.121  0.00  0.00    +0.000 OA
ATOM     11  O   UNL     1       0.889  11.783  21.201  0.00  0.00    +0.000 OA
BRANCH   9  12
ATOM     12  C   UNL     1      -1.507  11.912  22.198  0.00  0.00    +0.000 A 
ATOM     13  C   UNL     1      -2.185  11.794  23.419  0.00  0.00    +0.000 A 
ATOM     14  C   UNL     1      -3.388  12.477  23.610  0.00  0.00    +0.000 A 
ATOM     15  C   UNL     1      -3.912  13.272  22.589  0.00  0.00    +0.000 A 
ATOM     16  C   UNL     1      -3.231  13.386  21.376  0.00  0.00    +0.000 A 
ATOM     17  C   UNL     1      -2.031  12.702  21.183  0.00  0.00    +0.000 A 
ATOM     18  F   UNL     1      -1.411  12.825  20.003  0.00  0.00    +0.000 F 
ENDBRANCH   9  12
ENDBRANCH   6   9
BRANCH   1  20
ATOM     19  C   UNL     1       2.108   5.239  17.958  0.00  0.00    +0.000 C 
ATOM     20  C   UNL     1       2.785   6.149  18.987  0.00  0.00    +0.000 C 
BRANCH  20  21
ATOM     21  S   UNL     1       4.553   5.675  19.153  0.00  0.00    +0.000 S 
BRANCH  21  22
ATOM     22  C   UNL     1       4.976   5.262  17.482  0.00  0.00    +0.000 A 
ATOM     23  C   UNL     1       5.089   3.927  17.096  0.00  0.00    +0.000 A 
ATOM     24  C   UNL     1       5.423   3.601  15.786  0.00  0.00    +0.000 A 
ATOM     25  C   UNL     1       5.636   4.612  14.846  0.00  0.00    +0.000 A 
ATOM     26  C   UNL     1       5.497   5.949  15.219  0.00  0.00    +0.000 A 
ATOM     27  C   UNL     1       5.156   6.275  16.530  0.00  0.00    +0.000 A 
ENDBRANCH  21  22
ENDBRANCH  20  21
ENDBRANCH   1  20
TORSDOF 5
ENDMDL
MODEL 3
REMARK VINA RESULT:      -7.4      1.046      1.664
REMARK  Name = 
REMARK  6 active torsions:
REMARK  status: ('A' for Active; 'I' for Inactive)
REMARK    1  A    between atoms: C_1  and  C_2
REMARK    2  A    between atoms: C_2  and  S_3
REMARK    3  A    between atoms: C_2  and  C_10
REMARK    4  A    between atoms: S_3  and  C_4
REMARK    5  A    between atoms: N_15  and  S_16
REMARK    6  A    between atoms: S_16  and  C_19
REMARK                            x       y       z     vdW  Elec       q    Type
REMARK                         _______ _______ _______ _____ _____    ______ ____
ROOT
ATOM      1  C   UNL     1       2.819   7.458  17.932  0.00  0.00    +0.000 C 
ATOM      2  O   UNL     1       3.208   7.932  16.859  0.00  0.00    +0.000 OA
ATOM      3  N   UNL     1       1.963   8.193  18.753  0.00  0.00    +0.000 N 
ATOM      4  C   UNL     1       1.485   9.498  18.267  0.00  0.00    +0.000 C 
ATOM      5  C   UNL     1       0.080   9.846  18.804  0.00  0.00    +0.000 C 
ATOM      6  N   UNL     1      -0.030   9.682  20.287  0.00  0.00    +0.000 NA
ATOM      7  C   UNL     1       0.399   8.301  20.680  0.00  0.00    +0.000 C 
ATOM      8  C   UNL     1       1.823   7.997  20.203  0.00  0.00    +0.000 C 
ENDROOT
BRANCH   6   9
ATOM      9  S   UNL     1       0.609  10.921  21.269  0.00  0.00    +0.000 S 
ATOM     10  O   UNL     1       1.263  10.316  22.409  0.00  0.00    +0.000 OA
ATOM     11  O   UNL     1       1.352  11.817  20.404  0.00  0.00    +0.000 OA
BRANCH   9  12
ATOM     12  C   UNL     1      -0.799  11.798  21.862  0.00  0.00    +0.000 A 
ATOM     13  C   UNL     1      -1.099  13.071  21.360  0.00  0.00    +0.000 A 
ATOM     14  C   UNL     1      -2.145  13.807  21.923  0.00  0.00    +0.000 A 
ATOM     15  C   UNL     1      -2.885  13.276  22.981  0.00  0.00    +0.000 A 
ATOM     16  C   UNL     1      -2.582  12.006  23.474  0.00  0.00    +0.000 A 
ATOM     17  C   UNL     1      -1.536  11.271  22.915  0.00  0.00    +0.000 A 
ATOM     18  F   UNL     1      -1.266  10.062  23.420  0.00  0.00    +0.000 F 
ENDBRANCH   9  12
ENDBRANCH   6   9
BRANCH   1  20
ATOM     19  C   UNL     1       1.828   5.155  18.321  0.00  0.00    +0.000 C 
ATOM     20  C   UNL     1       3.113   5.987  18.287  0.00  0.00    +0.000 C 
BRANCH  20  21
ATOM     21  S   UNL     1       4.351   5.156  17.212  0.00  0.00    +0.000 S 
BRANCH  21  22
ATOM     22  C   UNL     1       5.869   5.857  17.800  0.00  0.00    +0.000 A 
ATOM     23  C   UNL     1       6.528   5.288  18.889  0.00  0.00    +0.000 A 
ATOM     24  C   UNL     1       7.718   5.838  19.353  0.00  0.00    +0.000 A 
ATOM     25  C   UNL     1       8.265   6.958  18.722  0.00  0.00    +0.000 A 
ATOM     26  C   UNL     1       7.624   7.514  17.616  0.00  0.00    +0.000 A 
ATOM     27  C   UNL     1       6.436   6.960  17.147  0.00  0.00    +0.000 A 
ENDBRANCH  21  22
ENDBRANCH  20  21
ENDBRANCH   1  20
TORSDOF 5
ENDMDL
MODEL 4
REMARK VINA RESULT:      -7.2      2.138      2.860
REMARK  Name = 
REMARK  6 active torsions:
REMARK  status: ('A' for Active; 'I' for Inactive)
REMARK    1  A    between atoms: C_1  and  C_2
REMARK    2  A    between atoms: C_2  and  S_3
REMARK    3  A    between atoms: C_2  and  C_10
REMARK    4  A    between atoms: S_3  and  C_4
REMARK    5  A    between atoms: N_15  and  S_16
REMARK    6  A    between atoms: S_16  and  C_19
REMARK                            x       y       z     vdW  Elec       q    Type
REMARK                         _______ _______ _______ _____ _____    ______ ____
ROOT
ATOM      1  C   UNL     1       2.350   8.124  18.313  0.00  0.00    +0.000 C 
ATOM      2  O   UNL     1       2.596   8.395  17.132  0.00  0.00    +0.000 OA
ATOM      3  N   UNL     1       1.403   8.865  19.019  0.00  0.00    +0.000 N 
ATOM      4  C   UNL     1       0.662   9.914  18.298  0.00  0.00    +0.000 C 
ATOM      5  C   UNL     1      -0.760  10.120  18.861  0.00  0.00    +0.000 C 
ATOM      6  N   UNL     1      -0.776  10.291  20.348  0.00  0.00    +0.000 NA
ATOM      7  C   UNL     1      -0.072   9.139  21.000  0.00  0.00    +0.000 C 
ATOM      8  C   UNL     1       1.363   8.992  20.483  0.00  0.00    +0.000 C 
ENDROOT
BRANCH   6   9
ATOM      9  S   UNL     1      -0.348  11.819  20.972  0.00  0.00    +0.000 S 
ATOM     10  O   UNL     1       0.680  11.636  21.974  0.00  0.00    +0.000 OA
ATOM     11  O   UNL     1      -0.106  12.695  19.842  0.00  0.00    +0.000 OA
BRANCH   9  12
ATOM     12  C   UNL     1      -1.799  12.393  21.790  0.00  0.00    +0.000 A 
ATOM     13  C   UNL     1      -2.479  13.520  21.311  0.00  0.00    +0.000 A 
ATOM     14  C   UNL     1      -3.555  14.038  22.036  0.00  0.00    +0.000 A 
ATOM     15  C   UNL     1      -3.948  13.436  23.233  0.00  0.00    +0.000 A 
ATOM     16  C   UNL     1      -3.267  12.312  23.703  0.00  0.00    +0.000 A 
ATOM     17  C   UNL     1      -2.191  11.796  22.982  0.00  0.00    +0.000 A 
ATOM     18  F   UNL     1      -1.554  10.724  23.469  0.00  0.00    +0.000 F 
ENDBRANCH   9  12
ENDBRANCH   6   9
BRANCH   1  20
ATOM     19  C   UNL     1       1.839   5.836  19.284  0.00  0.00    +0.000 C 
ATOM     20  C   UNL     1       2.937   6.853  18.959  0.00  0.00    +0.000 C 
BRANCH  20  21
ATOM     21  S   UNL     1       4.267   6.029  17.995  0.00  0.00    +0.000 S 
BRANCH  21  22
ATOM     22  C   UNL     1       3.901   4.316  18.262  0.00  0.00    +0.000 A 
ATOM     23  C   UNL     1       3.091   3.624  17.362  0.00  0.00    +0.000 A 
ATOM     24  C   UNL     1       2.800   2.280  17.571  0.00  0.00    +0.000 A 
ATOM     25  C   UNL     1       3.328   1.614  18.680  0.00  0.00    +0.000 A 
ATOM     26  C   UNL     1       4.160   2.294  19.568  0.00  0.00    +0.000 A 
ATOM     27  C   UNL     1       4.457   3.638  19.355  0.00  0.00    +0.000 A 
ENDBRANCH  21  22
ENDBRANCH  20  21
ENDBRANCH   1  20
TORSDOF 5
ENDMDL
MODEL 5
REMARK VINA RESULT:      -7.1      1.382      1.767
REMARK  Name = 
REMARK  6 active torsions:
REMARK  status: ('A' for Active; 'I' for Inactive)
REMARK    1  A    between atoms: C_1  and  C_2
REMARK    2  A    between atoms: C_2  and  S_3
REMARK    3  A    between atoms: C_2  and  C_10
REMARK    4  A    between atoms: S_3  and  C_4
REMARK    5  A    between atoms: N_15  and  S_16
REMARK    6  A    between atoms: S_16  and  C_19
REMARK                            x       y       z     vdW  Elec       q    Type
REMARK                         _______ _______ _______ _____ _____    ______ ____
ROOT
ATOM      1  C   UNL     1       2.139   8.069  18.631  0.00  0.00    +0.000 C 
ATOM      2  O   UNL     1       2.285   8.181  17.409  0.00  0.00    +0.000 OA
ATOM      3  N   UNL     1       1.299   8.945  19.320  0.00  0.00    +0.000 N 
ATOM      4  C   UNL     1       0.544   9.940  18.540  0.00  0.00    +0.000 C 
ATOM      5  C   UNL     1      -0.808  10.296  19.196  0.00  0.00    +0.000 C 
ATOM      6  N   UNL     1      -0.675  10.646  20.644  0.00  0.00    +0.000 NA
ATOM      7  C   UNL     1       0.032   9.543  21.372  0.00  0.00    +0.000 C 
ATOM      8  C   UNL     1       1.404   9.249  20.754  0.00  0.00    +0.000 C 
ENDROOT
BRANCH   6   9
ATOM      9  S   UNL     1      -0.118  12.210  21.032  0.00  0.00    +0.000 S 
ATOM     10  O   UNL     1       1.224  12.105  21.561  0.00  0.00    +0.000 OA
ATOM     11  O   UNL     1      -0.376  13.057  19.883  0.00  0.00    +0.000 OA
BRANCH   9  12
ATOM     12  C   UNL     1      -1.169  12.751  22.339  0.00  0.00    +0.000 A 
ATOM     13  C   UNL     1      -2.336  12.039  22.645  0.00  0.00    +0.000 A 
ATOM     14  C   UNL     1      -3.223  12.543  23.599  0.00  0.00    +0.000 A 
ATOM     15  C   UNL     1      -2.947  13.751  24.242  0.00  0.00    +0.000 A 
ATOM     16  C   UNL     1      -1.782  14.454  23.934  0.00  0.00    +0.000 A 
ATOM     17  C   UNL     1      -0.897  13.954  22.979  0.00  0.00    +0.000 A 
ATOM     18  F   UNL     1       0.205  14.660  22.699  0.00  0.00    +0.000 F 
ENDBRANCH   9  12
ENDBRANCH   6   9
BRANCH   1  20
ATOM     19  C   UNL     1       1.699   6.245  20.339  0.00  0.00    +0.000 C 
ATOM     20  C   UNL     1       2.723   6.854  19.378  0.00  0.00    +0.000 C 
BRANCH  20  21
ATOM     21  S   UNL     1       3.413   5.533  18.302  0.00  0.00    +0.000 S 
BRANCH  21  22
ATOM     22  C   UNL     1       5.141   5.921  18.314  0.00  0.00    +0.000 A 
ATOM     23  C   UNL     1       5.989   5.322  19.245  0.00  0.00    +0.000 A 
ATOM     24  C   UNL     1       7.345   5.627  19.257  0.00  0.00    +0.000 A 
ATOM     25  C   UNL     1       7.868   6.530  18.327  0.00  0.00    +0.000 A 
ATOM     26  C   UNL     1       7.030   7.111  17.377  0.00  0.00    +0.000 A 
ATOM     27  C   UNL     1       5.673   6.800  17.360  0.00  0.00    +0.000 A 
ENDBRANCH  21  22
ENDBRANCH  20  21
ENDBRANCH   1  20
TORSDOF 5
ENDMDL
MODEL 6
REMARK VINA RESULT:      -7.1      2.014      2.711
REMARK  Name = 
REMARK  6 active torsions:
REMARK  status: ('A' for Active; 'I' for Inactive)
REMARK    1  A    between atoms: C_1  and  C_2
REMARK    2  A    between atoms: C_2  and  S_3
REMARK    3  A    between atoms: C_2  and  C_10
REMARK    4  A    between atoms: S_3  and  C_4
REMARK    5  A    between atoms: N_15  and  S_16
REMARK    6  A    between atoms: S_16  and  C_19
REMARK                            x       y       z     vdW  Elec       q    Type
REMARK                         _______ _______ _______ _____ _____    ______ ____
ROOT
ATOM      1  C   UNL     1       2.425   8.159  18.321  0.00  0.00    +0.000 C 
ATOM      2  O   UNL     1       2.737   8.500  17.174  0.00  0.00    +0.000 OA
ATOM      3  N   UNL     1       1.442   8.860  19.018  0.00  0.00    +0.000 N 
ATOM      4  C   UNL     1       0.742   9.953  18.322  0.00  0.00    +0.000 C 
ATOM      5  C   UNL     1      -0.709  10.131  18.817  0.00  0.00    +0.000 C 
ATOM      6  N   UNL     1      -0.807  10.211  20.308  0.00  0.00    +0.000 NA
ATOM      7  C   UNL     1      -0.141   9.020  20.927  0.00  0.00    +0.000 C 
ATOM      8  C   UNL     1       1.321   8.897  20.482  0.00  0.00    +0.000 C 
ENDROOT
BRANCH   6   9
ATOM      9  S   UNL     1      -0.413  11.697  21.047  0.00  0.00    +0.000 S 
ATOM     10  O   UNL     1       0.510  11.442  22.132  0.00  0.00    +0.000 OA
ATOM     11  O   UNL     1      -0.047  12.621  19.991  0.00  0.00    +0.000 OA
BRANCH   9  12
ATOM     12  C   UNL     1      -1.925  12.264  21.752  0.00  0.00    +0.000 A 
ATOM     13  C   UNL     1      -2.110  12.232  23.140  0.00  0.00    +0.000 A 
ATOM     14  C   UNL     1      -3.355  12.568  23.679  0.00  0.00    +0.000 A 
ATOM     15  C   UNL     1      -4.407  12.932  22.837  0.00  0.00    +0.000 A 
ATOM     16  C   UNL     1      -4.215  12.963  21.455  0.00  0.00    +0.000 A 
ATOM     17  C   UNL     1      -2.974  12.625  20.916  0.00  0.00    +0.000 A 
ATOM     18  F   UNL     1      -2.828  12.654  19.585  0.00  0.00    +0.000 F 
ENDBRANCH   9  12
ENDBRANCH   6   9
BRANCH   1  20
ATOM     19  C   UNL     1       1.849   5.848  19.198  0.00  0.00    +0.000 C 
ATOM     20  C   UNL     1       2.975   6.849  18.920  0.00  0.00    +0.000 C 
BRANCH  20  21
ATOM     21  S   UNL     1       4.291   6.029  17.933  0.00  0.00    +0.000 S 
BRANCH  21  22
ATOM     22  C   UNL     1       3.939   4.315  18.213  0.00  0.00    +0.000 A 
ATOM     23  C   UNL     1       4.459   3.666  19.333  0.00  0.00    +0.000 A 
ATOM     24  C   UNL     1       4.187   2.321  19.553  0.00  0.00    +0.000 A 
ATOM     25  C   UNL     1       3.379   1.614  18.658  0.00  0.00    +0.000 A 
ATOM     26  C   UNL     1       2.834   2.265  17.551  0.00  0.00    +0.000 A 
ATOM     27  C   UNL     1       3.102   3.615  17.334  0.00  0.00    +0.000 A 
ENDBRANCH  21  22
ENDBRANCH  20  21
ENDBRANCH   1  20
TORSDOF 5
ENDMDL
MODEL 7
REMARK VINA RESULT:      -7.1      3.666      9.454
REMARK  Name = 
REMARK  6 active torsions:
REMARK  status: ('A' for Active; 'I' for Inactive)
REMARK    1  A    between atoms: C_1  and  C_2
REMARK    2  A    between atoms: C_2  and  S_3
REMARK    3  A    between atoms: C_2  and  C_10
REMARK    4  A    between atoms: S_3  and  C_4
REMARK    5  A    between atoms: N_15  and  S_16
REMARK    6  A    between atoms: S_16  and  C_19
REMARK                            x       y       z     vdW  Elec       q    Type
REMARK                         _______ _______ _______ _____ _____    ______ ____
ROOT
ATOM      1  C   UNL     1       1.767   8.906  18.342  0.00  0.00    +0.000 C 
ATOM      2  O   UNL     1       2.076   9.702  17.449  0.00  0.00    +0.000 OA
ATOM      3  N   UNL     1       2.502   7.734  18.521  0.00  0.00    +0.000 N 
ATOM      4  C   UNL     1       3.688   7.521  17.674  0.00  0.00    +0.000 C 
ATOM      5  C   UNL     1       4.778   6.694  18.389  0.00  0.00    +0.000 C 
ATOM      6  N   UNL     1       4.246   5.437  19.000  0.00  0.00    +0.000 NA
ATOM      7  C   UNL     1       3.097   5.759  19.907  0.00  0.00    +0.000 C 
ATOM      8  C   UNL     1       1.989   6.516  19.165  0.00  0.00    +0.000 C 
ENDROOT
BRANCH   6   9
ATOM      9  S   UNL     1       3.972   4.110  17.965  0.00  0.00    +0.000 S 
ATOM     10  O   UNL     1       4.349   2.897  18.660  0.00  0.00    +0.000 OA
ATOM     11  O   UNL     1       2.631   4.247  17.432  0.00  0.00    +0.000 OA
BRANCH   9  12
ATOM     12  C   UNL     1       5.102   4.337  16.633  0.00  0.00    +0.000 A 
ATOM     13  C   UNL     1       4.635   4.375  15.312  0.00  0.00    +0.000 A 
ATOM     14  C   UNL     1       5.549   4.433  14.258  0.00  0.00    +0.000 A 
ATOM     15  C   UNL     1       6.921   4.452  14.520  0.00  0.00    +0.000 A 
ATOM     16  C   UNL     1       7.378   4.416  15.837  0.00  0.00    +0.000 A 
ATOM     17  C   UNL     1       6.467   4.354  16.891  0.00  0.00    +0.000 A 
ATOM     18  F   UNL     1       6.941   4.310  18.142  0.00  0.00    +0.000 F 
ENDBRANCH   9  12
ENDBRANCH   6   9
BRANCH   1  20
ATOM     19  C   UNL     1       1.161   8.948  20.806  0.00  0.00    +0.000 C 
ATOM     20  C   UNL     1       0.696   9.282  19.385  0.00  0.00    +0.000 C 
BRANCH  20  21
ATOM     21  S   UNL     1       0.125  11.028  19.324  0.00  0.00    +0.000 S 
BRANCH  21  22
ATOM     22  C   UNL     1      -1.428  10.871  18.485  0.00  0.00    +0.000 A 
ATOM     23  C   UNL     1      -2.512  11.665  18.861  0.00  0.00    +0.000 A 
ATOM     24  C   UNL     1      -3.732  11.542  18.206  0.00  0.00    +0.000 A 
ATOM     25  C   UNL     1      -3.875  10.628  17.159  0.00  0.00    +0.000 A 
ATOM     26  C   UNL     1      -2.788   9.851  16.761  0.00  0.00    +0.000 A 
ATOM     27  C   UNL     1      -1.564   9.979  17.413  0.00  0.00    +0.000 A 
ENDBRANCH  21  22
ENDBRANCH  20  21
ENDBRANCH   1  20
TORSDOF 5
ENDMDL
MODEL 8
REMARK VINA RESULT:      -7.0      1.667      2.182
REMARK  Name = 
REMARK  6 active torsions:
REMARK  status: ('A' for Active; 'I' for Inactive)
REMARK    1  A    between atoms: C_1  and  C_2
REMARK    2  A    between atoms: C_2  and  S_3
REMARK    3  A    between atoms: C_2  and  C_10
REMARK    4  A    between atoms: S_3  and  C_4
REMARK    5  A    between atoms: N_15  and  S_16
REMARK    6  A    between atoms: S_16  and  C_19
REMARK                            x       y       z     vdW  Elec       q    Type
REMARK                         _______ _______ _______ _____ _____    ______ ____
ROOT
ATOM      1  C   UNL     1       2.385   7.837  18.263  0.00  0.00    +0.000 C 
ATOM      2  O   UNL     1       2.819   8.164  17.153  0.00  0.00    +0.000 OA
ATOM      3  N   UNL     1       1.471   8.655  18.927  0.00  0.00    +0.000 N 
ATOM      4  C   UNL     1       0.988   9.862  18.234  0.00  0.00    +0.000 C 
ATOM      5  C   UNL     1      -0.451  10.239  18.646  0.00  0.00    +0.000 C 
ATOM      6  N   UNL     1      -0.636  10.286  20.130  0.00  0.00    +0.000 NA
ATOM      7  C   UNL     1      -0.195   8.990  20.740  0.00  0.00    +0.000 C 
ATOM      8  C   UNL     1       1.259   8.665  20.381  0.00  0.00    +0.000 C 
ENDROOT
BRANCH   6   9
ATOM      9  S   UNL     1      -0.078  11.672  20.952  0.00  0.00    +0.000 S 
ATOM     10  O   UNL     1       0.845  11.256  21.986  0.00  0.00    +0.000 OA
ATOM     11  O   UNL     1       0.348  12.627  19.947  0.00  0.00    +0.000 OA
BRANCH   9  12
ATOM     12  C   UNL     1      -1.507  12.332  21.743  0.00  0.00    +0.000 A 
ATOM     13  C   UNL     1      -2.065  13.538  21.298  0.00  0.00    +0.000 A 
ATOM     14  C   UNL     1      -3.122  14.114  22.008  0.00  0.00    +0.000 A 
ATOM     15  C   UNL     1      -3.618  13.490  23.154  0.00  0.00    +0.000 A 
ATOM     16  C   UNL     1      -3.059  12.288  23.590  0.00  0.00    +0.000 A 
ATOM     17  C   UNL     1      -2.001  11.714  22.885  0.00  0.00    +0.000 A 
ATOM     18  F   UNL     1      -1.482  10.567  23.338  0.00  0.00    +0.000 F 
ENDBRANCH   9  12
ENDBRANCH   6   9
BRANCH   1  20
ATOM     19  C   UNL     1       2.044   5.336  18.006  0.00  0.00    +0.000 C 
ATOM     20  C   UNL     1       2.695   6.442  18.841  0.00  0.00    +0.000 C 
BRANCH  20  21
ATOM     21  S   UNL     1       4.480   6.067  19.065  0.00  0.00    +0.000 S 
BRANCH  21  22
ATOM     22  C   UNL     1       4.921   5.435  17.470  0.00  0.00    +0.000 A 
ATOM     23  C   UNL     1       5.173   6.310  16.414  0.00  0.00    +0.000 A 
ATOM     24  C   UNL     1       5.517   5.815  15.160  0.00  0.00    +0.000 A 
ATOM     25  C   UNL     1       5.622   4.437  14.956  0.00  0.00    +0.000 A 
ATOM     26  C   UNL     1       5.398   3.558  16.016  0.00  0.00    +0.000 A 
ATOM     27  C   UNL     1       5.060   4.054  17.273  0.00  0.00    +0.000 A 
ENDBRANCH  21  22
ENDBRANCH  20  21
ENDBRANCH   1  20
TORSDOF 5
ENDMDL
MODEL 9
REMARK VINA RESULT:      -7.0      1.330      1.663
REMARK  Name = 
REMARK  6 active torsions:
REMARK  status: ('A' for Active; 'I' for Inactive)
REMARK    1  A    between atoms: C_1  and  C_2
REMARK    2  A    between atoms: C_2  and  S_3
REMARK    3  A    between atoms: C_2  and  C_10
REMARK    4  A    between atoms: S_3  and  C_4
REMARK    5  A    between atoms: N_15  and  S_16
REMARK    6  A    between atoms: S_16  and  C_19
REMARK                            x       y       z     vdW  Elec       q    Type
REMARK                         _______ _______ _______ _____ _____    ______ ____
ROOT
ATOM      1  C   UNL     1       2.859   7.258  18.365  0.00  0.00    +0.000 C 
ATOM      2  O   UNL     1       3.522   7.562  17.367  0.00  0.00    +0.000 OA
ATOM      3  N   UNL     1       1.960   8.173  18.914  0.00  0.00    +0.000 N 
ATOM      4  C   UNL     1       1.773   9.462  18.226  0.00  0.00    +0.000 C 
ATOM      5  C   UNL     1       0.348  10.025  18.412  0.00  0.00    +0.000 C 
ATOM      6  N   UNL     1      -0.087  10.041  19.843  0.00  0.00    +0.000 NA
ATOM      7  C   UNL     1       0.062   8.673  20.436  0.00  0.00    +0.000 C 
ATOM      8  C   UNL     1       1.499   8.157  20.309  0.00  0.00    +0.000 C 
ENDROOT
BRANCH   6   9
ATOM      9  S   UNL     1       0.498  11.302  20.832  0.00  0.00    +0.000 S 
ATOM     10  O   UNL     1       1.239  10.720  21.931  0.00  0.00    +0.000 OA
ATOM     11  O   UNL     1       1.139  12.270  19.964  0.00  0.00    +0.000 OA
BRANCH   9  12
ATOM     12  C   UNL     1      -0.946  12.057  21.500  0.00  0.00    +0.000 A 
ATOM     13  C   UNL     1      -1.225  11.955  22.869  0.00  0.00    +0.000 A 
ATOM     14  C   UNL     1      -2.432  12.451  23.368  0.00  0.00    +0.000 A 
ATOM     15  C   UNL     1      -3.355  13.044  22.504  0.00  0.00    +0.000 A 
ATOM     16  C   UNL     1      -3.069  13.145  21.142  0.00  0.00    +0.000 A 
ATOM     17  C   UNL     1      -1.866  12.646  20.642  0.00  0.00    +0.000 A 
ATOM     18  F   UNL     1      -1.630  12.749  19.329  0.00  0.00    +0.000 F 
ENDBRANCH   9  12
ENDBRANCH   6   9
BRANCH   1  20
ATOM     19  C   UNL     1       2.265   4.839  17.885  0.00  0.00    +0.000 C 
ATOM     20  C   UNL     1       2.872   5.812  18.899  0.00  0.00    +0.000 C 
BRANCH  20  21
ATOM     21  S   UNL     1       4.517   5.191  19.433  0.00  0.00    +0.000 S 
BRANCH  21  22
ATOM     22  C   UNL     1       5.369   5.045  17.887  0.00  0.00    +0.000 A 
ATOM     23  C   UNL     1       6.389   5.938  17.561  0.00  0.00    +0.000 A 
ATOM     24  C   UNL     1       7.058   5.826  16.347  0.00  0.00    +0.000 A 
ATOM     25  C   UNL     1       6.717   4.810  15.450  0.00  0.00    +0.000 A 
ATOM     26  C   UNL     1       5.716   3.898  15.782  0.00  0.00    +0.000 A 
ATOM     27  C   UNL     1       5.051   4.005  17.002  0.00  0.00    +0.000 A 
ENDBRANCH  21  22
ENDBRANCH  20  21
ENDBRANCH   1  20
TORSDOF 5
ENDMDL
