MODEL 1
REMARK VINA RESULT:      -7.2      0.000      0.000
REMARK  Name = 
REMARK  8 active torsions:
REMARK  status: ('A' for Active; 'I' for Inactive)
REMARK    1  A    between atoms: C_1  and  N_2
REMARK    2  A    between atoms: N_2  and  C_3
REMARK    3  A    between atoms: C_12  and  C_13
REMARK    4  A    between atoms: C_13  and  C_14
REMARK    5  A    between atoms: N_16  and  C_17
REMARK    6  A    between atoms: C_17  and  C_18
REMARK    7  A    between atoms: C_21  and  N_22
REMARK    8  A    between atoms: N_25  and  C_26
REMARK                            x       y       z     vdW  Elec       q    Type
REMARK                         _______ _______ _______ _____ _____    ______ ____
ROOT
ATOM      1  C   UNL     1      -0.569  16.039  22.042  0.00  0.00    +0.000 C 
ATOM      2  N   UNL     1      -0.109  15.352  20.836  0.00  0.00    +0.000 N 
ATOM      3  C   UNL     1      -0.542  15.959  19.584  0.00  0.00    +0.000 C 
ATOM      4  C   UNL     1       0.155  13.987  20.931  0.00  0.00    +0.000 C 
ATOM      5  N   UNL     1      -0.617  13.319  21.748  0.00  0.00    +0.000 NA
ATOM      6  C   UNL     1      -0.379  11.968  21.989  0.00  0.00    +0.000 A 
ATOM      7  C   UNL     1      -1.171  11.302  22.933  0.00  0.00    +0.000 A 
ATOM      8  C   UNL     1      -0.949   9.961  23.237  0.00  0.00    +0.000 A 
ATOM      9  C   UNL     1       0.086   9.275  22.610  0.00  0.00    +0.000 A 
ATOM     10  C   UNL     1       0.872   9.925  21.658  0.00  0.00    +0.000 A 
ATOM     11  C   UNL     1       0.621  11.270  21.318  0.00  0.00    +0.000 A 
ATOM     12  C   UNL     1       1.341  11.944  20.167  0.00  0.00    +0.000 C 
ATOM     13  N   UNL     1       1.205  13.433  20.177  0.00  0.00    +0.000 N 
ENDROOT
BRANCH  13  14
ATOM     14  C   UNL     1       2.278  14.175  19.573  0.00  0.00    +0.000 A 
ATOM     15  C   UNL     1       2.364  14.415  18.190  0.00  0.00    +0.000 A 
ATOM     16  C   UNL     1       3.268  15.337  17.642  0.00  0.00    +0.000 A 
ATOM     17  C   UNL     1       4.141  16.037  18.459  0.00  0.00    +0.000 A 
ATOM     18  C   UNL     1       4.176  15.732  19.809  0.00  0.00    +0.000 A 
ATOM     19  C   UNL     1       3.300  14.774  20.332  0.00  0.00    +0.000 A 
ENDBRANCH  13  14
BRANCH  12  20
ATOM     20  C   UNL     1       0.903  11.269  18.849  0.00  0.00    +0.000 C 
BRANCH  20  21
ATOM     21  C   UNL     1       1.925  10.388  18.174  0.00  0.00    +0.000 C 
ATOM     22  O   UNL     1       2.789  10.852  17.435  0.00  0.00    +0.000 OA
ATOM     23  N   UNL     1       1.719   9.047  18.363  0.00  0.00    +0.000 N 
ATOM     24  H   UNL     1       1.039   8.759  19.055  0.00  0.00    +0.000 HD
BRANCH  23  25
ATOM     25  C   UNL     1       2.579   8.042  17.789  0.00  0.00    +0.000 C 
BRANCH  25  26
ATOM     26  C   UNL     1       2.474   6.753  18.563  0.00  0.00    +0.000 A 
ATOM     27  C   UNL     1       2.686   5.527  17.920  0.00  0.00    +0.000 A 
ATOM     28  C   UNL     1       2.561   4.324  18.624  0.00  0.00    +0.000 A 
ATOM     29  C   UNL     1       2.247   4.320  19.984  0.00  0.00    +0.000 A 
ATOM     30  C   UNL     1       1.966   5.535  20.606  0.00  0.00    +0.000 A 
ATOM     31  C   UNL     1       2.109   6.742  19.914  0.00  0.00    +0.000 A 
BRANCH  29  32
ATOM     32  N   UNL     1       1.991   3.117  20.648  0.00  0.00    +0.000 N 
ATOM     33  H   UNL     1       2.350   3.095  21.597  0.00  0.00    +0.000 HD
ATOM     34  H   UNL     1       1.021   2.822  20.601  0.00  0.00    +0.000 HD
ENDBRANCH  29  32
ENDBRANCH  25  26
ENDBRANCH  23  25
ENDBRANCH  20  21
ENDBRANCH  12  20
TORSDOF 6
ENDMDL
MODEL 2
REMARK VINA RESULT:      -6.8      0.453      1.284
REMARK  Name = 
REMARK  8 active torsions:
REMARK  status: ('A' for Active; 'I' for Inactive)
REMARK    1  A    between atoms: C_1  and  N_2
REMARK    2  A    between atoms: N_2  and  C_3
REMARK    3  A    between atoms: C_12  and  C_13
REMARK    4  A    between atoms: C_13  and  C_14
REMARK    5  A    between atoms: N_16  and  C_17
REMARK    6  A    between atoms: C_17  and  C_18
REMARK    7  A    between atoms: C_21  and  N_22
REMARK    8  A    between atoms: N_25  and  C_26
REMARK                            x       y       z     vdW  Elec       q    Type
REMARK                         _______ _______ _______ _____ _____    ______ ____
ROOT
ATOM      1  C   UNL     1      -0.571  16.230  21.618  0.00  0.00    +0.000 C 
ATOM      2  N   UNL     1      -0.087  15.451  20.478  0.00  0.00    +0.000 N 
ATOM      3  C   UNL     1      -0.455  15.984  19.173  0.00  0.00    +0.000 C 
ATOM      4  C   UNL     1       0.131  14.089  20.674  0.00  0.00    +0.000 C 
ATOM      5  N   UNL     1      -0.690  13.498  21.502  0.00  0.00    +0.000 NA
ATOM      6  C   UNL     1      -0.503  12.161  21.841  0.00  0.00    +0.000 A 
ATOM      7  C   UNL     1      -1.349  11.582  22.795  0.00  0.00    +0.000 A 
ATOM      8  C   UNL     1      -1.180  10.258  23.196  0.00  0.00    +0.000 A 
ATOM      9  C   UNL     1      -0.144   9.503  22.656  0.00  0.00    +0.000 A 
ATOM     10  C   UNL     1       0.696  10.066  21.695  0.00  0.00    +0.000 A 
ATOM     11  C   UNL     1       0.500  11.392  21.257  0.00  0.00    +0.000 A 
ATOM     12  C   UNL     1       1.282  11.967  20.093  0.00  0.00    +0.000 C 
ATOM     13  N   UNL     1       1.191  13.456  20.000  0.00  0.00    +0.000 N 
ENDROOT
BRANCH  13  14
ATOM     14  C   UNL     1       2.308  14.125  19.390  0.00  0.00    +0.000 A 
ATOM     15  C   UNL     1       3.419  14.588  20.118  0.00  0.00    +0.000 A 
ATOM     16  C   UNL     1       4.601  15.013  19.496  0.00  0.00    +0.000 A 
ATOM     17  C   UNL     1       4.708  15.015  18.115  0.00  0.00    +0.000 A 
ATOM     18  C   UNL     1       3.592  14.692  17.362  0.00  0.00    +0.000 A 
ATOM     19  C   UNL     1       2.404  14.316  17.999  0.00  0.00    +0.000 A 
ENDBRANCH  13  14
BRANCH  12  20
ATOM     20  C   UNL     1       0.872  11.217  18.806  0.00  0.00    +0.000 C 
BRANCH  20  21
ATOM     21  C   UNL     1       1.923  10.331  18.183  0.00  0.00    +0.000 C 
ATOM     22  O   UNL     1       2.627  10.720  17.254  0.00  0.00    +0.000 OA
ATOM     23  N   UNL     1       1.924   9.047  18.658  0.00  0.00    +0.000 N 
ATOM     24  H   UNL     1       1.373   8.838  19.481  0.00  0.00    +0.000 HD
BRANCH  23  25
ATOM     25  C   UNL     1       2.843   8.043  18.179  0.00  0.00    +0.000 C 
BRANCH  25  26
ATOM     26  C   UNL     1       2.454   6.682  18.695  0.00  0.00    +0.000 A 
ATOM     27  C   UNL     1       2.266   6.477  20.068  0.00  0.00    +0.000 A 
ATOM     28  C   UNL     1       1.935   5.210  20.559  0.00  0.00    +0.000 A 
ATOM     29  C   UNL     1       1.760   4.130  19.693  0.00  0.00    +0.000 A 
ATOM     30  C   UNL     1       2.016   4.317  18.336  0.00  0.00    +0.000 A 
ATOM     31  C   UNL     1       2.328   5.585  17.835  0.00  0.00    +0.000 A 
BRANCH  29  32
ATOM     32  N   UNL     1       1.563   2.841  20.198  0.00  0.00    +0.000 N 
ATOM     33  H   UNL     1       0.607   2.513  20.106  0.00  0.00    +0.000 HD
ATOM     34  H   UNL     1       2.234   2.160  19.856  0.00  0.00    +0.000 HD
ENDBRANCH  29  32
ENDBRANCH  25  26
ENDBRANCH  23  25
ENDBRANCH  20  21
ENDBRANCH  12  20
TORSDOF 6
ENDMDL
MODEL 3
REMARK VINA RESULT:      -6.5      4.850      7.547
REMARK  Name = 
REMARK  8 active torsions:
REMARK  status: ('A' for Active; 'I' for Inactive)
REMARK    1  A    between atoms: C_1  and  N_2
REMARK    2  A    between atoms: N_2  and  C_3
REMARK    3  A    between atoms: C_12  and  C_13
REMARK    4  A    between atoms: C_13  and  C_14
REMARK    5  A    between atoms: N_16  and  C_17
REMARK    6  A    between atoms: C_17  and  C_18
REMARK    7  A    between atoms: C_21  and  N_22
REMARK    8  A    between atoms: N_25  and  C_26
REMARK                            x       y       z     vdW  Elec       q    Type
REMARK                         _______ _______ _______ _____ _____    ______ ____
ROOT
ATOM      1  C   UNL     1      -7.194  16.920  23.457  0.00  0.00    +0.000 C 
ATOM      2  N   UNL     1      -6.645  15.572  23.308  0.00  0.00    +0.000 N 
ATOM      3  C   UNL     1      -7.539  14.499  23.720  0.00  0.00    +0.000 C 
ATOM      4  C   UNL     1      -5.260  15.430  23.365  0.00  0.00    +0.000 C 
ATOM      5  N   UNL     1      -4.642  16.246  24.178  0.00  0.00    +0.000 NA
ATOM      6  C   UNL     1      -3.251  16.251  24.242  0.00  0.00    +0.000 A 
ATOM      7  C   UNL     1      -2.617  17.195  25.059  0.00  0.00    +0.000 A 
ATOM      8  C   UNL     1      -1.227  17.267  25.129  0.00  0.00    +0.000 A 
ATOM      9  C   UNL     1      -0.454  16.402  24.361  0.00  0.00    +0.000 A 
ATOM     10  C   UNL     1      -1.076  15.449  23.553  0.00  0.00    +0.000 A 
ATOM     11  C   UNL     1      -2.482  15.347  23.515  0.00  0.00    +0.000 A 
ATOM     12  C   UNL     1      -3.175  14.213  22.787  0.00  0.00    +0.000 C 
ATOM     13  N   UNL     1      -4.633  14.458  22.565  0.00  0.00    +0.000 N 
ENDROOT
BRANCH  13  14
ATOM     14  C   UNL     1      -5.220  13.816  21.421  0.00  0.00    +0.000 A 
ATOM     15  C   UNL     1      -5.590  12.460  21.404  0.00  0.00    +0.000 A 
ATOM     16  C   UNL     1      -6.379  11.908  20.385  0.00  0.00    +0.000 A 
ATOM     17  C   UNL     1      -6.806  12.690  19.324  0.00  0.00    +0.000 A 
ATOM     18  C   UNL     1      -6.354  13.996  19.237  0.00  0.00    +0.000 A 
ATOM     19  C   UNL     1      -5.527  14.517  20.239  0.00  0.00    +0.000 A 
ENDBRANCH  13  14
BRANCH  12  20
ATOM     20  C   UNL     1      -2.850  12.890  23.515  0.00  0.00    +0.000 C 
BRANCH  20  21
ATOM     21  C   UNL     1      -2.013  11.892  22.752  0.00  0.00    +0.000 C 
ATOM     22  O   UNL     1      -1.586  10.869  23.280  0.00  0.00    +0.000 OA
ATOM     23  N   UNL     1      -1.681  12.296  21.486  0.00  0.00    +0.000 N 
ATOM     24  H   UNL     1      -2.146  13.108  21.103  0.00  0.00    +0.000 HD
BRANCH  23  25
ATOM     25  C   UNL     1      -0.875  11.490  20.601  0.00  0.00    +0.000 C 
BRANCH  25  26
ATOM     26  C   UNL     1      -1.626  11.189  19.330  0.00  0.00    +0.000 A 
ATOM     27  C   UNL     1      -1.106  10.275  18.406  0.00  0.00    +0.000 A 
ATOM     28  C   UNL     1      -1.781  10.012  17.209  0.00  0.00    +0.000 A 
ATOM     29  C   UNL     1      -2.997  10.635  16.921  0.00  0.00    +0.000 A 
ATOM     30  C   UNL     1      -3.478  11.596  17.807  0.00  0.00    +0.000 A 
ATOM     31  C   UNL     1      -2.820  11.849  19.014  0.00  0.00    +0.000 A 
BRANCH  29  32
ATOM     32  N   UNL     1      -3.597  10.472  15.669  0.00  0.00    +0.000 N 
ATOM     33  H   UNL     1      -4.494   9.998  15.709  0.00  0.00    +0.000 HD
ATOM     34  H   UNL     1      -3.642  11.327  15.123  0.00  0.00    +0.000 HD
ENDBRANCH  29  32
ENDBRANCH  25  26
ENDBRANCH  23  25
ENDBRANCH  20  21
ENDBRANCH  12  20
TORSDOF 6
ENDMDL
MODEL 4
REMARK VINA RESULT:      -6.5      3.964      6.091
REMARK  Name = 
REMARK  8 active torsions:
REMARK  status: ('A' for Active; 'I' for Inactive)
REMARK    1  A    between atoms: C_1  and  N_2
REMARK    2  A    between atoms: N_2  and  C_3
REMARK    3  A    between atoms: C_12  and  C_13
REMARK    4  A    between atoms: C_13  and  C_14
REMARK    5  A    between atoms: N_16  and  C_17
REMARK    6  A    between atoms: C_17  and  C_18
REMARK    7  A    between atoms: C_21  and  N_22
REMARK    8  A    between atoms: N_25  and  C_26
REMARK                            x       y       z     vdW  Elec       q    Type
REMARK                         _______ _______ _______ _____ _____    ______ ____
ROOT
ATOM      1  C   UNL     1      -7.523  13.535  19.268  0.00  0.00    +0.000 C 
ATOM      2  N   UNL     1      -6.199  13.798  19.832  0.00  0.00    +0.000 N 
ATOM      3  C   UNL     1      -5.979  15.174  20.259  0.00  0.00    +0.000 C 
ATOM      4  C   UNL     1      -5.146  12.988  19.414  0.00  0.00    +0.000 C 
ATOM      5  N   UNL     1      -5.202  12.587  18.170  0.00  0.00    +0.000 NA
ATOM      6  C   UNL     1      -4.251  11.698  17.677  0.00  0.00    +0.000 A 
ATOM      7  C   UNL     1      -4.388  11.223  16.367  0.00  0.00    +0.000 A 
ATOM      8  C   UNL     1      -3.484  10.303  15.839  0.00  0.00    +0.000 A 
ATOM      9  C   UNL     1      -2.439   9.834  16.628  0.00  0.00    +0.000 A 
ATOM     10  C   UNL     1      -2.286  10.311  17.931  0.00  0.00    +0.000 A 
ATOM     11  C   UNL     1      -3.175  11.274  18.452  0.00  0.00    +0.000 A 
ATOM     12  C   UNL     1      -2.929  11.936  19.792  0.00  0.00    +0.000 C 
ATOM     13  N   UNL     1      -4.128  12.654  20.324  0.00  0.00    +0.000 N 
ENDROOT
BRANCH  13  14
ATOM     14  C   UNL     1      -4.221  12.765  21.754  0.00  0.00    +0.000 A 
ATOM     15  C   UNL     1      -5.440  12.917  22.437  0.00  0.00    +0.000 A 
ATOM     16  C   UNL     1      -5.547  12.778  23.828  0.00  0.00    +0.000 A 
ATOM     17  C   UNL     1      -4.425  12.506  24.595  0.00  0.00    +0.000 A 
ATOM     18  C   UNL     1      -3.187  12.479  23.976  0.00  0.00    +0.000 A 
ATOM     19  C   UNL     1      -3.094  12.668  22.592  0.00  0.00    +0.000 A 
ENDBRANCH  13  14
BRANCH  12  20
ATOM     20  C   UNL     1      -1.656  12.806  19.685  0.00  0.00    +0.000 C 
BRANCH  20  21
ATOM     21  C   UNL     1      -0.443  12.315  20.436  0.00  0.00    +0.000 C 
ATOM     22  O   UNL     1       0.474  13.070  20.745  0.00  0.00    +0.000 OA
ATOM     23  N   UNL     1      -0.412  10.958  20.618  0.00  0.00    +0.000 N 
ATOM     24  H   UNL     1      -1.247  10.425  20.410  0.00  0.00    +0.000 HD
BRANCH  23  25
ATOM     25  C   UNL     1       0.670  10.291  21.300  0.00  0.00    +0.000 C 
BRANCH  25  26
ATOM     26  C   UNL     1       1.249   9.202  20.435  0.00  0.00    +0.000 A 
ATOM     27  C   UNL     1       1.475   9.432  19.072  0.00  0.00    +0.000 A 
ATOM     28  C   UNL     1       1.983   8.418  18.254  0.00  0.00    +0.000 A 
ATOM     29  C   UNL     1       2.299   7.164  18.781  0.00  0.00    +0.000 A 
ATOM     30  C   UNL     1       2.008   6.913  20.120  0.00  0.00    +0.000 A 
ATOM     31  C   UNL     1       1.519   7.928  20.948  0.00  0.00    +0.000 A 
BRANCH  29  32
ATOM     32  N   UNL     1       2.677   6.116  17.937  0.00  0.00    +0.000 N 
ATOM     33  H   UNL     1       3.100   6.428  17.068  0.00  0.00    +0.000 HD
ATOM     34  H   UNL     1       3.234   5.402  18.396  0.00  0.00    +0.000 HD
ENDBRANCH  29  32
ENDBRANCH  25  26
ENDBRANCH  23  25
ENDBRANCH  20  21
ENDBRANCH  12  20
TORSDOF 6
ENDMDL
MODEL 5
REMARK VINA RESULT:      -6.3      2.933      8.063
REMARK  Name = 
REMARK  8 active torsions:
REMARK  status: ('A' for Active; 'I' for Inactive)
REMARK    1  A    between atoms: C_1  and  N_2
REMARK    2  A    between atoms: N_2  and  C_3
REMARK    3  A    between atoms: C_12  and  C_13
REMARK    4  A    between atoms: C_13  and  C_14
REMARK    5  A    between atoms: N_16  and  C_17
REMARK    6  A    between atoms: C_17  and  C_18
REMARK    7  A    between atoms: C_21  and  N_22
REMARK    8  A    between atoms: N_25  and  C_26
REMARK                            x       y       z     vdW  Elec       q    Type
REMARK                         _______ _______ _______ _____ _____    ______ ____
ROOT
ATOM      1  C   UNL     1       1.974   9.629  17.686  0.00  0.00    +0.000 C 
ATOM      2  N   UNL     1       1.027  10.423  18.470  0.00  0.00    +0.000 N 
ATOM      3  C   UNL     1      -0.375  10.210  18.133  0.00  0.00    +0.000 C 
ATOM      4  C   UNL     1       1.476  11.635  18.990  0.00  0.00    +0.000 C 
ATOM      5  N   UNL     1       2.337  12.283  18.249  0.00  0.00    +0.000 NA
ATOM      6  C   UNL     1       2.919  13.458  18.716  0.00  0.00    +0.000 A 
ATOM      7  C   UNL     1       3.900  14.082  17.935  0.00  0.00    +0.000 A 
ATOM      8  C   UNL     1       4.540  15.238  18.375  0.00  0.00    +0.000 A 
ATOM      9  C   UNL     1       4.216  15.774  19.617  0.00  0.00    +0.000 A 
ATOM     10  C   UNL     1       3.231  15.167  20.398  0.00  0.00    +0.000 A 
ATOM     11  C   UNL     1       2.552  14.022  19.935  0.00  0.00    +0.000 A 
ATOM     12  C   UNL     1       1.363  13.450  20.680  0.00  0.00    +0.000 C 
ATOM     13  N   UNL     1       1.000  12.068  20.241  0.00  0.00    +0.000 N 
ENDROOT
BRANCH  13  14
ATOM     14  C   UNL     1       0.361  11.235  21.222  0.00  0.00    +0.000 A 
ATOM     15  C   UNL     1       0.920  10.034  21.694  0.00  0.00    +0.000 A 
ATOM     16  C   UNL     1       0.417   9.361  22.817  0.00  0.00    +0.000 A 
ATOM     17  C   UNL     1      -0.685   9.852  23.497  0.00  0.00    +0.000 A 
ATOM     18  C   UNL     1      -1.342  10.959  22.985  0.00  0.00    +0.000 A 
ATOM     19  C   UNL     1      -0.855  11.591  21.836  0.00  0.00    +0.000 A 
ENDBRANCH  13  14
BRANCH  12  20
ATOM     20  C   UNL     1       0.204  14.470  20.612  0.00  0.00    +0.000 C 
BRANCH  20  21
ATOM     21  C   UNL     1      -0.418  14.867  21.928  0.00  0.00    +0.000 C 
ATOM     22  O   UNL     1       0.196  14.771  22.987  0.00  0.00    +0.000 OA
ATOM     23  N   UNL     1      -1.740  15.214  21.839  0.00  0.00    +0.000 N 
ATOM     24  H   UNL     1      -2.140  15.350  20.919  0.00  0.00    +0.000 HD
BRANCH  23  25
ATOM     25  C   UNL     1      -2.517  15.611  22.987  0.00  0.00    +0.000 C 
BRANCH  25  26
ATOM     26  C   UNL     1      -3.625  14.622  23.242  0.00  0.00    +0.000 A 
ATOM     27  C   UNL     1      -4.845  14.742  22.566  0.00  0.00    +0.000 A 
ATOM     28  C   UNL     1      -5.890  13.846  22.819  0.00  0.00    +0.000 A 
ATOM     29  C   UNL     1      -5.731  12.801  23.731  0.00  0.00    +0.000 A 
ATOM     30  C   UNL     1      -4.544  12.724  24.455  0.00  0.00    +0.000 A 
ATOM     31  C   UNL     1      -3.488  13.603  24.193  0.00  0.00    +0.000 A 
BRANCH  29  32
ATOM     32  N   UNL     1      -6.818  11.994  24.079  0.00  0.00    +0.000 N 
ATOM     33  H   UNL     1      -6.914  11.854  25.080  0.00  0.00    +0.000 HD
ATOM     34  H   UNL     1      -7.693  12.278  23.649  0.00  0.00    +0.000 HD
ENDBRANCH  29  32
ENDBRANCH  25  26
ENDBRANCH  23  25
ENDBRANCH  20  21
ENDBRANCH  12  20
TORSDOF 6
ENDMDL
MODEL 6
REMARK VINA RESULT:      -6.3      3.210      4.871
REMARK  Name = 
REMARK  8 active torsions:
REMARK  status: ('A' for Active; 'I' for Inactive)
REMARK    1  A    between atoms: C_1  and  N_2
REMARK    2  A    between atoms: N_2  and  C_3
REMARK    3  A    between atoms: C_12  and  C_13
REMARK    4  A    between atoms: C_13  and  C_14
REMARK    5  A    between atoms: N_16  and  C_17
REMARK    6  A    between atoms: C_17  and  C_18
REMARK    7  A    between atoms: C_21  and  N_22
REMARK    8  A    between atoms: N_25  and  C_26
REMARK                            x       y       z     vdW  Elec       q    Type
REMARK                         _______ _______ _______ _____ _____    ______ ____
ROOT
ATOM      1  C   UNL     1      -5.725  13.430  19.606  0.00  0.00    +0.000 C 
ATOM      2  N   UNL     1      -4.900  12.234  19.432  0.00  0.00    +0.000 N 
ATOM      3  C   UNL     1      -5.609  10.973  19.601  0.00  0.00    +0.000 C 
ATOM      4  C   UNL     1      -3.537  12.346  19.701  0.00  0.00    +0.000 C 
ATOM      5  N   UNL     1      -3.218  13.164  20.671  0.00  0.00    +0.000 NA
ATOM      6  C   UNL     1      -1.881  13.420  20.960  0.00  0.00    +0.000 A 
ATOM      7  C   UNL     1      -1.573  14.364  21.947  0.00  0.00    +0.000 A 
ATOM      8  C   UNL     1      -0.251  14.684  22.247  0.00  0.00    +0.000 A 
ATOM      9  C   UNL     1       0.782  14.073  21.544  0.00  0.00    +0.000 A 
ATOM     10  C   UNL     1       0.486  13.121  20.567  0.00  0.00    +0.000 A 
ATOM     11  C   UNL     1      -0.850  12.765  20.292  0.00  0.00    +0.000 A 
ATOM     12  C   UNL     1      -1.189  11.614  19.367  0.00  0.00    +0.000 C 
ATOM     13  N   UNL     1      -2.619  11.607  18.933  0.00  0.00    +0.000 N 
ENDROOT
BRANCH  13  14
ATOM     14  C   UNL     1      -2.896  11.005  17.658  0.00  0.00    +0.000 A 
ATOM     15  C   UNL     1      -3.778  11.565  16.717  0.00  0.00    +0.000 A 
ATOM     16  C   UNL     1      -3.854  11.110  15.393  0.00  0.00    +0.000 A 
ATOM     17  C   UNL     1      -3.065  10.054  14.966  0.00  0.00    +0.000 A 
ATOM     18  C   UNL     1      -2.281   9.392  15.896  0.00  0.00    +0.000 A 
ATOM     19  C   UNL     1      -2.254   9.830  17.225  0.00  0.00    +0.000 A 
ENDBRANCH  13  14
BRANCH  12  20
ATOM     20  C   UNL     1      -0.711  10.299  20.022  0.00  0.00    +0.000 C 
BRANCH  20  21
ATOM     21  C   UNL     1       0.595   9.734  19.517  0.00  0.00    +0.000 C 
ATOM     22  O   UNL     1       1.157  10.195  18.527  0.00  0.00    +0.000 OA
ATOM     23  N   UNL     1       1.009   8.609  20.179  0.00  0.00    +0.000 N 
ATOM     24  H   UNL     1       0.533   8.352  21.035  0.00  0.00    +0.000 HD
BRANCH  23  25
ATOM     25  C   UNL     1       2.225   7.912  19.839  0.00  0.00    +0.000 C 
BRANCH  25  26
ATOM     26  C   UNL     1       1.938   6.461  19.550  0.00  0.00    +0.000 A 
ATOM     27  C   UNL     1       1.506   5.612  20.576  0.00  0.00    +0.000 A 
ATOM     28  C   UNL     1       1.266   4.257  20.324  0.00  0.00    +0.000 A 
ATOM     29  C   UNL     1       1.428   3.727  19.043  0.00  0.00    +0.000 A 
ATOM     30  C   UNL     1       1.926   4.555  18.038  0.00  0.00    +0.000 A 
ATOM     31  C   UNL     1       2.148   5.915  18.278  0.00  0.00    +0.000 A 
BRANCH  29  32
ATOM     32  N   UNL     1       1.319   2.351  18.826  0.00  0.00    +0.000 N 
ATOM     33  H   UNL     1       1.839   2.026  18.016  0.00  0.00    +0.000 HD
ATOM     34  H   UNL     1       1.510   1.790  19.651  0.00  0.00    +0.000 HD
ENDBRANCH  29  32
ENDBRANCH  25  26
ENDBRANCH  23  25
ENDBRANCH  20  21
ENDBRANCH  12  20
TORSDOF 6
ENDMDL
MODEL 7
REMARK VINA RESULT:      -6.3      2.236      4.575
REMARK  Name = 
REMARK  8 active torsions:
REMARK  status: ('A' for Active; 'I' for Inactive)
REMARK    1  A    between atoms: C_1  and  N_2
REMARK    2  A    between atoms: N_2  and  C_3
REMARK    3  A    between atoms: C_12  and  C_13
REMARK    4  A    between atoms: C_13  and  C_14
REMARK    5  A    between atoms: N_16  and  C_17
REMARK    6  A    between atoms: C_17  and  C_18
REMARK    7  A    between atoms: C_21  and  N_22
REMARK    8  A    between atoms: N_25  and  C_26
REMARK                            x       y       z     vdW  Elec       q    Type
REMARK                         _______ _______ _______ _____ _____    ______ ____
ROOT
ATOM      1  C   UNL     1      -2.700  14.936  21.130  0.00  0.00    +0.000 C 
ATOM      2  N   UNL     1      -2.296  13.560  20.841  0.00  0.00    +0.000 N 
ATOM      3  C   UNL     1      -2.895  12.553  21.706  0.00  0.00    +0.000 C 
ATOM      4  C   UNL     1      -1.050  13.365  20.248  0.00  0.00    +0.000 C 
ATOM      5  N   UNL     1      -0.115  14.205  20.610  0.00  0.00    +0.000 NA
ATOM      6  C   UNL     1       1.141  14.157  20.009  0.00  0.00    +0.000 A 
ATOM      7  C   UNL     1       2.092  15.123  20.358  0.00  0.00    +0.000 A 
ATOM      8  C   UNL     1       3.349  15.142  19.757  0.00  0.00    +0.000 A 
ATOM      9  C   UNL     1       3.661  14.199  18.784  0.00  0.00    +0.000 A 
ATOM     10  C   UNL     1       2.725  13.223  18.439  0.00  0.00    +0.000 A 
ATOM     11  C   UNL     1       1.468  13.177  19.076  0.00  0.00    +0.000 A 
ATOM     12  C   UNL     1       0.506  12.029  18.848  0.00  0.00    +0.000 C 
ATOM     13  N   UNL     1      -0.882  12.319  19.323  0.00  0.00    +0.000 N 
ENDROOT
BRANCH  13  14
ATOM     14  C   UNL     1      -1.945  11.631  18.643  0.00  0.00    +0.000 A 
ATOM     15  C   UNL     1      -1.805  10.341  18.101  0.00  0.00    +0.000 A 
ATOM     16  C   UNL     1      -2.901   9.586  17.662  0.00  0.00    +0.000 A 
ATOM     17  C   UNL     1      -4.184  10.106  17.726  0.00  0.00    +0.000 A 
ATOM     18  C   UNL     1      -4.349  11.420  18.130  0.00  0.00    +0.000 A 
ATOM     19  C   UNL     1      -3.237  12.176  18.519  0.00  0.00    +0.000 A 
ENDBRANCH  13  14
BRANCH  12  20
ATOM     20  C   UNL     1       1.128  10.742  19.434  0.00  0.00    +0.000 C 
BRANCH  20  21
ATOM     21  C   UNL     1       1.730   9.776  18.443  0.00  0.00    +0.000 C 
ATOM     22  O   UNL     1       1.904  10.084  17.267  0.00  0.00    +0.000 OA
ATOM     23  N   UNL     1       1.937   8.519  18.944  0.00  0.00    +0.000 N 
ATOM     24  H   UNL     1       1.849   8.379  19.942  0.00  0.00    +0.000 HD
BRANCH  23  25
ATOM     25  C   UNL     1       2.491   7.449  18.151  0.00  0.00    +0.000 C 
BRANCH  25  26
ATOM     26  C   UNL     1       2.193   6.114  18.783  0.00  0.00    +0.000 A 
ATOM     27  C   UNL     1       2.064   6.007  20.173  0.00  0.00    +0.000 A 
ATOM     28  C   UNL     1       1.818   4.767  20.771  0.00  0.00    +0.000 A 
ATOM     29  C   UNL     1       1.670   3.615  19.996  0.00  0.00    +0.000 A 
ATOM     30  C   UNL     1       1.868   3.709  18.620  0.00  0.00    +0.000 A 
ATOM     31  C   UNL     1       2.095   4.949  18.014  0.00  0.00    +0.000 A 
BRANCH  29  32
ATOM     32  N   UNL     1       1.559   2.362  20.604  0.00  0.00    +0.000 N 
ATOM     33  H   UNL     1       0.599   2.074  20.766  0.00  0.00    +0.000 HD
ATOM     34  H   UNL     1       2.102   1.635  20.147  0.00  0.00    +0.000 HD
ENDBRANCH  29  32
ENDBRANCH  25  26
ENDBRANCH  23  25
ENDBRANCH  20  21
ENDBRANCH  12  20
TORSDOF 6
ENDMDL
MODEL 8
REMARK VINA RESULT:      -6.3      2.987      4.503
REMARK  Name = 
REMARK  8 active torsions:
REMARK  status: ('A' for Active; 'I' for Inactive)
REMARK    1  A    between atoms: C_1  and  N_2
REMARK    2  A    between atoms: N_2  and  C_3
REMARK    3  A    between atoms: C_12  and  C_13
REMARK    4  A    between atoms: C_13  and  C_14
REMARK    5  A    between atoms: N_16  and  C_17
REMARK    6  A    between atoms: C_17  and  C_18
REMARK    7  A    between atoms: C_21  and  N_22
REMARK    8  A    between atoms: N_25  and  C_26
REMARK                            x       y       z     vdW  Elec       q    Type
REMARK                         _______ _______ _______ _____ _____    ______ ____
ROOT
ATOM      1  C   UNL     1      -3.912  11.864  17.782  0.00  0.00    +0.000 C 
ATOM      2  N   UNL     1      -2.684  11.844  18.577  0.00  0.00    +0.000 N 
ATOM      3  C   UNL     1      -1.790  10.729  18.293  0.00  0.00    +0.000 C 
ATOM      4  C   UNL     1      -2.717  12.452  19.830  0.00  0.00    +0.000 C 
ATOM      5  N   UNL     1      -3.852  12.360  20.473  0.00  0.00    +0.000 NA
ATOM      6  C   UNL     1      -4.022  13.010  21.692  0.00  0.00    +0.000 A 
ATOM      7  C   UNL     1      -5.276  12.962  22.313  0.00  0.00    +0.000 A 
ATOM      8  C   UNL     1      -5.509  13.628  23.514  0.00  0.00    +0.000 A 
ATOM      9  C   UNL     1      -4.487  14.369  24.099  0.00  0.00    +0.000 A 
ATOM     10  C   UNL     1      -3.230  14.413  23.495  0.00  0.00    +0.000 A 
ATOM     11  C   UNL     1      -2.981  13.704  22.302  0.00  0.00    +0.000 A 
ATOM     12  C   UNL     1      -1.585  13.592  21.724  0.00  0.00    +0.000 C 
ATOM     13  N   UNL     1      -1.570  13.112  20.308  0.00  0.00    +0.000 N 
ENDROOT
BRANCH  13  14
ATOM     14  C   UNL     1      -0.461  13.541  19.501  0.00  0.00    +0.000 A 
ATOM     15  C   UNL     1      -0.306  14.862  19.046  0.00  0.00    +0.000 A 
ATOM     16  C   UNL     1       0.888  15.327  18.475  0.00  0.00    +0.000 A 
ATOM     17  C   UNL     1       1.969  14.474  18.315  0.00  0.00    +0.000 A 
ATOM     18  C   UNL     1       1.811  13.135  18.630  0.00  0.00    +0.000 A 
ATOM     19  C   UNL     1       0.596  12.679  19.154  0.00  0.00    +0.000 A 
ENDBRANCH  13  14
BRANCH  12  20
ATOM     20  C   UNL     1      -0.717  12.759  22.693  0.00  0.00    +0.000 C 
BRANCH  20  21
ATOM     21  C   UNL     1      -0.978  11.273  22.718  0.00  0.00    +0.000 C 
ATOM     22  O   UNL     1      -1.858  10.784  23.421  0.00  0.00    +0.000 OA
ATOM     23  N   UNL     1      -0.077  10.536  21.997  0.00  0.00    +0.000 N 
ATOM     24  H   UNL     1       0.559  11.024  21.380  0.00  0.00    +0.000 HD
BRANCH  23  25
ATOM     25  C   UNL     1      -0.146   9.098  21.907  0.00  0.00    +0.000 C 
BRANCH  25  26
ATOM     26  C   UNL     1       0.789   8.590  20.840  0.00  0.00    +0.000 A 
ATOM     27  C   UNL     1       0.997   9.336  19.673  0.00  0.00    +0.000 A 
ATOM     28  C   UNL     1       1.840   8.859  18.664  0.00  0.00    +0.000 A 
ATOM     29  C   UNL     1       2.509   7.642  18.807  0.00  0.00    +0.000 A 
ATOM     30  C   UNL     1       2.248   6.866  19.935  0.00  0.00    +0.000 A 
ATOM     31  C   UNL     1       1.423   7.347  20.957  0.00  0.00    +0.000 A 
BRANCH  29  32
ATOM     32  N   UNL     1       3.241   7.107  17.743  0.00  0.00    +0.000 N 
ATOM     33  H   UNL     1       3.758   7.804  17.216  0.00  0.00    +0.000 HD
ATOM     34  H   UNL     1       3.824   6.317  18.003  0.00  0.00    +0.000 HD
ENDBRANCH  29  32
ENDBRANCH  25  26
ENDBRANCH  23  25
ENDBRANCH  20  21
ENDBRANCH  12  20
TORSDOF 6
ENDMDL
MODEL 9
REMARK VINA RESULT:      -6.3      3.553      5.284
REMARK  Name = 
REMARK  8 active torsions:
REMARK  status: ('A' for Active; 'I' for Inactive)
REMARK    1  A    between atoms: C_1  and  N_2
REMARK    2  A    between atoms: N_2  and  C_3
REMARK    3  A    between atoms: C_12  and  C_13
REMARK    4  A    between atoms: C_13  and  C_14
REMARK    5  A    between atoms: N_16  and  C_17
REMARK    6  A    between atoms: C_17  and  C_18
REMARK    7  A    between atoms: C_21  and  N_22
REMARK    8  A    between atoms: N_25  and  C_26
REMARK                            x       y       z     vdW  Elec       q    Type
REMARK                         _______ _______ _______ _____ _____    ______ ____
ROOT
ATOM      1  C   UNL     1      -0.023  16.971  21.488  0.00  0.00    +0.000 C 
ATOM      2  N   UNL     1       0.387  16.016  20.458  0.00  0.00    +0.000 N 
ATOM      3  C   UNL     1       0.249  16.496  19.090  0.00  0.00    +0.000 C 
ATOM      4  C   UNL     1       0.305  14.659  20.766  0.00  0.00    +0.000 C 
ATOM      5  N   UNL     1      -0.688  14.316  21.545  0.00  0.00    +0.000 NA
ATOM      6  C   UNL     1      -0.808  13.002  21.990  0.00  0.00    +0.000 A 
ATOM      7  C   UNL     1      -1.833  12.686  22.890  0.00  0.00    +0.000 A 
ATOM      8  C   UNL     1      -1.972  11.395  23.395  0.00  0.00    +0.000 A 
ATOM      9  C   UNL     1      -1.071  10.407  23.015  0.00  0.00    +0.000 A 
ATOM     10  C   UNL     1      -0.054  10.708  22.108  0.00  0.00    +0.000 A 
ATOM     11  C   UNL     1       0.063  12.004  21.564  0.00  0.00    +0.000 A 
ATOM     12  C   UNL     1       1.043  12.310  20.450  0.00  0.00    +0.000 C 
ATOM     13  N   UNL     1       1.267  13.774  20.247  0.00  0.00    +0.000 N 
ENDROOT
BRANCH  13  14
ATOM     14  C   UNL     1       2.544  14.155  19.710  0.00  0.00    +0.000 A 
ATOM     15  C   UNL     1       2.804  14.245  18.331  0.00  0.00    +0.000 A 
ATOM     16  C   UNL     1       3.963  14.848  17.821  0.00  0.00    +0.000 A 
ATOM     17  C   UNL     1       4.923  15.363  18.678  0.00  0.00    +0.000 A 
ATOM     18  C   UNL     1       4.765  15.177  20.041  0.00  0.00    +0.000 A 
ATOM     19  C   UNL     1       3.625  14.530  20.531  0.00  0.00    +0.000 A 
ENDBRANCH  13  14
BRANCH  12  20
ATOM     20  C   UNL     1       0.600  11.547  19.181  0.00  0.00    +0.000 C 
BRANCH  20  21
ATOM     21  C   UNL     1      -0.574  12.123  18.428  0.00  0.00    +0.000 C 
ATOM     22  O   UNL     1      -0.551  13.262  17.969  0.00  0.00    +0.000 OA
ATOM     23  N   UNL     1      -1.681  11.317  18.421  0.00  0.00    +0.000 N 
ATOM     24  H   UNL     1      -1.584  10.363  18.746  0.00  0.00    +0.000 HD
BRANCH  23  25
ATOM     25  C   UNL     1      -2.911  11.693  17.767  0.00  0.00    +0.000 C 
BRANCH  25  26
ATOM     26  C   UNL     1      -4.034  11.785  18.767  0.00  0.00    +0.000 A 
ATOM     27  C   UNL     1      -5.269  11.182  18.496  0.00  0.00    +0.000 A 
ATOM     28  C   UNL     1      -6.327  11.288  19.404  0.00  0.00    +0.000 A 
ATOM     29  C   UNL     1      -6.170  11.975  20.609  0.00  0.00    +0.000 A 
ATOM     30  C   UNL     1      -4.965  12.634  20.848  0.00  0.00    +0.000 A 
ATOM     31  C   UNL     1      -3.897  12.516  19.953  0.00  0.00    +0.000 A 
BRANCH  29  32
ATOM     32  N   UNL     1      -7.266  12.193  21.449  0.00  0.00    +0.000 N 
ATOM     33  H   UNL     1      -7.535  13.169  21.518  0.00  0.00    +0.000 HD
ATOM     34  H   UNL     1      -8.060  11.592  21.250  0.00  0.00    +0.000 HD
ENDBRANCH  29  32
ENDBRANCH  25  26
ENDBRANCH  23  25
ENDBRANCH  20  21
ENDBRANCH  12  20
TORSDOF 6
ENDMDL
