MODEL 1
REMARK VINA RESULT:      -7.1      0.000      0.000
REMARK  Name = 
REMARK  8 active torsions:
REMARK  status: ('A' for Active; 'I' for Inactive)
REMARK    1  A    between atoms: C_1  and  C_2
REMARK    2  A    between atoms: C_2  and  C_3
REMARK    3  A    between atoms: C_2  and  N_4
REMARK    4  A    between atoms: N_4  and  C_5
REMARK    5  A    between atoms: C_5  and  C_6
REMARK    6  A    between atoms: N_12  and  C_13
REMARK    7  A    between atoms: C_13  and  C_14
REMARK    8  A    between atoms: C_17  and  C_18
REMARK                            x       y       z     vdW  Elec       q    Type
REMARK                         _______ _______ _______ _____ _____    ______ ____
ROOT
ATOM      1  N   UNL     1       3.740   5.811  19.272  0.00  0.00    +0.000 N 
ATOM      2  C   UNL     1       4.930   5.838  18.549  0.00  0.00    +0.000 C 
ATOM      3  O   UNL     1       5.337   6.838  17.961  0.00  0.00    +0.000 OA
ATOM      4  N   UNL     1       5.667   4.683  18.541  0.00  0.00    +0.000 N 
ATOM      5  H   UNL     1       5.200   3.810  18.699  0.00  0.00    +0.000 HD
ENDROOT
BRANCH   1   7
ATOM      6  C   UNL     1       2.141   7.236  17.920  0.00  0.00    +0.000 C 
ATOM      7  C   UNL     1       2.868   7.010  19.250  0.00  0.00    +0.000 C 
ATOM      8  C   UNL     1       1.886   7.015  20.426  0.00  0.00    +0.000 C 
ENDBRANCH   1   7
BRANCH   1   9
ATOM      9  C   UNL     1       3.191   4.624  19.949  0.00  0.00    +0.000 C 
BRANCH   9  10
ATOM     10  C   UNL     1       2.178   3.948  19.036  0.00  0.00    +0.000 C 
ATOM     11  C   UNL     1       2.400   2.473  18.586  0.00  0.00    +0.000 C 
ATOM     12  C   UNL     1       0.872   2.283  18.718  0.00  0.00    +0.000 C 
ATOM     13  C   UNL     1       0.907   3.414  19.766  0.00  0.00    +0.000 C 
ENDBRANCH   9  10
ENDBRANCH   1   9
BRANCH   4  14
ATOM     14  C   UNL     1       6.907   4.605  17.797  0.00  0.00    +0.000 C 
BRANCH  14  15
ATOM     15  C   UNL     1       6.626   4.386  16.352  0.00  0.00    +0.000 A 
ATOM     16  C   UNL     1       5.599   3.747  15.689  0.00  0.00    +0.000 A 
ATOM     17  C   UNL     1       5.845   3.914  14.308  0.00  0.00    +0.000 A 
ATOM     18  C   UNL     1       7.019   4.634  14.195  0.00  0.00    +0.000 A 
ATOM     19  O   UNL     1       7.504   4.921  15.449  0.00  0.00    +0.000 OA
BRANCH  18  20
ATOM     20  C   UNL     1       7.729   5.085  13.018  0.00  0.00    +0.000 C 
ATOM     21  N   UNL     1       8.750   5.965  13.252  0.00  0.00    +0.000 N 
ATOM     22  O   UNL     1       7.477   4.735  11.868  0.00  0.00    +0.000 OA
ATOM     23  H   UNL     1       8.958   6.281  14.190  0.00  0.00    +0.000 HD
ATOM     24  H   UNL     1       9.264   6.325  12.462  0.00  0.00    +0.000 HD
ENDBRANCH  18  20
ENDBRANCH  14  15
ENDBRANCH   4  14
TORSDOF 6
ENDMDL
MODEL 2
REMARK VINA RESULT:      -7.0      2.612      6.607
REMARK  Name = 
REMARK  8 active torsions:
REMARK  status: ('A' for Active; 'I' for Inactive)
REMARK    1  A    between atoms: C_1  and  C_2
REMARK    2  A    between atoms: C_2  and  C_3
REMARK    3  A    between atoms: C_2  and  N_4
REMARK    4  A    between atoms: N_4  and  C_5
REMARK    5  A    between atoms: C_5  and  C_6
REMARK    6  A    between atoms: N_12  and  C_13
REMARK    7  A    between atoms: C_13  and  C_14
REMARK    8  A    between atoms: C_17  and  C_18
REMARK                            x       y       z     vdW  Elec       q    Type
REMARK                         _______ _______ _______ _____ _____    ______ ____
ROOT
ATOM      1  N   UNL     1       5.773   4.149  16.746  0.00  0.00    +0.000 N 
ATOM      2  C   UNL     1       4.806   3.577  17.570  0.00  0.00    +0.000 C 
ATOM      3  O   UNL     1       3.675   3.294  17.183  0.00  0.00    +0.000 OA
ATOM      4  N   UNL     1       5.185   3.307  18.859  0.00  0.00    +0.000 N 
ATOM      5  H   UNL     1       5.936   3.834  19.264  0.00  0.00    +0.000 HD
ENDROOT
BRANCH   1   7
ATOM      6  C   UNL     1       5.124   6.026  15.175  0.00  0.00    +0.000 C 
ATOM      7  C   UNL     1       5.392   4.530  15.365  0.00  0.00    +0.000 C 
ATOM      8  C   UNL     1       6.405   4.014  14.338  0.00  0.00    +0.000 C 
ENDBRANCH   1   7
BRANCH   1   9
ATOM      9  C   UNL     1       7.122   4.548  17.180  0.00  0.00    +0.000 C 
BRANCH   9  10
ATOM     10  C   UNL     1       7.039   5.873  17.925  0.00  0.00    +0.000 C 
ATOM     11  C   UNL     1       8.072   6.201  19.044  0.00  0.00    +0.000 C 
ATOM     12  C   UNL     1       8.044   7.660  18.537  0.00  0.00    +0.000 C 
ATOM     13  C   UNL     1       7.654   7.084  17.160  0.00  0.00    +0.000 C 
ENDBRANCH   9  10
ENDBRANCH   1   9
BRANCH   4  14
ATOM     14  C   UNL     1       4.243   2.736  19.800  0.00  0.00    +0.000 C 
BRANCH  14  15
ATOM     15  C   UNL     1       3.112   3.676  20.029  0.00  0.00    +0.000 A 
ATOM     16  C   UNL     1       1.807   3.484  20.429  0.00  0.00    +0.000 A 
ATOM     17  C   UNL     1       1.221   4.766  20.524  0.00  0.00    +0.000 A 
ATOM     18  C   UNL     1       2.194   5.678  20.162  0.00  0.00    +0.000 A 
ATOM     19  O   UNL     1       3.355   5.011  19.852  0.00  0.00    +0.000 OA
BRANCH  18  20
ATOM     20  C   UNL     1       2.139   7.122  20.084  0.00  0.00    +0.000 C 
ATOM     21  N   UNL     1       1.808   7.759  21.248  0.00  0.00    +0.000 N 
ATOM     22  O   UNL     1       2.365   7.778  19.071  0.00  0.00    +0.000 OA
ATOM     23  H   UNL     1       1.597   7.233  22.085  0.00  0.00    +0.000 HD
ATOM     24  H   UNL     1       1.738   8.766  21.240  0.00  0.00    +0.000 HD
ENDBRANCH  18  20
ENDBRANCH  14  15
ENDBRANCH   4  14
TORSDOF 6
ENDMDL
MODEL 3
REMARK VINA RESULT:      -6.8      1.346      2.960
REMARK  Name = 
REMARK  8 active torsions:
REMARK  status: ('A' for Active; 'I' for Inactive)
REMARK    1  A    between atoms: C_1  and  C_2
REMARK    2  A    between atoms: C_2  and  C_3
REMARK    3  A    between atoms: C_2  and  N_4
REMARK    4  A    between atoms: N_4  and  C_5
REMARK    5  A    between atoms: C_5  and  C_6
REMARK    6  A    between atoms: N_12  and  C_13
REMARK    7  A    between atoms: C_13  and  C_14
REMARK    8  A    between atoms: C_17  and  C_18
REMARK                            x       y       z     vdW  Elec       q    Type
REMARK                         _______ _______ _______ _____ _____    ______ ____
ROOT
ATOM      1  N   UNL     1       3.371   4.424  19.511  0.00  0.00    +0.000 N 
ATOM      2  C   UNL     1       4.464   3.931  18.801  0.00  0.00    +0.000 C 
ATOM      3  O   UNL     1       4.585   2.748  18.491  0.00  0.00    +0.000 OA
ATOM      4  N   UNL     1       5.413   4.845  18.427  0.00  0.00    +0.000 N 
ATOM      5  H   UNL     1       5.504   5.693  18.955  0.00  0.00    +0.000 HD
ENDROOT
BRANCH   1   7
ATOM      6  C   UNL     1       2.648   2.899  21.399  0.00  0.00    +0.000 C 
ATOM      7  C   UNL     1       2.355   3.465  20.006  0.00  0.00    +0.000 C 
ATOM      8  C   UNL     1       0.942   4.054  19.933  0.00  0.00    +0.000 C 
ENDBRANCH   1   7
BRANCH   1   9
ATOM      9  C   UNL     1       3.210   5.822  19.947  0.00  0.00    +0.000 C 
BRANCH   9  10
ATOM     10  C   UNL     1       2.429   6.590  18.889  0.00  0.00    +0.000 C 
ATOM     11  C   UNL     1       1.827   7.986  19.230  0.00  0.00    +0.000 C 
ATOM     12  C   UNL     1       2.200   8.413  17.793  0.00  0.00    +0.000 C 
ATOM     13  C   UNL     1       3.317   7.351  17.858  0.00  0.00    +0.000 C 
ENDBRANCH   9  10
ENDBRANCH   1   9
BRANCH   4  14
ATOM     14  C   UNL     1       6.598   4.426  17.708  0.00  0.00    +0.000 C 
BRANCH  14  15
ATOM     15  C   UNL     1       6.337   4.429  16.243  0.00  0.00    +0.000 A 
ATOM     16  C   UNL     1       5.206   4.171  15.497  0.00  0.00    +0.000 A 
ATOM     17  C   UNL     1       5.556   4.389  14.146  0.00  0.00    +0.000 A 
ATOM     18  C   UNL     1       6.888   4.756  14.131  0.00  0.00    +0.000 A 
ATOM     19  O   UNL     1       7.372   4.776  15.417  0.00  0.00    +0.000 OA
BRANCH  18  20
ATOM     20  C   UNL     1       7.752   5.095  13.022  0.00  0.00    +0.000 C 
ATOM     21  N   UNL     1       8.835   5.868  13.338  0.00  0.00    +0.000 N 
ATOM     22  O   UNL     1       7.574   4.740  11.859  0.00  0.00    +0.000 OA
ATOM     23  H   UNL     1       8.985   6.187  14.286  0.00  0.00    +0.000 HD
ATOM     24  H   UNL     1       9.459   6.148  12.596  0.00  0.00    +0.000 HD
ENDBRANCH  18  20
ENDBRANCH  14  15
ENDBRANCH   4  14
TORSDOF 6
ENDMDL
MODEL 4
REMARK VINA RESULT:      -6.8      3.389      7.526
REMARK  Name = 
REMARK  8 active torsions:
REMARK  status: ('A' for Active; 'I' for Inactive)
REMARK    1  A    between atoms: C_1  and  C_2
REMARK    2  A    between atoms: C_2  and  C_3
REMARK    3  A    between atoms: C_2  and  N_4
REMARK    4  A    between atoms: N_4  and  C_5
REMARK    5  A    between atoms: C_5  and  C_6
REMARK    6  A    between atoms: N_12  and  C_13
REMARK    7  A    between atoms: C_13  and  C_14
REMARK    8  A    between atoms: C_17  and  C_18
REMARK                            x       y       z     vdW  Elec       q    Type
REMARK                         _______ _______ _______ _____ _____    ______ ____
ROOT
ATOM      1  N   UNL     1       3.668   5.793  18.480  0.00  0.00    +0.000 N 
ATOM      2  C   UNL     1       3.389   7.038  17.923  0.00  0.00    +0.000 C 
ATOM      3  O   UNL     1       4.041   7.523  17.000  0.00  0.00    +0.000 OA
ATOM      4  N   UNL     1       2.312   7.711  18.437  0.00  0.00    +0.000 N 
ATOM      5  H   UNL     1       2.015   7.507  19.373  0.00  0.00    +0.000 HD
ENDROOT
BRANCH   1   7
ATOM      6  C   UNL     1       5.483   4.124  19.059  0.00  0.00    +0.000 C 
ATOM      7  C   UNL     1       4.868   5.058  18.013  0.00  0.00    +0.000 C 
ATOM      8  C   UNL     1       4.598   4.317  16.699  0.00  0.00    +0.000 C 
ENDBRANCH   1   7
BRANCH   1   9
ATOM      9  C   UNL     1       2.945   5.196  19.617  0.00  0.00    +0.000 C 
BRANCH   9  10
ATOM     10  C   UNL     1       1.744   4.419  19.097  0.00  0.00    +0.000 C 
ATOM     11  C   UNL     1       1.938   2.986  18.518  0.00  0.00    +0.000 C 
ATOM     12  C   UNL     1       0.592   2.619  19.183  0.00  0.00    +0.000 C 
ATOM     13  C   UNL     1       0.890   3.734  20.206  0.00  0.00    +0.000 C 
ENDBRANCH   9  10
ENDBRANCH   1   9
BRANCH   4  14
ATOM     14  C   UNL     1       1.957   9.025  17.940  0.00  0.00    +0.000 C 
BRANCH  14  15
ATOM     15  C   UNL     1       0.886   9.620  18.785  0.00  0.00    +0.000 A 
ATOM     16  C   UNL     1      -0.285  10.279  18.477  0.00  0.00    +0.000 A 
ATOM     17  C   UNL     1      -0.923  10.563  19.705  0.00  0.00    +0.000 A 
ATOM     18  C   UNL     1      -0.103  10.076  20.704  0.00  0.00    +0.000 A 
ATOM     19  O   UNL     1       1.012   9.501  20.142  0.00  0.00    +0.000 OA
BRANCH  18  20
ATOM     20  C   UNL     1      -0.267  10.094  22.141  0.00  0.00    +0.000 C 
ATOM     21  N   UNL     1      -0.635   8.902  22.703  0.00  0.00    +0.000 N 
ATOM     22  O   UNL     1      -0.101  11.080  22.854  0.00  0.00    +0.000 OA
ATOM     23  H   UNL     1      -0.797   8.086  22.129  0.00  0.00    +0.000 HD
ATOM     24  H   UNL     1      -0.782   8.867  23.701  0.00  0.00    +0.000 HD
ENDBRANCH  18  20
ENDBRANCH  14  15
ENDBRANCH   4  14
TORSDOF 6
ENDMDL
MODEL 5
REMARK VINA RESULT:      -6.8      3.731      7.104
REMARK  Name = 
REMARK  8 active torsions:
REMARK  status: ('A' for Active; 'I' for Inactive)
REMARK    1  A    between atoms: C_1  and  C_2
REMARK    2  A    between atoms: C_2  and  C_3
REMARK    3  A    between atoms: C_2  and  N_4
REMARK    4  A    between atoms: N_4  and  C_5
REMARK    5  A    between atoms: C_5  and  C_6
REMARK    6  A    between atoms: N_12  and  C_13
REMARK    7  A    between atoms: C_13  and  C_14
REMARK    8  A    between atoms: C_17  and  C_18
REMARK                            x       y       z     vdW  Elec       q    Type
REMARK                         _______ _______ _______ _____ _____    ______ ____
ROOT
ATOM      1  N   UNL     1       3.837   5.399  18.711  0.00  0.00    +0.000 N 
ATOM      2  C   UNL     1       3.652   6.609  18.044  0.00  0.00    +0.000 C 
ATOM      3  O   UNL     1       4.375   6.988  17.125  0.00  0.00    +0.000 OA
ATOM      4  N   UNL     1       2.586   7.370  18.445  0.00  0.00    +0.000 N 
ATOM      5  H   UNL     1       2.230   7.255  19.375  0.00  0.00    +0.000 HD
ENDROOT
BRANCH   1   7
ATOM      6  C   UNL     1       5.076   4.129  16.903  0.00  0.00    +0.000 C 
ATOM      7  C   UNL     1       5.020   4.574  18.368  0.00  0.00    +0.000 C 
ATOM      8  C   UNL     1       6.325   5.258  18.789  0.00  0.00    +0.000 C 
ENDBRANCH   1   7
BRANCH   1   9
ATOM      9  C   UNL     1       3.027   4.930  19.847  0.00  0.00    +0.000 C 
BRANCH   9  10
ATOM     10  C   UNL     1       2.408   3.583  19.500  0.00  0.00    +0.000 C 
ATOM     11  C   UNL     1       1.141   3.090  20.262  0.00  0.00    +0.000 C 
ATOM     12  C   UNL     1       0.653   2.505  18.918  0.00  0.00    +0.000 C 
ATOM     13  C   UNL     1       1.500   3.597  18.232  0.00  0.00    +0.000 C 
ENDBRANCH   9  10
ENDBRANCH   1   9
BRANCH   4  14
ATOM     14  C   UNL     1       2.325   8.656  17.830  0.00  0.00    +0.000 C 
BRANCH  14  15
ATOM     15  C   UNL     1       1.166   9.315  18.490  0.00  0.00    +0.000 A 
ATOM     16  C   UNL     1       0.879   9.591  19.810  0.00  0.00    +0.000 A 
ATOM     17  C   UNL     1      -0.350  10.287  19.818  0.00  0.00    +0.000 A 
ATOM     18  C   UNL     1      -0.761  10.390  18.504  0.00  0.00    +0.000 A 
ATOM     19  O   UNL     1       0.166   9.788  17.685  0.00  0.00    +0.000 OA
BRANCH  18  20
ATOM     20  C   UNL     1      -1.942  11.004  17.938  0.00  0.00    +0.000 C 
ATOM     21  N   UNL     1      -1.731  12.187  17.285  0.00  0.00    +0.000 N 
ATOM     22  O   UNL     1      -3.077  10.540  18.009  0.00  0.00    +0.000 OA
ATOM     23  H   UNL     1      -0.807  12.595  17.235  0.00  0.00    +0.000 HD
ATOM     24  H   UNL     1      -2.527  12.666  16.889  0.00  0.00    +0.000 HD
ENDBRANCH  18  20
ENDBRANCH  14  15
ENDBRANCH   4  14
TORSDOF 6
ENDMDL
MODEL 6
REMARK VINA RESULT:      -6.7      1.301      2.947
REMARK  Name = 
REMARK  8 active torsions:
REMARK  status: ('A' for Active; 'I' for Inactive)
REMARK    1  A    between atoms: C_1  and  C_2
REMARK    2  A    between atoms: C_2  and  C_3
REMARK    3  A    between atoms: C_2  and  N_4
REMARK    4  A    between atoms: N_4  and  C_5
REMARK    5  A    between atoms: C_5  and  C_6
REMARK    6  A    between atoms: N_12  and  C_13
REMARK    7  A    between atoms: C_13  and  C_14
REMARK    8  A    between atoms: C_17  and  C_18
REMARK                            x       y       z     vdW  Elec       q    Type
REMARK                         _______ _______ _______ _____ _____    ______ ____
ROOT
ATOM      1  N   UNL     1       3.226   4.248  19.214  0.00  0.00    +0.000 N 
ATOM      2  C   UNL     1       4.543   4.335  18.768  0.00  0.00    +0.000 C 
ATOM      3  O   UNL     1       5.415   3.530  19.087  0.00  0.00    +0.000 OA
ATOM      4  N   UNL     1       4.832   5.365  17.913  0.00  0.00    +0.000 N 
ATOM      5  H   UNL     1       4.258   6.188  17.933  0.00  0.00    +0.000 HD
ENDROOT
BRANCH   1   7
ATOM      6  C   UNL     1       2.120   3.712  21.428  0.00  0.00    +0.000 C 
ATOM      7  C   UNL     1       2.878   3.197  20.200  0.00  0.00    +0.000 C 
ATOM      8  C   UNL     1       2.137   2.029  19.542  0.00  0.00    +0.000 C 
ENDBRANCH   1   7
BRANCH   1   9
ATOM      9  C   UNL     1       2.162   5.217  18.897  0.00  0.00    +0.000 C 
BRANCH   9  10
ATOM     10  C   UNL     1       2.486   6.551  19.554  0.00  0.00    +0.000 C 
ATOM     11  C   UNL     1       2.184   7.882  18.802  0.00  0.00    +0.000 C 
ATOM     12  C   UNL     1       1.774   8.473  20.169  0.00  0.00    +0.000 C 
ATOM     13  C   UNL     1       1.427   7.031  20.594  0.00  0.00    +0.000 C 
ENDBRANCH   9  10
ENDBRANCH   1   9
BRANCH   4  14
ATOM     14  C   UNL     1       6.179   5.554  17.414  0.00  0.00    +0.000 C 
BRANCH  14  15
ATOM     15  C   UNL     1       6.313   4.955  16.059  0.00  0.00    +0.000 A 
ATOM     16  C   UNL     1       5.711   3.871  15.456  0.00  0.00    +0.000 A 
ATOM     17  C   UNL     1       6.199   3.824  14.130  0.00  0.00    +0.000 A 
ATOM     18  C   UNL     1       7.086   4.875  13.993  0.00  0.00    +0.000 A 
ATOM     19  O   UNL     1       7.162   5.568  15.178  0.00  0.00    +0.000 OA
BRANCH  18  20
ATOM     20  C   UNL     1       7.868   5.295  12.851  0.00  0.00    +0.000 C 
ATOM     21  N   UNL     1       8.943   6.090  13.139  0.00  0.00    +0.000 N 
ATOM     22  O   UNL     1       7.630   4.988  11.686  0.00  0.00    +0.000 OA
ATOM     23  H   UNL     1       9.141   6.370  14.090  0.00  0.00    +0.000 HD
ATOM     24  H   UNL     1       9.510   6.426  12.374  0.00  0.00    +0.000 HD
ENDBRANCH  18  20
ENDBRANCH  14  15
ENDBRANCH   4  14
TORSDOF 6
ENDMDL
MODEL 7
REMARK VINA RESULT:      -6.7      3.835      7.171
REMARK  Name = 
REMARK  8 active torsions:
REMARK  status: ('A' for Active; 'I' for Inactive)
REMARK    1  A    between atoms: C_1  and  C_2
REMARK    2  A    between atoms: C_2  and  C_3
REMARK    3  A    between atoms: C_2  and  N_4
REMARK    4  A    between atoms: N_4  and  C_5
REMARK    5  A    between atoms: C_5  and  C_6
REMARK    6  A    between atoms: N_12  and  C_13
REMARK    7  A    between atoms: C_13  and  C_14
REMARK    8  A    between atoms: C_17  and  C_18
REMARK                            x       y       z     vdW  Elec       q    Type
REMARK                         _______ _______ _______ _____ _____    ______ ____
ROOT
ATOM      1  N   UNL     1       3.318   5.410  17.772  0.00  0.00    +0.000 N 
ATOM      2  C   UNL     1       3.455   6.797  17.776  0.00  0.00    +0.000 C 
ATOM      3  O   UNL     1       4.514   7.368  17.527  0.00  0.00    +0.000 OA
ATOM      4  N   UNL     1       2.325   7.522  18.050  0.00  0.00    +0.000 N 
ATOM      5  H   UNL     1       1.591   7.092  18.581  0.00  0.00    +0.000 HD
ENDROOT
BRANCH   1   7
ATOM      6  C   UNL     1       5.359   4.339  18.820  0.00  0.00    +0.000 C 
ATOM      7  C   UNL     1       4.526   4.578  17.557  0.00  0.00    +0.000 C 
ATOM      8  C   UNL     1       4.184   3.257  16.861  0.00  0.00    +0.000 C 
ENDBRANCH   1   7
BRANCH   1   9
ATOM      9  C   UNL     1       2.082   4.684  18.112  0.00  0.00    +0.000 C 
BRANCH   9  10
ATOM     10  C   UNL     1       2.184   4.160  19.538  0.00  0.00    +0.000 C 
ATOM     11  C   UNL     1       1.035   4.441  20.552  0.00  0.00    +0.000 C 
ATOM     12  C   UNL     1       1.278   3.018  21.104  0.00  0.00    +0.000 C 
ATOM     13  C   UNL     1       1.808   2.656  19.701  0.00  0.00    +0.000 C 
ENDBRANCH   9  10
ENDBRANCH   1   9
BRANCH   4  14
ATOM     14  C   UNL     1       2.372   8.969  18.103  0.00  0.00    +0.000 C 
BRANCH  14  15
ATOM     15  C   UNL     1       1.052   9.510  18.527  0.00  0.00    +0.000 A 
ATOM     16  C   UNL     1       0.581   9.977  19.735  0.00  0.00    +0.000 A 
ATOM     17  C   UNL     1      -0.744  10.414  19.510  0.00  0.00    +0.000 A 
ATOM     18  C   UNL     1      -1.022  10.179  18.177  0.00  0.00    +0.000 A 
ATOM     19  O   UNL     1       0.078   9.618  17.571  0.00  0.00    +0.000 OA
BRANCH  18  20
ATOM     20  C   UNL     1      -2.223  10.434  17.413  0.00  0.00    +0.000 C 
ATOM     21  N   UNL     1      -2.176  11.533  16.599  0.00  0.00    +0.000 N 
ATOM     22  O   UNL     1      -3.240   9.747  17.453  0.00  0.00    +0.000 OA
ATOM     23  H   UNL     1      -1.356  12.122  16.570  0.00  0.00    +0.000 HD
ATOM     24  H   UNL     1      -2.997  11.766  16.060  0.00  0.00    +0.000 HD
ENDBRANCH  18  20
ENDBRANCH  14  15
ENDBRANCH   4  14
TORSDOF 6
ENDMDL
MODEL 8
REMARK VINA RESULT:      -6.7      4.079      7.282
REMARK  Name = 
REMARK  8 active torsions:
REMARK  status: ('A' for Active; 'I' for Inactive)
REMARK    1  A    between atoms: C_1  and  C_2
REMARK    2  A    between atoms: C_2  and  C_3
REMARK    3  A    between atoms: C_2  and  N_4
REMARK    4  A    between atoms: N_4  and  C_5
REMARK    5  A    between atoms: C_5  and  C_6
REMARK    6  A    between atoms: N_12  and  C_13
REMARK    7  A    between atoms: C_13  and  C_14
REMARK    8  A    between atoms: C_17  and  C_18
REMARK                            x       y       z     vdW  Elec       q    Type
REMARK                         _______ _______ _______ _____ _____    ______ ____
ROOT
ATOM      1  N   UNL     1       3.334   4.401  19.770  0.00  0.00    +0.000 N 
ATOM      2  C   UNL     1       2.333   5.244  20.248  0.00  0.00    +0.000 C 
ATOM      3  O   UNL     1       1.266   4.832  20.698  0.00  0.00    +0.000 OA
ATOM      4  N   UNL     1       2.602   6.587  20.224  0.00  0.00    +0.000 N 
ATOM      5  H   UNL     1       3.273   6.935  19.566  0.00  0.00    +0.000 HD
ENDROOT
BRANCH   1   7
ATOM      6  C   UNL     1       2.323   2.499  18.438  0.00  0.00    +0.000 C 
ATOM      7  C   UNL     1       3.064   2.945  19.703  0.00  0.00    +0.000 C 
ATOM      8  C   UNL     1       4.341   2.125  19.914  0.00  0.00    +0.000 C 
ENDBRANCH   1   7
BRANCH   1   9
ATOM      9  C   UNL     1       4.606   4.852  19.179  0.00  0.00    +0.000 C 
BRANCH   9  10
ATOM     10  C   UNL     1       4.375   5.239  17.725  0.00  0.00    +0.000 C 
ATOM     11  C   UNL     1       4.919   6.595  17.185  0.00  0.00    +0.000 C 
ATOM     12  C   UNL     1       5.240   5.855  15.868  0.00  0.00    +0.000 C 
ATOM     13  C   UNL     1       5.360   4.572  16.716  0.00  0.00    +0.000 C 
ENDBRANCH   9  10
ENDBRANCH   1   9
BRANCH   4  14
ATOM     14  C   UNL     1       1.614   7.545  20.677  0.00  0.00    +0.000 C 
BRANCH  14  15
ATOM     15  C   UNL     1       1.466   8.640  19.680  0.00  0.00    +0.000 A 
ATOM     16  C   UNL     1       1.890   8.774  18.375  0.00  0.00    +0.000 A 
ATOM     17  C   UNL     1       1.401  10.020  17.919  0.00  0.00    +0.000 A 
ATOM     18  C   UNL     1       0.715  10.591  18.974  0.00  0.00    +0.000 A 
ATOM     19  O   UNL     1       0.758   9.748  20.059  0.00  0.00    +0.000 OA
BRANCH  18  20
ATOM     20  C   UNL     1       0.016  11.854  19.060  0.00  0.00    +0.000 C 
ATOM     21  N   UNL     1      -0.618  12.251  17.915  0.00  0.00    +0.000 N 
ATOM     22  O   UNL     1      -0.037  12.560  20.064  0.00  0.00    +0.000 OA
ATOM     23  H   UNL     1      -0.567  11.694  17.073  0.00  0.00    +0.000 HD
ATOM     24  H   UNL     1      -1.104  13.136  17.918  0.00  0.00    +0.000 HD
ENDBRANCH  18  20
ENDBRANCH  14  15
ENDBRANCH   4  14
TORSDOF 6
ENDMDL
MODEL 9
REMARK VINA RESULT:      -6.6      0.792      1.102
REMARK  Name = 
REMARK  8 active torsions:
REMARK  status: ('A' for Active; 'I' for Inactive)
REMARK    1  A    between atoms: C_1  and  C_2
REMARK    2  A    between atoms: C_2  and  C_3
REMARK    3  A    between atoms: C_2  and  N_4
REMARK    4  A    between atoms: N_4  and  C_5
REMARK    5  A    between atoms: C_5  and  C_6
REMARK    6  A    between atoms: N_12  and  C_13
REMARK    7  A    between atoms: C_13  and  C_14
REMARK    8  A    between atoms: C_17  and  C_18
REMARK                            x       y       z     vdW  Elec       q    Type
REMARK                         _______ _______ _______ _____ _____    ______ ____
ROOT
ATOM      1  N   UNL     1       3.501   5.742  19.010  0.00  0.00    +0.000 N 
ATOM      2  C   UNL     1       4.718   5.842  18.341  0.00  0.00    +0.000 C 
ATOM      3  O   UNL     1       5.034   6.816  17.661  0.00  0.00    +0.000 OA
ATOM      4  N   UNL     1       5.589   4.795  18.496  0.00  0.00    +0.000 N 
ATOM      5  H   UNL     1       5.223   3.892  18.731  0.00  0.00    +0.000 HD
ENDROOT
BRANCH   1   7
ATOM      6  C   UNL     1       2.046   7.500  20.107  0.00  0.00    +0.000 C 
ATOM      7  C   UNL     1       2.493   6.811  18.814  0.00  0.00    +0.000 C 
ATOM      8  C   UNL     1       2.954   7.835  17.772  0.00  0.00    +0.000 C 
ENDBRANCH   1   7
BRANCH   1   9
ATOM      9  C   UNL     1       3.063   4.574  19.793  0.00  0.00    +0.000 C 
BRANCH   9  10
ATOM     10  C   UNL     1       1.862   3.932  19.111  0.00  0.00    +0.000 C 
ATOM     11  C   UNL     1       2.047   2.629  18.278  0.00  0.00    +0.000 C 
ATOM     12  C   UNL     1       0.680   2.171  18.833  0.00  0.00    +0.000 C 
ATOM     13  C   UNL     1       0.970   3.068  20.054  0.00  0.00    +0.000 C 
ENDBRANCH   9  10
ENDBRANCH   1   9
BRANCH   4  14
ATOM     14  C   UNL     1       6.870   4.796  17.819  0.00  0.00    +0.000 C 
BRANCH  14  15
ATOM     15  C   UNL     1       6.687   4.494  16.374  0.00  0.00    +0.000 A 
ATOM     16  C   UNL     1       5.773   3.719  15.692  0.00  0.00    +0.000 A 
ATOM     17  C   UNL     1       6.067   3.862  14.318  0.00  0.00    +0.000 A 
ATOM     18  C   UNL     1       7.156   4.708  14.228  0.00  0.00    +0.000 A 
ATOM     19  O   UNL     1       7.543   5.093  15.490  0.00  0.00    +0.000 OA
BRANCH  18  20
ATOM     20  C   UNL     1       7.869   5.194  13.067  0.00  0.00    +0.000 C 
ATOM     21  N   UNL     1       7.451   4.686  11.868  0.00  0.00    +0.000 N 
ATOM     22  O   UNL     1       8.790   6.006  13.098  0.00  0.00    +0.000 OA
ATOM     23  H   UNL     1       6.709   4.001  11.826  0.00  0.00    +0.000 HD
ATOM     24  H   UNL     1       7.929   4.979  11.029  0.00  0.00    +0.000 HD
ENDBRANCH  18  20
ENDBRANCH  14  15
ENDBRANCH   4  14
TORSDOF 6
ENDMDL
