MODEL 1
REMARK VINA RESULT:      -8.4      0.000      0.000
REMARK  Name = 
REMARK  2 active torsions:
REMARK  status: ('A' for Active; 'I' for Inactive)
REMARK    1  A    between atoms: C_1  and  C_2
REMARK    2  A    between atoms: C_8  and  C_9
REMARK                            x       y       z     vdW  Elec       q    Type
REMARK                         _______ _______ _______ _____ _____    ______ ____
ROOT
ATOM      1  C   UNL     1       5.020   3.256  12.807  0.00  0.00    +0.000 C 
ATOM      2  C   UNL     1       6.002   4.114  13.557  0.00  0.00    +0.000 A 
ATOM      3  C   UNL     1       7.057   4.663  12.958  0.00  0.00    +0.000 A 
ATOM      4  C   UNL     1       8.028   5.529  13.659  0.00  0.00    +0.000 A 
ATOM      5  O   UNL     1       8.977   6.021  13.061  0.00  0.00    +0.000 OA
ATOM      6  O   UNL     1       7.803   5.749  15.011  0.00  0.00    +0.000 OA
ATOM      7  C   UNL     1       6.661   5.234  15.683  0.00  0.00    +0.000 A 
ATOM      8  C   UNL     1       6.477   5.627  17.035  0.00  0.00    +0.000 A 
ATOM      9  C   UNL     1       7.460   6.475  17.783  0.00  0.00    +0.000 C 
ATOM     10  C   UNL     1       5.273   5.176  17.597  0.00  0.00    +0.000 A 
ATOM     11  O   UNL     1       4.759   5.505  18.847  0.00  0.00    +0.000 OA
ATOM     12  C   UNL     1       3.569   4.877  18.897  0.00  0.00    +0.000 A 
ATOM     13  C   UNL     1       3.301   4.153  17.783  0.00  0.00    +0.000 A 
ATOM     14  C   UNL     1       4.377   4.334  16.925  0.00  0.00    +0.000 A 
ATOM     15  C   UNL     1       4.647   3.912  15.625  0.00  0.00    +0.000 A 
ATOM     16  C   UNL     1       5.776   4.407  14.974  0.00  0.00    +0.000 A 
ATOM     17  C   UNL     1       1.970   3.546  17.807  0.00  0.00    +0.000 C 
ATOM     18  C   UNL     1       1.409   4.026  19.191  0.00  0.00    +0.000 C 
ATOM     19  C   UNL     1       2.491   4.947  19.887  0.00  0.00    +0.000 C 
ENDROOT
TORSDOF 0
ENDMDL
MODEL 2
REMARK VINA RESULT:      -7.8      3.207      6.940
REMARK  Name = 
REMARK  2 active torsions:
REMARK  status: ('A' for Active; 'I' for Inactive)
REMARK    1  A    between atoms: C_1  and  C_2
REMARK    2  A    between atoms: C_8  and  C_9
REMARK                            x       y       z     vdW  Elec       q    Type
REMARK                         _______ _______ _______ _____ _____    ______ ____
ROOT
ATOM      1  C   UNL     1       1.842  10.300  17.980  0.00  0.00    +0.000 C 
ATOM      2  C   UNL     1       1.605   9.236  19.016  0.00  0.00    +0.000 A 
ATOM      3  C   UNL     1       0.708   9.388  19.989  0.00  0.00    +0.000 A 
ATOM      4  C   UNL     1       0.434   8.354  21.008  0.00  0.00    +0.000 A 
ATOM      5  O   UNL     1      -0.410   8.537  21.877  0.00  0.00    +0.000 OA
ATOM      6  O   UNL     1       1.176   7.184  20.923  0.00  0.00    +0.000 OA
ATOM      7  C   UNL     1       2.103   6.949  19.871  0.00  0.00    +0.000 A 
ATOM      8  C   UNL     1       2.712   5.667  19.823  0.00  0.00    +0.000 A 
ATOM      9  C   UNL     1       2.481   4.610  20.860  0.00  0.00    +0.000 C 
ATOM     10  C   UNL     1       3.524   5.468  18.696  0.00  0.00    +0.000 A 
ATOM     11  O   UNL     1       4.143   4.283  18.310  0.00  0.00    +0.000 OA
ATOM     12  C   UNL     1       4.750   4.585  17.147  0.00  0.00    +0.000 A 
ATOM     13  C   UNL     1       4.585   5.879  16.780  0.00  0.00    +0.000 A 
ATOM     14  C   UNL     1       3.792   6.470  17.754  0.00  0.00    +0.000 A 
ATOM     15  C   UNL     1       3.232   7.737  17.894  0.00  0.00    +0.000 A 
ATOM     16  C   UNL     1       2.335   7.968  18.936  0.00  0.00    +0.000 A 
ATOM     17  C   UNL     1       5.173   6.177  15.473  0.00  0.00    +0.000 C 
ATOM     18  C   UNL     1       5.771   4.789  15.052  0.00  0.00    +0.000 C 
ATOM     19  C   UNL     1       5.442   3.729  16.180  0.00  0.00    +0.000 C 
ENDROOT
TORSDOF 0
ENDMDL
MODEL 3
REMARK VINA RESULT:      -7.7      3.829      6.144
REMARK  Name = 
REMARK  2 active torsions:
REMARK  status: ('A' for Active; 'I' for Inactive)
REMARK    1  A    between atoms: C_1  and  C_2
REMARK    2  A    between atoms: C_8  and  C_9
REMARK                            x       y       z     vdW  Elec       q    Type
REMARK                         _______ _______ _______ _____ _____    ______ ____
ROOT
ATOM      1  C   UNL     1       1.450   2.777  21.686  0.00  0.00    +0.000 C 
ATOM      2  C   UNL     1       2.228   3.127  20.448  0.00  0.00    +0.000 A 
ATOM      3  C   UNL     1       2.767   2.192  19.667  0.00  0.00    +0.000 A 
ATOM      4  C   UNL     1       3.517   2.501  18.432  0.00  0.00    +0.000 A 
ATOM      5  O   UNL     1       3.985   1.604  17.740  0.00  0.00    +0.000 OA
ATOM      6  O   UNL     1       3.658   3.843  18.108  0.00  0.00    +0.000 OA
ATOM      7  C   UNL     1       3.053   4.875  18.875  0.00  0.00    +0.000 A 
ATOM      8  C   UNL     1       3.166   6.200  18.376  0.00  0.00    +0.000 A 
ATOM      9  C   UNL     1       3.948   6.550  17.147  0.00  0.00    +0.000 C 
ATOM     10  C   UNL     1       2.449   7.149  19.122  0.00  0.00    +0.000 A 
ATOM     11  O   UNL     1       2.264   8.492  18.809  0.00  0.00    +0.000 OA
ATOM     12  C   UNL     1       1.466   8.958  19.788  0.00  0.00    +0.000 A 
ATOM     13  C   UNL     1       1.153   8.018  20.712  0.00  0.00    +0.000 A 
ATOM     14  C   UNL     1       1.765   6.841  20.305  0.00  0.00    +0.000 A 
ATOM     15  C   UNL     1       1.754   5.537  20.794  0.00  0.00    +0.000 A 
ATOM     16  C   UNL     1       2.361   4.530  20.046  0.00  0.00    +0.000 A 
ATOM     17  C   UNL     1       0.215   8.509  21.724  0.00  0.00    +0.000 C 
ATOM     18  C   UNL     1      -0.024   9.990  21.267  0.00  0.00    +0.000 C 
ATOM     19  C   UNL     1       0.802  10.255  19.943  0.00  0.00    +0.000 C 
ENDROOT
TORSDOF 0
ENDMDL
MODEL 4
REMARK VINA RESULT:      -7.7      3.224      5.887
REMARK  Name = 
REMARK  2 active torsions:
REMARK  status: ('A' for Active; 'I' for Inactive)
REMARK    1  A    between atoms: C_1  and  C_2
REMARK    2  A    between atoms: C_8  and  C_9
REMARK                            x       y       z     vdW  Elec       q    Type
REMARK                         _______ _______ _______ _____ _____    ______ ____
ROOT
ATOM      1  C   UNL     1       1.444   3.284  21.549  0.00  0.00    +0.000 C 
ATOM      2  C   UNL     1       2.334   3.212  20.340  0.00  0.00    +0.000 A 
ATOM      3  C   UNL     1       2.785   2.052  19.866  0.00  0.00    +0.000 A 
ATOM      4  C   UNL     1       3.642   1.943  18.667  0.00  0.00    +0.000 A 
ATOM      5  O   UNL     1       4.022   0.851  18.264  0.00  0.00    +0.000 OA
ATOM      6  O   UNL     1       3.984   3.132  18.038  0.00  0.00    +0.000 OA
ATOM      7  C   UNL     1       3.483   4.390  18.469  0.00  0.00    +0.000 A 
ATOM      8  C   UNL     1       3.806   5.520  17.671  0.00  0.00    +0.000 A 
ATOM      9  C   UNL     1       4.700   5.449  16.472  0.00  0.00    +0.000 C 
ATOM     10  C   UNL     1       3.184   6.706  18.092  0.00  0.00    +0.000 A 
ATOM     11  O   UNL     1       3.204   7.936  17.443  0.00  0.00    +0.000 OA
ATOM     12  C   UNL     1       2.421   8.728  18.199  0.00  0.00    +0.000 A 
ATOM     13  C   UNL     1       1.928   8.100  19.294  0.00  0.00    +0.000 A 
ATOM     14  C   UNL     1       2.395   6.794  19.246  0.00  0.00    +0.000 A 
ATOM     15  C   UNL     1       2.176   5.669  20.038  0.00  0.00    +0.000 A 
ATOM     16  C   UNL     1       2.683   4.439  19.620  0.00  0.00    +0.000 A 
ATOM     17  C   UNL     1       1.009   8.940  20.063  0.00  0.00    +0.000 C 
ATOM     18  C   UNL     1       1.002  10.273  19.236  0.00  0.00    +0.000 C 
ATOM     19  C   UNL     1       1.934  10.091  17.969  0.00  0.00    +0.000 C 
ENDROOT
TORSDOF 0
ENDMDL
MODEL 5
REMARK VINA RESULT:      -7.3      4.058      6.545
REMARK  Name = 
REMARK  2 active torsions:
REMARK  status: ('A' for Active; 'I' for Inactive)
REMARK    1  A    between atoms: C_1  and  C_2
REMARK    2  A    between atoms: C_8  and  C_9
REMARK                            x       y       z     vdW  Elec       q    Type
REMARK                         _______ _______ _______ _____ _____    ______ ____
ROOT
ATOM      1  C   UNL     1       1.948   3.476  21.600  0.00  0.00    +0.000 C 
ATOM      2  C   UNL     1       2.403   4.122  20.320  0.00  0.00    +0.000 A 
ATOM      3  C   UNL     1       2.919   3.412  19.318  0.00  0.00    +0.000 A 
ATOM      4  C   UNL     1       3.355   4.011  18.040  0.00  0.00    +0.000 A 
ATOM      5  O   UNL     1       3.813   3.314  17.143  0.00  0.00    +0.000 OA
ATOM      6  O   UNL     1       3.216   5.387  17.918  0.00  0.00    +0.000 OA
ATOM      7  C   UNL     1       2.619   6.181  18.934  0.00  0.00    +0.000 A 
ATOM      8  C   UNL     1       2.422   7.558  18.644  0.00  0.00    +0.000 A 
ATOM      9  C   UNL     1       2.883   8.202  17.373  0.00  0.00    +0.000 C 
ATOM     10  C   UNL     1       1.725   8.253  19.644  0.00  0.00    +0.000 A 
ATOM     11  O   UNL     1       1.273   9.567  19.588  0.00  0.00    +0.000 OA
ATOM     12  C   UNL     1       0.619   9.747  20.751  0.00  0.00    +0.000 A 
ATOM     13  C   UNL     1       0.644   8.654  21.552  0.00  0.00    +0.000 A 
ATOM     14  C   UNL     1       1.342   7.673  20.861  0.00  0.00    +0.000 A 
ATOM     15  C   UNL     1       1.633   6.337  21.127  0.00  0.00    +0.000 A 
ATOM     16  C   UNL     1       2.233   5.565  20.134  0.00  0.00    +0.000 A 
ATOM     17  C   UNL     1      -0.142   8.828  22.774  0.00  0.00    +0.000 C 
ATOM     18  C   UNL     1      -0.696  10.286  22.610  0.00  0.00    +0.000 C 
ATOM     19  C   UNL     1      -0.198  10.868  21.226  0.00  0.00    +0.000 C 
ENDROOT
TORSDOF 0
ENDMDL
MODEL 6
REMARK VINA RESULT:      -7.2      4.397      6.999
REMARK  Name = 
REMARK  2 active torsions:
REMARK  status: ('A' for Active; 'I' for Inactive)
REMARK    1  A    between atoms: C_1  and  C_2
REMARK    2  A    between atoms: C_8  and  C_9
REMARK                            x       y       z     vdW  Elec       q    Type
REMARK                         _______ _______ _______ _____ _____    ______ ____
ROOT
ATOM      1  C   UNL     1       2.185   4.365  21.492  0.00  0.00    +0.000 C 
ATOM      2  C   UNL     1       2.460   5.123  20.223  0.00  0.00    +0.000 A 
ATOM      3  C   UNL     1       2.974   4.531  19.147  0.00  0.00    +0.000 A 
ATOM      4  C   UNL     1       3.235   5.241  17.877  0.00  0.00    +0.000 A 
ATOM      5  O   UNL     1       3.699   4.648  16.910  0.00  0.00    +0.000 OA
ATOM      6  O   UNL     1       2.928   6.593  17.846  0.00  0.00    +0.000 OA
ATOM      7  C   UNL     1       2.323   7.259  18.947  0.00  0.00    +0.000 A 
ATOM      8  C   UNL     1       1.945   8.614  18.753  0.00  0.00    +0.000 A 
ATOM      9  C   UNL     1       2.226   9.371  17.491  0.00  0.00    +0.000 C 
ATOM     10  C   UNL     1       1.252   9.170  19.839  0.00  0.00    +0.000 A 
ATOM     11  O   UNL     1       0.648  10.421  19.893  0.00  0.00    +0.000 OA
ATOM     12  C   UNL     1       0.071  10.464  21.109  0.00  0.00    +0.000 A 
ATOM     13  C   UNL     1       0.286   9.344  21.840  0.00  0.00    +0.000 A 
ATOM     14  C   UNL     1       1.038   8.489  21.045  0.00  0.00    +0.000 A 
ATOM     15  C   UNL     1       1.502   7.186  21.212  0.00  0.00    +0.000 A 
ATOM     16  C   UNL     1       2.108   6.542  20.134  0.00  0.00    +0.000 A 
ATOM     17  C   UNL     1      -0.416   9.361  23.125  0.00  0.00    +0.000 C 
ATOM     18  C   UNL     1      -1.148  10.747  23.086  0.00  0.00    +0.000 C 
ATOM     19  C   UNL     1      -0.831  11.453  21.706  0.00  0.00    +0.000 C 
ENDROOT
TORSDOF 0
ENDMDL
MODEL 7
REMARK VINA RESULT:      -6.9      4.490      7.145
REMARK  Name = 
REMARK  2 active torsions:
REMARK  status: ('A' for Active; 'I' for Inactive)
REMARK    1  A    between atoms: C_1  and  C_2
REMARK    2  A    between atoms: C_8  and  C_9
REMARK                            x       y       z     vdW  Elec       q    Type
REMARK                         _______ _______ _______ _____ _____    ______ ____
ROOT
ATOM      1  C   UNL     1      -0.305   8.899  22.363  0.00  0.00    +0.000 C 
ATOM      2  C   UNL     1       0.430   9.200  21.086  0.00  0.00    +0.000 A 
ATOM      3  C   UNL     1       0.502  10.434  20.589  0.00  0.00    +0.000 A 
ATOM      4  C   UNL     1       1.235  10.768  19.350  0.00  0.00    +0.000 A 
ATOM      5  O   UNL     1       1.282  11.922  18.940  0.00  0.00    +0.000 OA
ATOM      6  O   UNL     1       1.855   9.716  18.692  0.00  0.00    +0.000 OA
ATOM      7  C   UNL     1       1.857   8.393  19.210  0.00  0.00    +0.000 A 
ATOM      8  C   UNL     1       2.628   7.427  18.509  0.00  0.00    +0.000 A 
ATOM      9  C   UNL     1       3.353   7.726  17.233  0.00  0.00    +0.000 C 
ATOM     10  C   UNL     1       2.676   6.175  19.141  0.00  0.00    +0.000 A 
ATOM     11  O   UNL     1       3.447   5.079  18.767  0.00  0.00    +0.000 OA
ATOM     12  C   UNL     1       3.192   4.152  19.709  0.00  0.00    +0.000 A 
ATOM     13  C   UNL     1       2.297   4.567  20.638  0.00  0.00    +0.000 A 
ATOM     14  C   UNL     1       1.953   5.870  20.302  0.00  0.00    +0.000 A 
ATOM     15  C   UNL     1       1.147   6.833  20.904  0.00  0.00    +0.000 A 
ATOM     16  C   UNL     1       1.136   8.126  20.384  0.00  0.00    +0.000 A 
ATOM     17  C   UNL     1       2.091   3.588  21.706  0.00  0.00    +0.000 C 
ATOM     18  C   UNL     1       3.050   2.422  21.279  0.00  0.00    +0.000 C 
ATOM     19  C   UNL     1       3.804   2.842  19.952  0.00  0.00    +0.000 C 
ENDROOT
TORSDOF 0
ENDMDL
MODEL 8
REMARK VINA RESULT:      -6.7      8.250     10.325
REMARK  Name = 
REMARK  2 active torsions:
REMARK  status: ('A' for Active; 'I' for Inactive)
REMARK    1  A    between atoms: C_1  and  C_2
REMARK    2  A    between atoms: C_8  and  C_9
REMARK                            x       y       z     vdW  Elec       q    Type
REMARK                         _______ _______ _______ _____ _____    ______ ____
ROOT
ATOM      1  C   UNL     1       9.108   9.696  18.973  0.00  0.00    +0.000 C 
ATOM      2  C   UNL     1       9.742  11.056  18.883  0.00  0.00    +0.000 A 
ATOM      3  C   UNL     1      10.287  11.505  17.754  0.00  0.00    +0.000 A 
ATOM      4  C   UNL     1      10.897  12.845  17.624  0.00  0.00    +0.000 A 
ATOM      5  O   UNL     1      11.375  13.217  16.559  0.00  0.00    +0.000 OA
ATOM      6  O   UNL     1      10.894  13.642  18.760  0.00  0.00    +0.000 OA
ATOM      7  C   UNL     1      10.274  13.234  19.972  0.00  0.00    +0.000 A 
ATOM      8  C   UNL     1      10.230  14.184  21.026  0.00  0.00    +0.000 A 
ATOM      9  C   UNL     1      10.868  15.536  20.938  0.00  0.00    +0.000 C 
ATOM     10  C   UNL     1       9.504  13.753  22.147  0.00  0.00    +0.000 A 
ATOM     11  O   UNL     1       9.179  14.504  23.272  0.00  0.00    +0.000 OA
ATOM     12  C   UNL     1       8.434  13.674  24.026  0.00  0.00    +0.000 A 
ATOM     13  C   UNL     1       8.284  12.444  23.476  0.00  0.00    +0.000 A 
ATOM     14  C   UNL     1       8.955  12.469  22.262  0.00  0.00    +0.000 A 
ATOM     15  C   UNL     1       9.097  11.546  21.227  0.00  0.00    +0.000 A 
ATOM     16  C   UNL     1       9.720  11.947  20.046  0.00  0.00    +0.000 A 
ATOM     17  C   UNL     1       7.401  11.577  24.258  0.00  0.00    +0.000 C 
ATOM     18  C   UNL     1       6.997  12.505  25.457  0.00  0.00    +0.000 C 
ATOM     19  C   UNL     1       7.678  13.920  25.258  0.00  0.00    +0.000 C 
ENDROOT
TORSDOF 0
ENDMDL
MODEL 9
REMARK VINA RESULT:      -6.7      3.668      5.691
REMARK  Name = 
REMARK  2 active torsions:
REMARK  status: ('A' for Active; 'I' for Inactive)
REMARK    1  A    between atoms: C_1  and  C_2
REMARK    2  A    between atoms: C_8  and  C_9
REMARK                            x       y       z     vdW  Elec       q    Type
REMARK                         _______ _______ _______ _____ _____    ______ ____
ROOT
ATOM      1  C   UNL     1       5.253   6.332  15.906  0.00  0.00    +0.000 C 
ATOM      2  C   UNL     1       4.683   5.628  17.106  0.00  0.00    +0.000 A 
ATOM      3  C   UNL     1       5.119   4.429  17.492  0.00  0.00    +0.000 A 
ATOM      4  C   UNL     1       4.597   3.720  18.678  0.00  0.00    +0.000 A 
ATOM      5  O   UNL     1       5.039   2.623  18.999  0.00  0.00    +0.000 OA
ATOM      6  O   UNL     1       3.595   4.359  19.395  0.00  0.00    +0.000 OA
ATOM      7  C   UNL     1       3.136   5.662  19.059  0.00  0.00    +0.000 A 
ATOM      8  C   UNL     1       2.194   6.260  19.938  0.00  0.00    +0.000 A 
ATOM      9  C   UNL     1       1.620   5.555  21.129  0.00  0.00    +0.000 C 
ATOM     10  C   UNL     1       1.875   7.587  19.608  0.00  0.00    +0.000 A 
ATOM     11  O   UNL     1       1.091   8.466  20.347  0.00  0.00    +0.000 OA
ATOM     12  C   UNL     1       1.133   9.619  19.652  0.00  0.00    +0.000 A 
ATOM     13  C   UNL     1       1.863   9.529  18.515  0.00  0.00    +0.000 A 
ATOM     14  C   UNL     1       2.360   8.234  18.464  0.00  0.00    +0.000 A 
ATOM     15  C   UNL     1       3.220   7.571  17.591  0.00  0.00    +0.000 A 
ATOM     16  C   UNL     1       3.655   6.287  17.916  0.00  0.00    +0.000 A 
ATOM     17  C   UNL     1       1.977  10.807  17.811  0.00  0.00    +0.000 C 
ATOM     18  C   UNL     1       1.155  11.771  18.735  0.00  0.00    +0.000 C 
ATOM     19  C   UNL     1       0.628  10.954  19.984  0.00  0.00    +0.000 C 
ENDROOT
TORSDOF 0
ENDMDL
