MODEL 1
REMARK VINA RESULT:      -6.2      0.000      0.000
REMARK  Name = 
REMARK  14 active torsions:
REMARK  status: ('A' for Active; 'I' for Inactive)
REMARK    1  A    between atoms: C_1  and  C_2
REMARK    2  A    between atoms: C_2  and  C_3
REMARK    3  A    between atoms: C_4  and  C_5
REMARK    4  A    between atoms: C_5  and  C_6
REMARK    5  A    between atoms: C_6  and  C_7
REMARK    6  A    between atoms: C_7  and  C_8
REMARK    7  A    between atoms: C_9  and  C_10
REMARK    8  A    between atoms: C_10  and  C_11
REMARK    9  A    between atoms: C_11  and  C_12
REMARK   10  A    between atoms: C_12  and  C_13
REMARK   11  A    between atoms: C_14  and  C_15
REMARK   12  A    between atoms: C_15  and  S_16
REMARK   13  A    between atoms: S_16  and  C_17
REMARK   14  A    between atoms: C_17  and  C_18
REMARK                            x       y       z     vdW  Elec       q    Type
REMARK                         _______ _______ _______ _____ _____    ______ ____
ROOT
ATOM      1  C   UNL     1       6.434   5.182  15.382  0.00  0.00    +0.000 C 
ENDROOT
BRANCH   1   4
ATOM      2  C   UNL     1       6.695   4.153  13.109  0.00  0.00    +0.000 C 
ATOM      3  C   UNL     1       7.841   5.097  12.827  0.00  0.00    +0.000 C 
ATOM      4  C   UNL     1       6.055   4.207  14.297  0.00  0.00    +0.000 C 
BRANCH   2   5
ATOM      5  C   UNL     1       6.244   3.152  12.056  0.00  0.00    +0.000 C 
BRANCH   5   6
ATOM      6  C   UNL     1       4.730   3.025  11.857  0.00  0.00    +0.000 C 
BRANCH   6  10
ATOM      7  C   UNL     1       2.607   4.828   9.134  0.00  0.00    +0.000 C 
ATOM      8  C   UNL     1       3.144   3.740  10.019  0.00  0.00    +0.000 C 
ATOM      9  C   UNL     1       2.495   2.386   9.921  0.00  0.00    +0.000 C 
ATOM     10  C   UNL     1       4.171   3.995  10.854  0.00  0.00    +0.000 C 
ENDBRANCH   6  10
ENDBRANCH   5   6
ENDBRANCH   2   5
ENDBRANCH   1   4
BRANCH   1  11
ATOM     11  C   UNL     1       5.245   5.812  16.114  0.00  0.00    +0.000 C 
BRANCH  11  12
ATOM     12  C   UNL     1       4.868   5.011  17.349  0.00  0.00    +0.000 C 
ATOM     13  C   UNL     1       5.908   4.910  18.436  0.00  0.00    +0.000 C 
ATOM     14  C   UNL     1       3.655   4.431  17.461  0.00  0.00    +0.000 C 
BRANCH  14  15
ATOM     15  C   UNL     1       3.205   3.577  18.609  0.00  0.00    +0.000 C 
BRANCH  15  16
ATOM     16  S   UNL     1       2.337   4.562  19.875  0.00  0.00    +0.000 S 
BRANCH  16  17
ATOM     17  C   UNL     1       1.072   3.373  20.418  0.00  0.00    +0.000 C 
BRANCH  17  18
ATOM     18  C   UNL     1       1.551   2.587  21.606  0.00  0.00    +0.000 C 
ATOM     19  O   UNL     1       2.703   2.611  22.018  0.00  0.00    +0.000 OA
ENDBRANCH  17  18
ENDBRANCH  16  17
ENDBRANCH  15  16
ENDBRANCH  14  15
ENDBRANCH  11  12
ENDBRANCH   1  11
TORSDOF 10
ENDMDL
MODEL 2
REMARK VINA RESULT:      -6.2      1.785      3.291
REMARK  Name = 
REMARK  14 active torsions:
REMARK  status: ('A' for Active; 'I' for Inactive)
REMARK    1  A    between atoms: C_1  and  C_2
REMARK    2  A    between atoms: C_2  and  C_3
REMARK    3  A    between atoms: C_4  and  C_5
REMARK    4  A    between atoms: C_5  and  C_6
REMARK    5  A    between atoms: C_6  and  C_7
REMARK    6  A    between atoms: C_7  and  C_8
REMARK    7  A    between atoms: C_9  and  C_10
REMARK    8  A    between atoms: C_10  and  C_11
REMARK    9  A    between atoms: C_11  and  C_12
REMARK   10  A    between atoms: C_12  and  C_13
REMARK   11  A    between atoms: C_14  and  C_15
REMARK   12  A    between atoms: C_15  and  S_16
REMARK   13  A    between atoms: S_16  and  C_17
REMARK   14  A    between atoms: C_17  and  C_18
REMARK                            x       y       z     vdW  Elec       q    Type
REMARK                         _______ _______ _______ _____ _____    ______ ____
ROOT
ATOM      1  C   UNL     1       4.460   6.190  17.859  0.00  0.00    +0.000 C 
ENDROOT
BRANCH   1   4
ATOM      2  C   UNL     1       5.811   4.910  16.176  0.00  0.00    +0.000 C 
ATOM      3  C   UNL     1       6.998   5.796  16.473  0.00  0.00    +0.000 C 
ATOM      4  C   UNL     1       4.644   5.108  16.827  0.00  0.00    +0.000 C 
BRANCH   2   5
ATOM      5  C   UNL     1       5.915   3.806  15.135  0.00  0.00    +0.000 C 
BRANCH   5   6
ATOM      6  C   UNL     1       6.235   4.260  13.707  0.00  0.00    +0.000 C 
BRANCH   6  10
ATOM      7  C   UNL     1       6.329   1.590  10.872  0.00  0.00    +0.000 C 
ATOM      8  C   UNL     1       5.811   2.654  11.797  0.00  0.00    +0.000 C 
ATOM      9  C   UNL     1       4.405   3.139  11.575  0.00  0.00    +0.000 C 
ATOM     10  C   UNL     1       6.598   3.131  12.783  0.00  0.00    +0.000 C 
ENDBRANCH   6  10
ENDBRANCH   5   6
ENDBRANCH   2   5
ENDBRANCH   1   4
BRANCH   1  11
ATOM     11  C   UNL     1       3.008   6.633  18.065  0.00  0.00    +0.000 C 
BRANCH  11  12
ATOM     12  C   UNL     1       2.166   5.510  18.649  0.00  0.00    +0.000 C 
ATOM     13  C   UNL     1       1.445   4.623  17.667  0.00  0.00    +0.000 C 
ATOM     14  C   UNL     1       2.085   5.319  19.982  0.00  0.00    +0.000 C 
BRANCH  14  15
ATOM     15  C   UNL     1       1.243   4.279  20.659  0.00  0.00    +0.000 C 
BRANCH  15  16
ATOM     16  S   UNL     1       2.264   2.920  21.321  0.00  0.00    +0.000 S 
BRANCH  16  17
ATOM     17  C   UNL     1       2.637   2.005  19.794  0.00  0.00    +0.000 C 
BRANCH  17  18
ATOM     18  C   UNL     1       4.089   2.140  19.431  0.00  0.00    +0.000 C 
ATOM     19  O   UNL     1       4.996   2.168  20.251  0.00  0.00    +0.000 OA
ENDBRANCH  17  18
ENDBRANCH  16  17
ENDBRANCH  15  16
ENDBRANCH  14  15
ENDBRANCH  11  12
ENDBRANCH   1  11
TORSDOF 10
ENDMDL
MODEL 3
REMARK VINA RESULT:      -6.1      1.619      2.716
REMARK  Name = 
REMARK  14 active torsions:
REMARK  status: ('A' for Active; 'I' for Inactive)
REMARK    1  A    between atoms: C_1  and  C_2
REMARK    2  A    between atoms: C_2  and  C_3
REMARK    3  A    between atoms: C_4  and  C_5
REMARK    4  A    between atoms: C_5  and  C_6
REMARK    5  A    between atoms: C_6  and  C_7
REMARK    6  A    between atoms: C_7  and  C_8
REMARK    7  A    between atoms: C_9  and  C_10
REMARK    8  A    between atoms: C_10  and  C_11
REMARK    9  A    between atoms: C_11  and  C_12
REMARK   10  A    between atoms: C_12  and  C_13
REMARK   11  A    between atoms: C_14  and  C_15
REMARK   12  A    between atoms: C_15  and  S_16
REMARK   13  A    between atoms: S_16  and  C_17
REMARK   14  A    between atoms: C_17  and  C_18
REMARK                            x       y       z     vdW  Elec       q    Type
REMARK                         _______ _______ _______ _____ _____    ______ ____
ROOT
ATOM      1  C   UNL     1       6.869   6.384  17.966  0.00  0.00    +0.000 C 
ENDROOT
BRANCH   1   4
ATOM      2  C   UNL     1       6.407   5.668  15.607  0.00  0.00    +0.000 C 
ATOM      3  C   UNL     1       5.086   6.400  15.656  0.00  0.00    +0.000 C 
ATOM      4  C   UNL     1       7.219   5.671  16.685  0.00  0.00    +0.000 C 
BRANCH   2   5
ATOM      5  C   UNL     1       6.823   4.911  14.353  0.00  0.00    +0.000 C 
BRANCH   5   6
ATOM      6  C   UNL     1       6.000   3.661  14.022  0.00  0.00    +0.000 C 
BRANCH   6  10
ATOM      7  C   UNL     1       3.785   3.370  10.831  0.00  0.00    +0.000 C 
ATOM      8  C   UNL     1       4.898   3.122  11.809  0.00  0.00    +0.000 C 
ATOM      9  C   UNL     1       5.873   2.025  11.482  0.00  0.00    +0.000 C 
ATOM     10  C   UNL     1       4.997   3.874  12.923  0.00  0.00    +0.000 C 
ENDBRANCH   6  10
ENDBRANCH   5   6
ENDBRANCH   2   5
ENDBRANCH   1   4
BRANCH   1  11
ATOM     11  C   UNL     1       6.571   5.457  19.149  0.00  0.00    +0.000 C 
BRANCH  11  12
ATOM     12  C   UNL     1       5.145   4.935  19.096  0.00  0.00    +0.000 C 
ATOM     13  C   UNL     1       4.043   5.962  19.169  0.00  0.00    +0.000 C 
ATOM     14  C   UNL     1       4.889   3.616  18.977  0.00  0.00    +0.000 C 
BRANCH  14  15
ATOM     15  C   UNL     1       3.523   2.995  18.971  0.00  0.00    +0.000 C 
BRANCH  15  16
ATOM     16  S   UNL     1       2.955   2.614  20.662  0.00  0.00    +0.000 S 
BRANCH  16  17
ATOM     17  C   UNL     1       1.509   3.712  20.786  0.00  0.00    +0.000 C 
BRANCH  17  18
ATOM     18  C   UNL     1       0.577   3.501  19.627  0.00  0.00    +0.000 C 
ATOM     19  O   UNL     1       0.417   2.424  19.068  0.00  0.00    +0.000 OA
ENDBRANCH  17  18
ENDBRANCH  16  17
ENDBRANCH  15  16
ENDBRANCH  14  15
ENDBRANCH  11  12
ENDBRANCH   1  11
TORSDOF 10
ENDMDL
MODEL 4
REMARK VINA RESULT:      -6.0      1.474      2.662
REMARK  Name = 
REMARK  14 active torsions:
REMARK  status: ('A' for Active; 'I' for Inactive)
REMARK    1  A    between atoms: C_1  and  C_2
REMARK    2  A    between atoms: C_2  and  C_3
REMARK    3  A    between atoms: C_4  and  C_5
REMARK    4  A    between atoms: C_5  and  C_6
REMARK    5  A    between atoms: C_6  and  C_7
REMARK    6  A    between atoms: C_7  and  C_8
REMARK    7  A    between atoms: C_9  and  C_10
REMARK    8  A    between atoms: C_10  and  C_11
REMARK    9  A    between atoms: C_11  and  C_12
REMARK   10  A    between atoms: C_12  and  C_13
REMARK   11  A    between atoms: C_14  and  C_15
REMARK   12  A    between atoms: C_15  and  S_16
REMARK   13  A    between atoms: S_16  and  C_17
REMARK   14  A    between atoms: C_17  and  C_18
REMARK                            x       y       z     vdW  Elec       q    Type
REMARK                         _______ _______ _______ _____ _____    ______ ____
ROOT
ATOM      1  C   UNL     1       7.074   5.930  17.614  0.00  0.00    +0.000 C 
ENDROOT
BRANCH   1   4
ATOM      2  C   UNL     1       5.812   5.262  15.552  0.00  0.00    +0.000 C 
ATOM      3  C   UNL     1       5.082   6.584  15.584  0.00  0.00    +0.000 C 
ATOM      4  C   UNL     1       6.731   4.976  16.499  0.00  0.00    +0.000 C 
BRANCH   2   5
ATOM      5  C   UNL     1       5.508   4.240  14.466  0.00  0.00    +0.000 C 
BRANCH   5   6
ATOM      6  C   UNL     1       6.415   4.285  13.231  0.00  0.00    +0.000 C 
BRANCH   6  10
ATOM      7  C   UNL     1       5.943   1.171  10.938  0.00  0.00    +0.000 C 
ATOM      8  C   UNL     1       5.651   2.459  11.653  0.00  0.00    +0.000 C 
ATOM      9  C   UNL     1       4.342   3.137  11.351  0.00  0.00    +0.000 C 
ATOM     10  C   UNL     1       6.543   2.961  12.530  0.00  0.00    +0.000 C 
ENDBRANCH   6  10
ENDBRANCH   5   6
ENDBRANCH   2   5
ENDBRANCH   1   4
BRANCH   1  11
ATOM     11  C   UNL     1       6.607   5.481  19.003  0.00  0.00    +0.000 C 
BRANCH  11  12
ATOM     12  C   UNL     1       5.138   5.094  18.993  0.00  0.00    +0.000 C 
ATOM     13  C   UNL     1       4.821   3.628  19.143  0.00  0.00    +0.000 C 
ATOM     14  C   UNL     1       4.171   6.028  18.868  0.00  0.00    +0.000 C 
BRANCH  14  15
ATOM     15  C   UNL     1       2.700   5.747  18.792  0.00  0.00    +0.000 C 
BRANCH  15  16
ATOM     16  S   UNL     1       1.958   5.621  20.454  0.00  0.00    +0.000 S 
BRANCH  16  17
ATOM     17  C   UNL     1       1.449   3.875  20.464  0.00  0.00    +0.000 C 
BRANCH  17  18
ATOM     18  C   UNL     1       1.720   3.246  21.802  0.00  0.00    +0.000 C 
ATOM     19  O   UNL     1       1.886   2.045  21.969  0.00  0.00    +0.000 OA
ENDBRANCH  17  18
ENDBRANCH  16  17
ENDBRANCH  15  16
ENDBRANCH  14  15
ENDBRANCH  11  12
ENDBRANCH   1  11
TORSDOF 10
ENDMDL
MODEL 5
REMARK VINA RESULT:      -5.9      3.537      4.583
REMARK  Name = 
REMARK  14 active torsions:
REMARK  status: ('A' for Active; 'I' for Inactive)
REMARK    1  A    between atoms: C_1  and  C_2
REMARK    2  A    between atoms: C_2  and  C_3
REMARK    3  A    between atoms: C_4  and  C_5
REMARK    4  A    between atoms: C_5  and  C_6
REMARK    5  A    between atoms: C_6  and  C_7
REMARK    6  A    between atoms: C_7  and  C_8
REMARK    7  A    between atoms: C_9  and  C_10
REMARK    8  A    between atoms: C_10  and  C_11
REMARK    9  A    between atoms: C_11  and  C_12
REMARK   10  A    between atoms: C_12  and  C_13
REMARK   11  A    between atoms: C_14  and  C_15
REMARK   12  A    between atoms: C_15  and  S_16
REMARK   13  A    between atoms: S_16  and  C_17
REMARK   14  A    between atoms: C_17  and  C_18
REMARK                            x       y       z     vdW  Elec       q    Type
REMARK                         _______ _______ _______ _____ _____    ______ ____
ROOT
ATOM      1  C   UNL     1       5.672   4.944  18.492  0.00  0.00    +0.000 C 
ENDROOT
BRANCH   1   4
ATOM      2  C   UNL     1       6.017   5.410  16.051  0.00  0.00    +0.000 C 
ATOM      3  C   UNL     1       5.161   6.649  16.179  0.00  0.00    +0.000 C 
ATOM      4  C   UNL     1       6.243   4.633  17.133  0.00  0.00    +0.000 C 
BRANCH   2   5
ATOM      5  C   UNL     1       6.616   5.022  14.707  0.00  0.00    +0.000 C 
BRANCH   5   6
ATOM      6  C   UNL     1       6.148   3.683  14.127  0.00  0.00    +0.000 C 
BRANCH   6  10
ATOM      7  C   UNL     1       3.972   3.246  10.926  0.00  0.00    +0.000 C 
ATOM      8  C   UNL     1       5.099   3.080  11.904  0.00  0.00    +0.000 C 
ATOM      9  C   UNL     1       6.163   2.072  11.568  0.00  0.00    +0.000 C 
ATOM     10  C   UNL     1       5.133   3.825  13.028  0.00  0.00    +0.000 C 
ENDBRANCH   6  10
ENDBRANCH   5   6
ENDBRANCH   2   5
ENDBRANCH   1   4
BRANCH   1  11
ATOM     11  C   UNL     1       4.358   4.224  18.810  0.00  0.00    +0.000 C 
BRANCH  11  12
ATOM     12  C   UNL     1       3.180   5.183  18.774  0.00  0.00    +0.000 C 
ATOM     13  C   UNL     1       1.941   4.709  18.058  0.00  0.00    +0.000 C 
ATOM     14  C   UNL     1       3.246   6.392  19.369  0.00  0.00    +0.000 C 
BRANCH  14  15
ATOM     15  C   UNL     1       2.163   7.430  19.346  0.00  0.00    +0.000 C 
BRANCH  15  16
ATOM     16  S   UNL     1       2.344   8.551  17.917  0.00  0.00    +0.000 S 
BRANCH  16  17
ATOM     17  C   UNL     1       0.893   9.623  18.145  0.00  0.00    +0.000 C 
BRANCH  17  18
ATOM     18  C   UNL     1       1.292  10.944  18.739  0.00  0.00    +0.000 C 
ATOM     19  O   UNL     1       2.195  11.644  18.300  0.00  0.00    +0.000 OA
ENDBRANCH  17  18
ENDBRANCH  16  17
ENDBRANCH  15  16
ENDBRANCH  14  15
ENDBRANCH  11  12
ENDBRANCH   1  11
TORSDOF 10
ENDMDL
MODEL 6
REMARK VINA RESULT:      -5.9      1.939      3.143
REMARK  Name = 
REMARK  14 active torsions:
REMARK  status: ('A' for Active; 'I' for Inactive)
REMARK    1  A    between atoms: C_1  and  C_2
REMARK    2  A    between atoms: C_2  and  C_3
REMARK    3  A    between atoms: C_4  and  C_5
REMARK    4  A    between atoms: C_5  and  C_6
REMARK    5  A    between atoms: C_6  and  C_7
REMARK    6  A    between atoms: C_7  and  C_8
REMARK    7  A    between atoms: C_9  and  C_10
REMARK    8  A    between atoms: C_10  and  C_11
REMARK    9  A    between atoms: C_11  and  C_12
REMARK   10  A    between atoms: C_12  and  C_13
REMARK   11  A    between atoms: C_14  and  C_15
REMARK   12  A    between atoms: C_15  and  S_16
REMARK   13  A    between atoms: S_16  and  C_17
REMARK   14  A    between atoms: C_17  and  C_18
REMARK                            x       y       z     vdW  Elec       q    Type
REMARK                         _______ _______ _______ _____ _____    ______ ____
ROOT
ATOM      1  C   UNL     1       6.225   5.994  18.224  0.00  0.00    +0.000 C 
ENDROOT
BRANCH   1   4
ATOM      2  C   UNL     1       6.298   5.363  15.798  0.00  0.00    +0.000 C 
ATOM      3  C   UNL     1       5.233   6.395  15.509  0.00  0.00    +0.000 C 
ATOM      4  C   UNL     1       6.745   5.191  17.060  0.00  0.00    +0.000 C 
BRANCH   2   5
ATOM      5  C   UNL     1       6.861   4.501  14.676  0.00  0.00    +0.000 C 
BRANCH   5   6
ATOM      6  C   UNL     1       5.916   4.235  13.499  0.00  0.00    +0.000 C 
BRANCH   6  10
ATOM      7  C   UNL     1       6.078   1.348  10.889  0.00  0.00    +0.000 C 
ATOM      8  C   UNL     1       5.558   2.517  11.675  0.00  0.00    +0.000 C 
ATOM      9  C   UNL     1       4.227   3.087  11.268  0.00  0.00    +0.000 C 
ATOM     10  C   UNL     1       6.277   3.012  12.703  0.00  0.00    +0.000 C 
ENDBRANCH   6  10
ENDBRANCH   5   6
ENDBRANCH   2   5
ENDBRANCH   1   4
BRANCH   1  11
ATOM     11  C   UNL     1       5.592   5.159  19.342  0.00  0.00    +0.000 C 
BRANCH  11  12
ATOM     12  C   UNL     1       4.093   5.388  19.422  0.00  0.00    +0.000 C 
ATOM     13  C   UNL     1       3.514   6.423  18.491  0.00  0.00    +0.000 C 
ATOM     14  C   UNL     1       3.324   4.684  20.279  0.00  0.00    +0.000 C 
BRANCH  14  15
ATOM     15  C   UNL     1       1.848   4.872  20.474  0.00  0.00    +0.000 C 
BRANCH  15  16
ATOM     16  S   UNL     1       0.916   3.383  19.981  0.00  0.00    +0.000 S 
BRANCH  16  17
ATOM     17  C   UNL     1       2.280   2.226  19.650  0.00  0.00    +0.000 C 
BRANCH  17  18
ATOM     18  C   UNL     1       2.488   2.052  18.172  0.00  0.00    +0.000 C 
ATOM     19  O   UNL     1       3.589   1.994  17.641  0.00  0.00    +0.000 OA
ENDBRANCH  17  18
ENDBRANCH  16  17
ENDBRANCH  15  16
ENDBRANCH  14  15
ENDBRANCH  11  12
ENDBRANCH   1  11
TORSDOF 10
ENDMDL
MODEL 7
REMARK VINA RESULT:      -5.8      3.316      4.299
REMARK  Name = 
REMARK  14 active torsions:
REMARK  status: ('A' for Active; 'I' for Inactive)
REMARK    1  A    between atoms: C_1  and  C_2
REMARK    2  A    between atoms: C_2  and  C_3
REMARK    3  A    between atoms: C_4  and  C_5
REMARK    4  A    between atoms: C_5  and  C_6
REMARK    5  A    between atoms: C_6  and  C_7
REMARK    6  A    between atoms: C_7  and  C_8
REMARK    7  A    between atoms: C_9  and  C_10
REMARK    8  A    between atoms: C_10  and  C_11
REMARK    9  A    between atoms: C_11  and  C_12
REMARK   10  A    between atoms: C_12  and  C_13
REMARK   11  A    between atoms: C_14  and  C_15
REMARK   12  A    between atoms: C_15  and  S_16
REMARK   13  A    between atoms: S_16  and  C_17
REMARK   14  A    between atoms: C_17  and  C_18
REMARK                            x       y       z     vdW  Elec       q    Type
REMARK                         _______ _______ _______ _____ _____    ______ ____
ROOT
ATOM      1  C   UNL     1       3.957   3.465  17.573  0.00  0.00    +0.000 C 
ENDROOT
BRANCH   1   4
ATOM      2  C   UNL     1       5.914   4.398  16.312  0.00  0.00    +0.000 C 
ATOM      3  C   UNL     1       6.653   4.582  17.617  0.00  0.00    +0.000 C 
ATOM      4  C   UNL     1       4.668   3.880  16.311  0.00  0.00    +0.000 C 
BRANCH   2   5
ATOM      5  C   UNL     1       6.561   4.809  14.997  0.00  0.00    +0.000 C 
BRANCH   5   6
ATOM      6  C   UNL     1       5.753   4.504  13.730  0.00  0.00    +0.000 C 
BRANCH   6  10
ATOM      7  C   UNL     1       6.294   1.620  11.167  0.00  0.00    +0.000 C 
ATOM      8  C   UNL     1       5.643   2.757  11.901  0.00  0.00    +0.000 C 
ATOM      9  C   UNL     1       4.312   3.236  11.393  0.00  0.00    +0.000 C 
ATOM     10  C   UNL     1       6.250   3.303  12.975  0.00  0.00    +0.000 C 
ENDBRANCH   6  10
ENDBRANCH   5   6
ENDBRANCH   2   5
ENDBRANCH   1   4
BRANCH   1  11
ATOM     11  C   UNL     1       2.634   4.195  17.828  0.00  0.00    +0.000 C 
BRANCH  11  12
ATOM     12  C   UNL     1       2.854   5.478  18.611  0.00  0.00    +0.000 C 
ATOM     13  C   UNL     1       3.921   5.450  19.675  0.00  0.00    +0.000 C 
ATOM     14  C   UNL     1       2.130   6.587  18.349  0.00  0.00    +0.000 C 
BRANCH  14  15
ATOM     15  C   UNL     1       2.230   7.884  19.097  0.00  0.00    +0.000 C 
BRANCH  15  16
ATOM     16  S   UNL     1       1.450   7.767  20.742  0.00  0.00    +0.000 S 
BRANCH  16  17
ATOM     17  C   UNL     1       0.680   9.411  20.866  0.00  0.00    +0.000 C 
BRANCH  17  18
ATOM     18  C   UNL     1       0.020   9.593  22.203  0.00  0.00    +0.000 C 
ATOM     19  O   UNL     1       0.139  10.599  22.890  0.00  0.00    +0.000 OA
ENDBRANCH  17  18
ENDBRANCH  16  17
ENDBRANCH  15  16
ENDBRANCH  14  15
ENDBRANCH  11  12
ENDBRANCH   1  11
TORSDOF 10
ENDMDL
MODEL 8
REMARK VINA RESULT:      -5.8      4.560      7.439
REMARK  Name = 
REMARK  14 active torsions:
REMARK  status: ('A' for Active; 'I' for Inactive)
REMARK    1  A    between atoms: C_1  and  C_2
REMARK    2  A    between atoms: C_2  and  C_3
REMARK    3  A    between atoms: C_4  and  C_5
REMARK    4  A    between atoms: C_5  and  C_6
REMARK    5  A    between atoms: C_6  and  C_7
REMARK    6  A    between atoms: C_7  and  C_8
REMARK    7  A    between atoms: C_9  and  C_10
REMARK    8  A    between atoms: C_10  and  C_11
REMARK    9  A    between atoms: C_11  and  C_12
REMARK   10  A    between atoms: C_12  and  C_13
REMARK   11  A    between atoms: C_14  and  C_15
REMARK   12  A    between atoms: C_15  and  S_16
REMARK   13  A    between atoms: S_16  and  C_17
REMARK   14  A    between atoms: C_17  and  C_18
REMARK                            x       y       z     vdW  Elec       q    Type
REMARK                         _______ _______ _______ _____ _____    ______ ____
ROOT
ATOM      1  C   UNL     1       5.189   6.407  16.965  0.00  0.00    +0.000 C 
ENDROOT
BRANCH   1   4
ATOM      2  C   UNL     1       7.408   6.946  18.002  0.00  0.00    +0.000 C 
ATOM      3  C   UNL     1       7.575   5.491  18.373  0.00  0.00    +0.000 C 
ATOM      4  C   UNL     1       6.297   7.352  17.351  0.00  0.00    +0.000 C 
BRANCH   2   5
ATOM      5  C   UNL     1       8.478   7.963  18.372  0.00  0.00    +0.000 C 
BRANCH   5   6
ATOM      6  C   UNL     1       8.129   9.431  18.102  0.00  0.00    +0.000 C 
BRANCH   6  10
ATOM      7  C   UNL     1      11.152  11.730  18.968  0.00  0.00    +0.000 C 
ATOM      8  C   UNL     1       9.891  10.931  19.128  0.00  0.00    +0.000 C 
ATOM      9  C   UNL     1       9.303  10.837  20.509  0.00  0.00    +0.000 C 
ATOM     10  C   UNL     1       9.328  10.336  18.056  0.00  0.00    +0.000 C 
ENDBRANCH   6  10
ENDBRANCH   5   6
ENDBRANCH   2   5
ENDBRANCH   1   4
BRANCH   1  11
ATOM     11  C   UNL     1       3.958   6.464  17.876  0.00  0.00    +0.000 C 
BRANCH  11  12
ATOM     12  C   UNL     1       3.128   5.196  17.763  0.00  0.00    +0.000 C 
ATOM     13  C   UNL     1       1.636   5.348  17.910  0.00  0.00    +0.000 C 
ATOM     14  C   UNL     1       3.709   4.001  17.531  0.00  0.00    +0.000 C 
BRANCH  14  15
ATOM     15  C   UNL     1       2.988   2.687  17.457  0.00  0.00    +0.000 C 
BRANCH  15  16
ATOM     16  S   UNL     1       3.706   1.466  18.607  0.00  0.00    +0.000 S 
BRANCH  16  17
ATOM     17  C   UNL     1       4.113   2.536  20.021  0.00  0.00    +0.000 C 
BRANCH  17  18
ATOM     18  C   UNL     1       2.932   2.684  20.938  0.00  0.00    +0.000 C 
ATOM     19  O   UNL     1       2.135   3.611  20.878  0.00  0.00    +0.000 OA
ENDBRANCH  17  18
ENDBRANCH  16  17
ENDBRANCH  15  16
ENDBRANCH  14  15
ENDBRANCH  11  12
ENDBRANCH   1  11
TORSDOF 10
ENDMDL
MODEL 9
REMARK VINA RESULT:      -5.7      7.457     10.059
REMARK  Name = 
REMARK  14 active torsions:
REMARK  status: ('A' for Active; 'I' for Inactive)
REMARK    1  A    between atoms: C_1  and  C_2
REMARK    2  A    between atoms: C_2  and  C_3
REMARK    3  A    between atoms: C_4  and  C_5
REMARK    4  A    between atoms: C_5  and  C_6
REMARK    5  A    between atoms: C_6  and  C_7
REMARK    6  A    between atoms: C_7  and  C_8
REMARK    7  A    between atoms: C_9  and  C_10
REMARK    8  A    between atoms: C_10  and  C_11
REMARK    9  A    between atoms: C_11  and  C_12
REMARK   10  A    between atoms: C_12  and  C_13
REMARK   11  A    between atoms: C_14  and  C_15
REMARK   12  A    between atoms: C_15  and  S_16
REMARK   13  A    between atoms: S_16  and  C_17
REMARK   14  A    between atoms: C_17  and  C_18
REMARK                            x       y       z     vdW  Elec       q    Type
REMARK                         _______ _______ _______ _____ _____    ______ ____
ROOT
ATOM      1  C   UNL     1       8.328   8.350  17.873  0.00  0.00    +0.000 C 
ENDROOT
BRANCH   1   4
ATOM      2  C   UNL     1       6.882   6.306  18.027  0.00  0.00    +0.000 C 
ATOM      3  C   UNL     1       7.718   5.817  19.187  0.00  0.00    +0.000 C 
ATOM      4  C   UNL     1       7.179   7.481  17.431  0.00  0.00    +0.000 C 
BRANCH   2   5
ATOM      5  C   UNL     1       5.715   5.475  17.514  0.00  0.00    +0.000 C 
BRANCH   5   6
ATOM      6  C   UNL     1       4.347   6.166  17.520  0.00  0.00    +0.000 C 
BRANCH   6  10
ATOM      7  C   UNL     1       1.913   5.130  20.379  0.00  0.00    +0.000 C 
ATOM      8  C   UNL     1       2.501   5.275  19.006  0.00  0.00    +0.000 C 
ATOM      9  C   UNL     1       1.806   4.564  17.877  0.00  0.00    +0.000 C 
ATOM     10  C   UNL     1       3.607   6.025  18.821  0.00  0.00    +0.000 C 
ENDBRANCH   6  10
ENDBRANCH   5   6
ENDBRANCH   2   5
ENDBRANCH   1   4
BRANCH   1  11
ATOM     11  C   UNL     1       8.066   9.856  17.761  0.00  0.00    +0.000 C 
BRANCH  11  12
ATOM     12  C   UNL     1       9.169  10.659  18.430  0.00  0.00    +0.000 C 
ATOM     13  C   UNL     1       9.411  10.392  19.893  0.00  0.00    +0.000 C 
ATOM     14  C   UNL     1       9.898  11.557  17.734  0.00  0.00    +0.000 C 
BRANCH  14  15
ATOM     15  C   UNL     1      10.968  12.436  18.310  0.00  0.00    +0.000 C 
BRANCH  15  16
ATOM     16  S   UNL     1      11.733  13.484  17.027  0.00  0.00    +0.000 S 
BRANCH  16  17
ATOM     17  C   UNL     1      12.333  14.871  18.038  0.00  0.00    +0.000 C 
BRANCH  17  18
ATOM     18  C   UNL     1      11.868  16.184  17.475  0.00  0.00    +0.000 C 
ATOM     19  O   UNL     1      11.030  16.287  16.589  0.00  0.00    +0.000 OA
ENDBRANCH  17  18
ENDBRANCH  16  17
ENDBRANCH  15  16
ENDBRANCH  14  15
ENDBRANCH  11  12
ENDBRANCH   1  11
TORSDOF 10
ENDMDL
