MODEL 1
REMARK VINA RESULT:      -7.2      0.000      0.000
REMARK  Name = 
REMARK  10 active torsions:
REMARK  status: ('A' for Active; 'I' for Inactive)
REMARK    1  A    between atoms: C_1  and  C_2
REMARK    2  A    between atoms: C_2  and  C_3
REMARK    3  A    between atoms: C_2  and  C_12
REMARK    4  A    between atoms: C_3  and  C_4
REMARK    5  A    between atoms: C_4  and  C_5
REMARK    6  A    between atoms: C_5  and  C_7
REMARK    7  A    between atoms: C_20  and  C_21
REMARK    8  A    between atoms: C_22  and  C_23
REMARK    9  A    between atoms: C_26  and  O_27
REMARK   10  A    between atoms: C_31  and  O_32
REMARK                            x       y       z     vdW  Elec       q    Type
REMARK                         _______ _______ _______ _____ _____    ______ ____
ROOT
ATOM      1  C   UNL     1       8.181  12.924  24.204  0.00  0.00    +0.000 C 
ATOM      2  C   UNL     1       8.370  11.501  23.628  0.00  0.00    +0.000 C 
ATOM      3  C   UNL     1       8.531  11.660  22.102  0.00  0.00    +0.000 C 
ATOM      4  C   UNL     1       8.622  13.166  21.868  0.00  0.00    +0.000 C 
ATOM      5  C   UNL     1       8.259  13.718  20.476  0.00  0.00    +0.000 C 
ATOM      6  C   UNL     1       8.375  15.283  20.483  0.00  0.00    +0.000 C 
ATOM      7  C   UNL     1       7.756  15.963  21.738  0.00  0.00    +0.000 C 
ATOM      8  C   UNL     1       8.043  15.247  23.063  0.00  0.00    +0.000 C 
ATOM      9  C   UNL     1       7.707  13.755  22.975  0.00  0.00    +0.000 C 
ATOM     10  C   UNL     1       6.205  13.572  22.662  0.00  0.00    +0.000 C 
ATOM     11  C   UNL     1       7.850  15.890  19.126  0.00  0.00    +0.000 C 
ATOM     12  C   UNL     1       6.341  15.581  18.915  0.00  0.00    +0.000 C 
ATOM     13  C   UNL     1       7.963  17.443  19.081  0.00  0.00    +0.000 C 
ATOM     14  C   UNL     1       9.393  17.966  19.019  0.00  0.00    +0.000 C 
ATOM     15  C   UNL     1      10.121  17.376  17.818  0.00  0.00    +0.000 C 
ATOM     16  C   UNL     1      10.105  15.846  17.852  0.00  0.00    +0.000 C 
ATOM     17  C   UNL     1       8.674  15.278  17.945  0.00  0.00    +0.000 C 
ATOM     18  C   UNL     1       8.699  13.733  17.965  0.00  0.00    +0.000 C 
ATOM     19  C   UNL     1       9.042  13.085  19.314  0.00  0.00    +0.000 C 
ENDROOT
BRANCH   1  21
ATOM     20  C   UNL     1       8.301  13.841  26.553  0.00  0.00    +0.000 C 
ATOM     21  C   UNL     1       7.434  13.028  25.575  0.00  0.00    +0.000 C 
BRANCH  21  22
ATOM     22  C   UNL     1       7.030  11.704  26.264  0.00  0.00    +0.000 C 
BRANCH  22  23
ATOM     23  C   UNL     1       5.637  11.179  25.848  0.00  0.00    +0.000 C 
BRANCH  23  24
ATOM     24  C   UNL     1       4.572  11.385  26.930  0.00  0.00    +0.000 C 
ATOM     25  O   UNL     1       4.329  12.558  27.257  0.00  0.00    +0.000 OA
BRANCH  24  26
ATOM     26  C   UNL     1       4.017  10.164  27.521  0.00  0.00    +0.000 A 
ATOM     27  N   UNL     1       4.777   9.105  27.923  0.00  0.00    +0.000 NA
ATOM     28  N   UNL     1       3.899   8.204  28.422  0.00  0.00    +0.000 NA
ATOM     29  N   UNL     1       2.659   8.561  28.044  0.00  0.00    +0.000 NA
ATOM     30  N   UNL     1       2.724   9.742  27.399  0.00  0.00    +0.000 NA
ENDBRANCH  24  26
ENDBRANCH  23  24
ENDBRANCH  22  23
ENDBRANCH  21  22
ENDBRANCH   1  21
BRANCH  15  31
ATOM     31  O   UNL     1      11.463  17.840  17.802  0.00  0.00    +0.000 OA
ATOM     32  H   UNL     1      11.689  18.096  16.891  0.00  0.00    +0.000 HD
ENDBRANCH  15  31
BRANCH  19  33
ATOM     33  O   UNL     1      10.449  13.086  19.534  0.00  0.00    +0.000 OA
ATOM     34  H   UNL     1      10.879  12.539  18.869  0.00  0.00    +0.000 HD
ENDBRANCH  19  33
TORSDOF 7
ENDMDL
MODEL 2
REMARK VINA RESULT:      -7.0      8.565     10.624
REMARK  Name = 
REMARK  10 active torsions:
REMARK  status: ('A' for Active; 'I' for Inactive)
REMARK    1  A    between atoms: C_1  and  C_2
REMARK    2  A    between atoms: C_2  and  C_3
REMARK    3  A    between atoms: C_2  and  C_12
REMARK    4  A    between atoms: C_3  and  C_4
REMARK    5  A    between atoms: C_4  and  C_5
REMARK    6  A    between atoms: C_5  and  C_7
REMARK    7  A    between atoms: C_20  and  C_21
REMARK    8  A    between atoms: C_22  and  C_23
REMARK    9  A    between atoms: C_26  and  O_27
REMARK   10  A    between atoms: C_31  and  O_32
REMARK                            x       y       z     vdW  Elec       q    Type
REMARK                         _______ _______ _______ _____ _____    ______ ____
ROOT
ATOM      1  C   UNL     1       1.880   9.117  18.961  0.00  0.00    +0.000 C 
ATOM      2  C   UNL     1       2.504   9.982  17.841  0.00  0.00    +0.000 C 
ATOM      3  C   UNL     1       1.935  11.406  18.013  0.00  0.00    +0.000 C 
ATOM      4  C   UNL     1       1.158  11.365  19.328  0.00  0.00    +0.000 C 
ATOM      5  C   UNL     1       0.044  12.404  19.557  0.00  0.00    +0.000 C 
ATOM      6  C   UNL     1      -0.646  12.141  20.942  0.00  0.00    +0.000 C 
ATOM      7  C   UNL     1      -0.956  10.642  21.225  0.00  0.00    +0.000 C 
ATOM      8  C   UNL     1       0.155   9.668  20.815  0.00  0.00    +0.000 C 
ATOM      9  C   UNL     1       0.607   9.914  19.372  0.00  0.00    +0.000 C 
ATOM     10  C   UNL     1      -0.580   9.701  18.405  0.00  0.00    +0.000 C 
ATOM     11  C   UNL     1      -1.897  13.080  21.132  0.00  0.00    +0.000 C 
ATOM     12  C   UNL     1      -2.986  12.795  20.059  0.00  0.00    +0.000 C 
ATOM     13  C   UNL     1      -2.604  12.865  22.504  0.00  0.00    +0.000 C 
ATOM     14  C   UNL     1      -1.793  13.331  23.706  0.00  0.00    +0.000 C 
ATOM     15  C   UNL     1      -1.423  14.801  23.559  0.00  0.00    +0.000 C 
ATOM     16  C   UNL     1      -0.658  15.056  22.258  0.00  0.00    +0.000 C 
ATOM     17  C   UNL     1      -1.434  14.571  21.017  0.00  0.00    +0.000 C 
ATOM     18  C   UNL     1      -0.636  14.855  19.725  0.00  0.00    +0.000 C 
ATOM     19  C   UNL     1       0.494  13.866  19.403  0.00  0.00    +0.000 C 
ENDROOT
BRANCH   1  21
ATOM     20  C   UNL     1       2.222   6.829  19.973  0.00  0.00    +0.000 C 
ATOM     21  C   UNL     1       1.807   7.577  18.693  0.00  0.00    +0.000 C 
BRANCH  21  22
ATOM     22  C   UNL     1       2.636   7.022  17.511  0.00  0.00    +0.000 C 
BRANCH  22  23
ATOM     23  C   UNL     1       4.079   6.620  17.891  0.00  0.00    +0.000 C 
BRANCH  23  24
ATOM     24  C   UNL     1       4.407   5.165  17.541  0.00  0.00    +0.000 C 
ATOM     25  O   UNL     1       3.443   4.410  17.339  0.00  0.00    +0.000 OA
BRANCH  24  26
ATOM     26  C   UNL     1       5.828   4.806  17.566  0.00  0.00    +0.000 A 
ATOM     27  N   UNL     1       6.607   4.879  18.684  0.00  0.00    +0.000 NA
ATOM     28  N   UNL     1       7.831   4.449  18.296  0.00  0.00    +0.000 NA
ATOM     29  N   UNL     1       7.870   4.429  16.952  0.00  0.00    +0.000 NA
ATOM     30  N   UNL     1       6.648   4.739  16.476  0.00  0.00    +0.000 NA
ENDBRANCH  24  26
ENDBRANCH  23  24
ENDBRANCH  22  23
ENDBRANCH  21  22
ENDBRANCH   1  21
BRANCH  15  31
ATOM     31  O   UNL     1      -0.632  15.205  24.667  0.00  0.00    +0.000 OA
ATOM     32  H   UNL     1       0.305  15.075  24.439  0.00  0.00    +0.000 HD
ENDBRANCH  15  31
BRANCH  19  33
ATOM     33  O   UNL     1       1.661  14.166  20.162  0.00  0.00    +0.000 OA
ATOM     34  H   UNL     1       2.230  13.391  20.195  0.00  0.00    +0.000 HD
ENDBRANCH  19  33
TORSDOF 7
ENDMDL
MODEL 3
REMARK VINA RESULT:      -6.9      9.451     11.696
REMARK  Name = 
REMARK  10 active torsions:
REMARK  status: ('A' for Active; 'I' for Inactive)
REMARK    1  A    between atoms: C_1  and  C_2
REMARK    2  A    between atoms: C_2  and  C_3
REMARK    3  A    between atoms: C_2  and  C_12
REMARK    4  A    between atoms: C_3  and  C_4
REMARK    5  A    between atoms: C_4  and  C_5
REMARK    6  A    between atoms: C_5  and  C_7
REMARK    7  A    between atoms: C_20  and  C_21
REMARK    8  A    between atoms: C_22  and  C_23
REMARK    9  A    between atoms: C_26  and  O_27
REMARK   10  A    between atoms: C_31  and  O_32
REMARK                            x       y       z     vdW  Elec       q    Type
REMARK                         _______ _______ _______ _____ _____    ______ ____
ROOT
ATOM      1  C   UNL     1      -0.047  10.974  18.562  0.00  0.00    +0.000 C 
ATOM      2  C   UNL     1      -1.202  10.225  17.856  0.00  0.00    +0.000 C 
ATOM      3  C   UNL     1      -2.508  10.683  18.539  0.00  0.00    +0.000 C 
ATOM      4  C   UNL     1      -2.089  11.813  19.477  0.00  0.00    +0.000 C 
ATOM      5  C   UNL     1      -2.993  12.144  20.680  0.00  0.00    +0.000 C 
ATOM      6  C   UNL     1      -2.343  13.294  21.527  0.00  0.00    +0.000 C 
ATOM      7  C   UNL     1      -0.815  13.123  21.769  0.00  0.00    +0.000 C 
ATOM      8  C   UNL     1      -0.023  12.636  20.550  0.00  0.00    +0.000 C 
ATOM      9  C   UNL     1      -0.665  11.391  19.930  0.00  0.00    +0.000 C 
ATOM     10  C   UNL     1      -0.687  10.241  20.961  0.00  0.00    +0.000 C 
ATOM     11  C   UNL     1      -3.157  13.542  22.854  0.00  0.00    +0.000 C 
ATOM     12  C   UNL     1      -3.142  12.285  23.770  0.00  0.00    +0.000 C 
ATOM     13  C   UNL     1      -2.558  14.690  23.719  0.00  0.00    +0.000 C 
ATOM     14  C   UNL     1      -2.704  16.078  23.107  0.00  0.00    +0.000 C 
ATOM     15  C   UNL     1      -4.169  16.380  22.822  0.00  0.00    +0.000 C 
ATOM     16  C   UNL     1      -4.790  15.318  21.911  0.00  0.00    +0.000 C 
ATOM     17  C   UNL     1      -4.637  13.894  22.482  0.00  0.00    +0.000 C 
ATOM     18  C   UNL     1      -5.285  12.853  21.541  0.00  0.00    +0.000 C 
ATOM     19  C   UNL     1      -4.455  12.450  20.315  0.00  0.00    +0.000 C 
ENDROOT
BRANCH   1  21
ATOM     20  C   UNL     1       2.379  11.326  17.961  0.00  0.00    +0.000 C 
ATOM     21  C   UNL     1       1.364  10.300  18.495  0.00  0.00    +0.000 C 
BRANCH  21  22
ATOM     22  C   UNL     1       1.492   9.005  17.659  0.00  0.00    +0.000 C 
BRANCH  22  23
ATOM     23  C   UNL     1       2.776   8.195  17.949  0.00  0.00    +0.000 C 
BRANCH  23  24
ATOM     24  C   UNL     1       2.522   6.966  18.827  0.00  0.00    +0.000 C 
ATOM     25  O   UNL     1       2.184   7.180  20.002  0.00  0.00    +0.000 OA
BRANCH  24  26
ATOM     26  C   UNL     1       2.789   5.667  18.201  0.00  0.00    +0.000 A 
ATOM     27  N   UNL     1       3.890   5.407  17.440  0.00  0.00    +0.000 NA
ATOM     28  N   UNL     1       3.772   4.109  17.071  0.00  0.00    +0.000 NA
ATOM     29  N   UNL     1       2.515   3.706  17.324  0.00  0.00    +0.000 NA
ATOM     30  N   UNL     1       1.856   4.701  17.950  0.00  0.00    +0.000 NA
ENDBRANCH  24  26
ENDBRANCH  23  24
ENDBRANCH  22  23
ENDBRANCH  21  22
ENDBRANCH   1  21
BRANCH  15  31
ATOM     31  O   UNL     1      -4.280  17.658  22.213  0.00  0.00    +0.000 OA
ATOM     32  H   UNL     1      -4.863  17.579  21.439  0.00  0.00    +0.000 HD
ENDBRANCH  15  31
BRANCH  19  33
ATOM     33  O   UNL     1      -4.572  13.421  19.281  0.00  0.00    +0.000 OA
ATOM     34  H   UNL     1      -5.232  14.076  19.527  0.00  0.00    +0.000 HD
ENDBRANCH  19  33
TORSDOF 7
ENDMDL
MODEL 4
REMARK VINA RESULT:      -6.8      8.263     10.027
REMARK  Name = 
REMARK  10 active torsions:
REMARK  status: ('A' for Active; 'I' for Inactive)
REMARK    1  A    between atoms: C_1  and  C_2
REMARK    2  A    between atoms: C_2  and  C_3
REMARK    3  A    between atoms: C_2  and  C_12
REMARK    4  A    between atoms: C_3  and  C_4
REMARK    5  A    between atoms: C_4  and  C_5
REMARK    6  A    between atoms: C_5  and  C_7
REMARK    7  A    between atoms: C_20  and  C_21
REMARK    8  A    between atoms: C_22  and  C_23
REMARK    9  A    between atoms: C_26  and  O_27
REMARK   10  A    between atoms: C_31  and  O_32
REMARK                            x       y       z     vdW  Elec       q    Type
REMARK                         _______ _______ _______ _____ _____    ______ ____
ROOT
ATOM      1  C   UNL     1       1.840   8.709  19.251  0.00  0.00    +0.000 C 
ATOM      2  C   UNL     1       2.382   9.284  17.921  0.00  0.00    +0.000 C 
ATOM      3  C   UNL     1       1.919  10.755  17.855  0.00  0.00    +0.000 C 
ATOM      4  C   UNL     1       1.295  11.035  19.221  0.00  0.00    +0.000 C 
ATOM      5  C   UNL     1       0.276  12.184  19.342  0.00  0.00    +0.000 C 
ATOM      6  C   UNL     1      -0.267  12.254  20.813  0.00  0.00    +0.000 C 
ATOM      7  C   UNL     1      -0.629  10.870  21.425  0.00  0.00    +0.000 C 
ATOM      8  C   UNL     1       0.370   9.749  21.114  0.00  0.00    +0.000 C 
ATOM      9  C   UNL     1       0.669   9.669  19.614  0.00  0.00    +0.000 C 
ATOM     10  C   UNL     1      -0.630   9.366  18.834  0.00  0.00    +0.000 C 
ATOM     11  C   UNL     1      -1.432  13.308  20.931  0.00  0.00    +0.000 C 
ATOM     12  C   UNL     1      -2.650  12.906  20.052  0.00  0.00    +0.000 C 
ATOM     13  C   UNL     1      -1.991  13.425  22.381  0.00  0.00    +0.000 C 
ATOM     14  C   UNL     1      -1.023  14.052  23.376  0.00  0.00    +0.000 C 
ATOM     15  C   UNL     1      -0.588  15.430  22.897  0.00  0.00    +0.000 C 
ATOM     16  C   UNL     1       0.039  15.363  21.502  0.00  0.00    +0.000 C 
ATOM     17  C   UNL     1      -0.900  14.706  20.469  0.00  0.00    +0.000 C 
ATOM     18  C   UNL     1      -0.237  14.667  19.073  0.00  0.00    +0.000 C 
ATOM     19  C   UNL     1       0.789  13.547  18.850  0.00  0.00    +0.000 C 
ENDROOT
BRANCH   1  21
ATOM     20  C   UNL     1       1.841   6.688  20.764  0.00  0.00    +0.000 C 
ATOM     21  C   UNL     1       1.647   7.157  19.311  0.00  0.00    +0.000 C 
BRANCH  21  22
ATOM     22  C   UNL     1       2.547   6.295  18.394  0.00  0.00    +0.000 C 
BRANCH  22  23
ATOM     23  C   UNL     1       1.901   4.962  17.954  0.00  0.00    +0.000 C 
BRANCH  23  24
ATOM     24  C   UNL     1       2.692   3.733  18.412  0.00  0.00    +0.000 C 
ATOM     25  O   UNL     1       3.470   3.230  17.584  0.00  0.00    +0.000 OA
BRANCH  24  26
ATOM     26  C   UNL     1       2.380   3.235  19.755  0.00  0.00    +0.000 A 
ATOM     27  N   UNL     1       1.131   3.269  20.303  0.00  0.00    +0.000 NA
ATOM     28  N   UNL     1       1.262   2.706  21.527  0.00  0.00    +0.000 NA
ATOM     29  N   UNL     1       2.571   2.634  21.827  0.00  0.00    +0.000 NA
ATOM     30  N   UNL     1       3.284   3.048  20.761  0.00  0.00    +0.000 NA
ENDBRANCH  24  26
ENDBRANCH  23  24
ENDBRANCH  22  23
ENDBRANCH  21  22
ENDBRANCH   1  21
BRANCH  15  31
ATOM     31  O   UNL     1       0.346  15.979  23.815  0.00  0.00    +0.000 OA
ATOM     32  H   UNL     1       0.079  15.723  24.714  0.00  0.00    +0.000 HD
ENDBRANCH  15  31
BRANCH  19  33
ATOM     33  O   UNL     1       2.050  13.896  19.412  0.00  0.00    +0.000 OA
ATOM     34  H   UNL     1       2.588  14.337  18.747  0.00  0.00    +0.000 HD
ENDBRANCH  19  33
TORSDOF 7
ENDMDL
MODEL 5
REMARK VINA RESULT:      -6.8      9.859     11.897
REMARK  Name = 
REMARK  10 active torsions:
REMARK  status: ('A' for Active; 'I' for Inactive)
REMARK    1  A    between atoms: C_1  and  C_2
REMARK    2  A    between atoms: C_2  and  C_3
REMARK    3  A    between atoms: C_2  and  C_12
REMARK    4  A    between atoms: C_3  and  C_4
REMARK    5  A    between atoms: C_4  and  C_5
REMARK    6  A    between atoms: C_5  and  C_7
REMARK    7  A    between atoms: C_20  and  C_21
REMARK    8  A    between atoms: C_22  and  C_23
REMARK    9  A    between atoms: C_26  and  O_27
REMARK   10  A    between atoms: C_31  and  O_32
REMARK                            x       y       z     vdW  Elec       q    Type
REMARK                         _______ _______ _______ _____ _____    ______ ____
ROOT
ATOM      1  C   UNL     1      -0.062  10.856  18.274  0.00  0.00    +0.000 C 
ATOM      2  C   UNL     1      -1.040   9.839  17.638  0.00  0.00    +0.000 C 
ATOM      3  C   UNL     1      -2.457  10.242  18.098  0.00  0.00    +0.000 C 
ATOM      4  C   UNL     1      -2.274  11.576  18.819  0.00  0.00    +0.000 C 
ATOM      5  C   UNL     1      -3.338  12.009  19.846  0.00  0.00    +0.000 C 
ATOM      6  C   UNL     1      -2.920  13.376  20.494  0.00  0.00    +0.000 C 
ATOM      7  C   UNL     1      -1.419  13.458  20.897  0.00  0.00    +0.000 C 
ATOM      8  C   UNL     1      -0.447  12.857  19.876  0.00  0.00    +0.000 C 
ATOM      9  C   UNL     1      -0.871  11.441  19.469  0.00  0.00    +0.000 C 
ATOM     10  C   UNL     1      -0.877  10.518  20.708  0.00  0.00    +0.000 C 
ATOM     11  C   UNL     1      -3.900  13.763  21.666  0.00  0.00    +0.000 C 
ATOM     12  C   UNL     1      -3.845  12.718  22.817  0.00  0.00    +0.000 C 
ATOM     13  C   UNL     1      -3.533  15.125  22.328  0.00  0.00    +0.000 C 
ATOM     14  C   UNL     1      -3.766  16.338  21.436  0.00  0.00    +0.000 C 
ATOM     15  C   UNL     1      -5.215  16.383  20.969  0.00  0.00    +0.000 C 
ATOM     16  C   UNL     1      -5.607  15.094  20.244  0.00  0.00    +0.000 C 
ATOM     17  C   UNL     1      -5.359  13.838  21.104  0.00  0.00    +0.000 C 
ATOM     18  C   UNL     1      -5.777  12.560  20.343  0.00  0.00    +0.000 C 
ATOM     19  C   UNL     1      -4.775  12.042  19.301  0.00  0.00    +0.000 C 
ENDROOT
BRANCH   1  21
ATOM     20  C   UNL     1       2.365  11.467  17.946  0.00  0.00    +0.000 C 
ATOM     21  C   UNL     1       1.415  10.375  18.468  0.00  0.00    +0.000 C 
BRANCH  21  22
ATOM     22  C   UNL     1       1.813   9.029  17.819  0.00  0.00    +0.000 C 
BRANCH  22  23
ATOM     23  C   UNL     1       2.277   7.957  18.830  0.00  0.00    +0.000 C 
BRANCH  23  24
ATOM     24  C   UNL     1       2.924   6.741  18.160  0.00  0.00    +0.000 C 
ATOM     25  O   UNL     1       3.890   6.965  17.413  0.00  0.00    +0.000 OA
BRANCH  24  26
ATOM     26  C   UNL     1       2.273   5.451  18.410  0.00  0.00    +0.000 A 
ATOM     27  N   UNL     1       1.874   5.033  19.646  0.00  0.00    +0.000 NA
ATOM     28  N   UNL     1       1.310   3.818  19.447  0.00  0.00    +0.000 NA
ATOM     29  N   UNL     1       1.644   3.388  18.218  0.00  0.00    +0.000 NA
ATOM     30  N   UNL     1       2.326   4.364  17.586  0.00  0.00    +0.000 NA
ENDBRANCH  24  26
ENDBRANCH  23  24
ENDBRANCH  22  23
ENDBRANCH  21  22
ENDBRANCH   1  21
BRANCH  15  31
ATOM     31  O   UNL     1      -5.401  17.494  20.105  0.00  0.00    +0.000 OA
ATOM     32  H   UNL     1      -4.833  17.376  19.325  0.00  0.00    +0.000 HD
ENDBRANCH  15  31
BRANCH  19  33
ATOM     33  O   UNL     1      -4.886  12.774  18.084  0.00  0.00    +0.000 OA
ATOM     34  H   UNL     1      -4.778  12.176  17.338  0.00  0.00    +0.000 HD
ENDBRANCH  19  33
TORSDOF 7
ENDMDL
MODEL 6
REMARK VINA RESULT:      -6.7      8.901     11.355
REMARK  Name = 
REMARK  10 active torsions:
REMARK  status: ('A' for Active; 'I' for Inactive)
REMARK    1  A    between atoms: C_1  and  C_2
REMARK    2  A    between atoms: C_2  and  C_3
REMARK    3  A    between atoms: C_2  and  C_12
REMARK    4  A    between atoms: C_3  and  C_4
REMARK    5  A    between atoms: C_4  and  C_5
REMARK    6  A    between atoms: C_5  and  C_7
REMARK    7  A    between atoms: C_20  and  C_21
REMARK    8  A    between atoms: C_22  and  C_23
REMARK    9  A    between atoms: C_26  and  O_27
REMARK   10  A    between atoms: C_31  and  O_32
REMARK                            x       y       z     vdW  Elec       q    Type
REMARK                         _______ _______ _______ _____ _____    ______ ____
ROOT
ATOM      1  C   UNL     1       0.159   9.892  20.395  0.00  0.00    +0.000 C 
ATOM      2  C   UNL     1       0.352   9.314  21.817  0.00  0.00    +0.000 C 
ATOM      3  C   UNL     1      -0.354  10.284  22.788  0.00  0.00    +0.000 C 
ATOM      4  C   UNL     1      -1.088  11.278  21.889  0.00  0.00    +0.000 C 
ATOM      5  C   UNL     1      -1.447  12.662  22.464  0.00  0.00    +0.000 C 
ATOM      6  C   UNL     1      -2.145  13.527  21.356  0.00  0.00    +0.000 C 
ATOM      7  C   UNL     1      -1.456  13.455  19.962  0.00  0.00    +0.000 C 
ATOM      8  C   UNL     1      -0.990  12.055  19.548  0.00  0.00    +0.000 C 
ATOM      9  C   UNL     1      -0.157  11.395  20.652  0.00  0.00    +0.000 C 
ATOM     10  C   UNL     1       1.104  12.241  20.936  0.00  0.00    +0.000 C 
ATOM     11  C   UNL     1      -2.375  15.003  21.859  0.00  0.00    +0.000 C 
ATOM     12  C   UNL     1      -1.025  15.714  22.160  0.00  0.00    +0.000 C 
ATOM     13  C   UNL     1      -3.083  15.895  20.796  0.00  0.00    +0.000 C 
ATOM     14  C   UNL     1      -4.537  15.522  20.533  0.00  0.00    +0.000 C 
ATOM     15  C   UNL     1      -5.336  15.558  21.828  0.00  0.00    +0.000 C 
ATOM     16  C   UNL     1      -4.724  14.638  22.887  0.00  0.00    +0.000 C 
ATOM     17  C   UNL     1      -3.242  14.965  23.161  0.00  0.00    +0.000 C 
ATOM     18  C   UNL     1      -2.664  14.024  24.242  0.00  0.00    +0.000 C 
ATOM     19  C   UNL     1      -2.265  12.620  23.765  0.00  0.00    +0.000 C 
ENDROOT
BRANCH   1  21
ATOM     20  C   UNL     1       0.595   9.622  17.923  0.00  0.00    +0.000 C 
ATOM     21  C   UNL     1       1.218   9.470  19.322  0.00  0.00    +0.000 C 
BRANCH  21  22
ATOM     22  C   UNL     1       1.818   8.049  19.439  0.00  0.00    +0.000 C 
BRANCH  22  23
ATOM     23  C   UNL     1       2.576   7.583  18.176  0.00  0.00    +0.000 C 
BRANCH  23  24
ATOM     24  C   UNL     1       3.200   6.192  18.332  0.00  0.00    +0.000 C 
ATOM     25  O   UNL     1       4.435   6.120  18.227  0.00  0.00    +0.000 OA
BRANCH  24  26
ATOM     26  C   UNL     1       2.256   5.084  18.505  0.00  0.00    +0.000 A 
ATOM     27  N   UNL     1       2.078   4.419  19.684  0.00  0.00    +0.000 NA
ATOM     28  N   UNL     1       1.121   3.495  19.432  0.00  0.00    +0.000 NA
ATOM     29  N   UNL     1       0.967   3.392  18.101  0.00  0.00    +0.000 NA
ATOM     30  N   UNL     1       1.739   4.318  17.500  0.00  0.00    +0.000 NA
ENDBRANCH  24  26
ENDBRANCH  23  24
ENDBRANCH  22  23
ENDBRANCH  21  22
ENDBRANCH   1  21
BRANCH  15  31
ATOM     31  O   UNL     1      -6.676  15.167  21.570  0.00  0.00    +0.000 OA
ATOM     32  H   UNL     1      -7.271  15.806  21.997  0.00  0.00    +0.000 HD
ENDBRANCH  15  31
BRANCH  19  33
ATOM     33  O   UNL     1      -3.405  11.773  23.672  0.00  0.00    +0.000 OA
ATOM     34  H   UNL     1      -3.944  11.870  24.463  0.00  0.00    +0.000 HD
ENDBRANCH  19  33
TORSDOF 7
ENDMDL
MODEL 7
REMARK VINA RESULT:      -6.7      9.889     11.902
REMARK  Name = 
REMARK  10 active torsions:
REMARK  status: ('A' for Active; 'I' for Inactive)
REMARK    1  A    between atoms: C_1  and  C_2
REMARK    2  A    between atoms: C_2  and  C_3
REMARK    3  A    between atoms: C_2  and  C_12
REMARK    4  A    between atoms: C_3  and  C_4
REMARK    5  A    between atoms: C_4  and  C_5
REMARK    6  A    between atoms: C_5  and  C_7
REMARK    7  A    between atoms: C_20  and  C_21
REMARK    8  A    between atoms: C_22  and  C_23
REMARK    9  A    between atoms: C_26  and  O_27
REMARK   10  A    between atoms: C_31  and  O_32
REMARK                            x       y       z     vdW  Elec       q    Type
REMARK                         _______ _______ _______ _____ _____    ______ ____
ROOT
ATOM      1  C   UNL     1       0.058  10.731  18.240  0.00  0.00    +0.000 C 
ATOM      2  C   UNL     1      -0.943   9.718  17.635  0.00  0.00    +0.000 C 
ATOM      3  C   UNL     1      -2.346  10.144  18.114  0.00  0.00    +0.000 C 
ATOM      4  C   UNL     1      -2.136  11.485  18.814  0.00  0.00    +0.000 C 
ATOM      5  C   UNL     1      -3.176  11.943  19.855  0.00  0.00    +0.000 C 
ATOM      6  C   UNL     1      -2.731  13.313  20.477  0.00  0.00    +0.000 C 
ATOM      7  C   UNL     1      -1.222  13.382  20.853  0.00  0.00    +0.000 C 
ATOM      8  C   UNL     1      -0.275  12.756  19.823  0.00  0.00    +0.000 C 
ATOM      9  C   UNL     1      -0.723  11.341  19.442  0.00  0.00    +0.000 C 
ATOM     10  C   UNL     1      -0.719  10.433  20.692  0.00  0.00    +0.000 C 
ATOM     11  C   UNL     1      -3.685  13.727  21.662  0.00  0.00    +0.000 C 
ATOM     12  C   UNL     1      -3.622  12.695  22.825  0.00  0.00    +0.000 C 
ATOM     13  C   UNL     1      -3.291  15.092  22.300  0.00  0.00    +0.000 C 
ATOM     14  C   UNL     1      -3.525  16.296  21.396  0.00  0.00    +0.000 C 
ATOM     15  C   UNL     1      -4.982  16.352  20.955  0.00  0.00    +0.000 C 
ATOM     16  C   UNL     1      -5.402  15.059  20.253  0.00  0.00    +0.000 C 
ATOM     17  C   UNL     1      -5.153  13.812  21.124  0.00  0.00    +0.000 C 
ATOM     18  C   UNL     1      -5.599  12.529  20.387  0.00  0.00    +0.000 C 
ATOM     19  C   UNL     1      -4.622  11.987  19.334  0.00  0.00    +0.000 C 
ENDROOT
BRANCH   1  21
ATOM     20  C   UNL     1       2.487  11.320  17.885  0.00  0.00    +0.000 C 
ATOM     21  C   UNL     1       1.532  10.235  18.414  0.00  0.00    +0.000 C 
BRANCH  21  22
ATOM     22  C   UNL     1       1.909   8.888  17.755  0.00  0.00    +0.000 C 
BRANCH  22  23
ATOM     23  C   UNL     1       2.329   7.793  18.761  0.00  0.00    +0.000 C 
BRANCH  23  24
ATOM     24  C   UNL     1       2.840   6.519  18.081  0.00  0.00    +0.000 C 
ATOM     25  O   UNL     1       2.037   5.578  17.983  0.00  0.00    +0.000 OA
BRANCH  24  26
ATOM     26  C   UNL     1       4.255   6.524  17.695  0.00  0.00    +0.000 A 
ATOM     27  N   UNL     1       4.701   6.909  16.464  0.00  0.00    +0.000 NA
ATOM     28  N   UNL     1       6.048   6.789  16.519  0.00  0.00    +0.000 NA
ATOM     29  N   UNL     1       6.369   6.065  17.606  0.00  0.00    +0.000 NA
ATOM     30  N   UNL     1       5.246   5.813  18.307  0.00  0.00    +0.000 NA
ENDBRANCH  24  26
ENDBRANCH  23  24
ENDBRANCH  22  23
ENDBRANCH  21  22
ENDBRANCH   1  21
BRANCH  15  31
ATOM     31  O   UNL     1      -5.170  17.455  20.080  0.00  0.00    +0.000 OA
ATOM     32  H   UNL     1      -5.921  17.258  19.495  0.00  0.00    +0.000 HD
ENDBRANCH  15  31
BRANCH  19  33
ATOM     33  O   UNL     1      -4.745  12.704  18.110  0.00  0.00    +0.000 OA
ATOM     34  H   UNL     1      -4.122  13.436  18.102  0.00  0.00    +0.000 HD
ENDBRANCH  19  33
TORSDOF 7
ENDMDL
MODEL 8
REMARK VINA RESULT:      -6.7      8.557     10.502
REMARK  Name = 
REMARK  10 active torsions:
REMARK  status: ('A' for Active; 'I' for Inactive)
REMARK    1  A    between atoms: C_1  and  C_2
REMARK    2  A    between atoms: C_2  and  C_3
REMARK    3  A    between atoms: C_2  and  C_12
REMARK    4  A    between atoms: C_3  and  C_4
REMARK    5  A    between atoms: C_4  and  C_5
REMARK    6  A    between atoms: C_5  and  C_7
REMARK    7  A    between atoms: C_20  and  C_21
REMARK    8  A    between atoms: C_22  and  C_23
REMARK    9  A    between atoms: C_26  and  O_27
REMARK   10  A    between atoms: C_31  and  O_32
REMARK                            x       y       z     vdW  Elec       q    Type
REMARK                         _______ _______ _______ _____ _____    ______ ____
ROOT
ATOM      1  C   UNL     1       1.889   9.410  19.035  0.00  0.00    +0.000 C 
ATOM      2  C   UNL     1       2.477  10.278  17.898  0.00  0.00    +0.000 C 
ATOM      3  C   UNL     1       1.903  11.698  18.085  0.00  0.00    +0.000 C 
ATOM      4  C   UNL     1       1.161  11.653  19.420  0.00  0.00    +0.000 C 
ATOM      5  C   UNL     1       0.046  12.685  19.677  0.00  0.00    +0.000 C 
ATOM      6  C   UNL     1      -0.605  12.417  21.080  0.00  0.00    +0.000 C 
ATOM      7  C   UNL     1      -0.898  10.916  21.371  0.00  0.00    +0.000 C 
ATOM      8  C   UNL     1       0.209   9.950  20.933  0.00  0.00    +0.000 C 
ATOM      9  C   UNL     1       0.621  10.198  19.478  0.00  0.00    +0.000 C 
ATOM     10  C   UNL     1      -0.589   9.977  18.543  0.00  0.00    +0.000 C 
ATOM     11  C   UNL     1      -1.858  13.347  21.303  0.00  0.00    +0.000 C 
ATOM     12  C   UNL     1      -2.973  13.055  20.258  0.00  0.00    +0.000 C 
ATOM     13  C   UNL     1      -2.528  13.129  22.692  0.00  0.00    +0.000 C 
ATOM     14  C   UNL     1      -1.689  13.601  23.873  0.00  0.00    +0.000 C 
ATOM     15  C   UNL     1      -1.333  15.073  23.716  0.00  0.00    +0.000 C 
ATOM     16  C   UNL     1      -0.604  15.333  22.396  0.00  0.00    +0.000 C 
ATOM     17  C   UNL     1      -1.408  14.841  21.175  0.00  0.00    +0.000 C 
ATOM     18  C   UNL     1      -0.646  15.131  19.863  0.00  0.00    +0.000 C 
ATOM     19  C   UNL     1       0.482  14.150  19.512  0.00  0.00    +0.000 C 
ENDROOT
BRANCH   1  21
ATOM     20  C   UNL     1       2.100   7.124  20.086  0.00  0.00    +0.000 C 
ATOM     21  C   UNL     1       1.819   7.869  18.769  0.00  0.00    +0.000 C 
BRANCH  21  22
ATOM     22  C   UNL     1       2.749   7.295  17.675  0.00  0.00    +0.000 C 
BRANCH  22  23
ATOM     23  C   UNL     1       3.817   6.315  18.209  0.00  0.00    +0.000 C 
BRANCH  23  24
ATOM     24  C   UNL     1       3.787   4.955  17.505  0.00  0.00    +0.000 C 
ATOM     25  O   UNL     1       4.553   4.811  16.538  0.00  0.00    +0.000 OA
BRANCH  24  26
ATOM     26  C   UNL     1       2.793   3.999  18.002  0.00  0.00    +0.000 A 
ATOM     27  N   UNL     1       3.111   2.882  18.719  0.00  0.00    +0.000 NA
ATOM     28  N   UNL     1       1.926   2.288  18.998  0.00  0.00    +0.000 NA
ATOM     29  N   UNL     1       0.978   2.839  18.220  0.00  0.00    +0.000 NA
ATOM     30  N   UNL     1       1.524   3.854  17.521  0.00  0.00    +0.000 NA
ENDBRANCH  24  26
ENDBRANCH  23  24
ENDBRANCH  22  23
ENDBRANCH  21  22
ENDBRANCH   1  21
BRANCH  15  31
ATOM     31  O   UNL     1      -0.516  15.482  24.803  0.00  0.00    +0.000 OA
ATOM     32  H   UNL     1      -1.038  15.418  25.621  0.00  0.00    +0.000 HD
ENDBRANCH  15  31
BRANCH  19  33
ATOM     33  O   UNL     1       1.666  14.457  20.240  0.00  0.00    +0.000 OA
ATOM     34  H   UNL     1       1.966  15.341  20.008  0.00  0.00    +0.000 HD
ENDBRANCH  19  33
TORSDOF 7
ENDMDL
MODEL 9
REMARK VINA RESULT:      -6.7      8.789     11.151
REMARK  Name = 
REMARK  10 active torsions:
REMARK  status: ('A' for Active; 'I' for Inactive)
REMARK    1  A    between atoms: C_1  and  C_2
REMARK    2  A    between atoms: C_2  and  C_3
REMARK    3  A    between atoms: C_2  and  C_12
REMARK    4  A    between atoms: C_3  and  C_4
REMARK    5  A    between atoms: C_4  and  C_5
REMARK    6  A    between atoms: C_5  and  C_7
REMARK    7  A    between atoms: C_20  and  C_21
REMARK    8  A    between atoms: C_22  and  C_23
REMARK    9  A    between atoms: C_26  and  O_27
REMARK   10  A    between atoms: C_31  and  O_32
REMARK                            x       y       z     vdW  Elec       q    Type
REMARK                         _______ _______ _______ _____ _____    ______ ____
ROOT
ATOM      1  C   UNL     1       0.301   9.723  20.290  0.00  0.00    +0.000 C 
ATOM      2  C   UNL     1       0.449   9.134  21.713  0.00  0.00    +0.000 C 
ATOM      3  C   UNL     1      -0.228  10.131  22.677  0.00  0.00    +0.000 C 
ATOM      4  C   UNL     1      -0.905  11.159  21.771  0.00  0.00    +0.000 C 
ATOM      5  C   UNL     1      -1.212  12.556  22.345  0.00  0.00    +0.000 C 
ATOM      6  C   UNL     1      -1.855  13.453  21.230  0.00  0.00    +0.000 C 
ATOM      7  C   UNL     1      -1.150  13.355  19.846  0.00  0.00    +0.000 C 
ATOM      8  C   UNL     1      -0.740  11.937  19.434  0.00  0.00    +0.000 C 
ATOM      9  C   UNL     1       0.047  11.238  20.547  0.00  0.00    +0.000 C 
ATOM     10  C   UNL     1       1.340  12.027  20.852  0.00  0.00    +0.000 C 
ATOM     11  C   UNL     1      -2.028  14.936  21.735  0.00  0.00    +0.000 C 
ATOM     12  C   UNL     1      -0.652  15.587  22.058  0.00  0.00    +0.000 C 
ATOM     13  C   UNL     1      -2.680  15.862  20.665  0.00  0.00    +0.000 C 
ATOM     14  C   UNL     1      -4.145  15.553  20.381  0.00  0.00    +0.000 C 
ATOM     15  C   UNL     1      -4.961  15.621  21.665  0.00  0.00    +0.000 C 
ATOM     16  C   UNL     1      -4.405  14.672  22.729  0.00  0.00    +0.000 C 
ATOM     17  C   UNL     1      -2.914  14.933  23.025  0.00  0.00    +0.000 C 
ATOM     18  C   UNL     1      -2.393  13.964  24.111  0.00  0.00    +0.000 C 
ATOM     19  C   UNL     1      -2.049  12.546  23.635  0.00  0.00    +0.000 C 
ENDROOT
BRANCH   1  21
ATOM     20  C   UNL     1       0.714   9.314  17.834  0.00  0.00    +0.000 C 
ATOM     21  C   UNL     1       1.356   9.259  19.231  0.00  0.00    +0.000 C 
BRANCH  21  22
ATOM     22  C   UNL     1       1.987   7.860  19.425  0.00  0.00    +0.000 C 
BRANCH  22  23
ATOM     23  C   UNL     1       2.615   7.271  18.142  0.00  0.00    +0.000 C 
BRANCH  23  24
ATOM     24  C   UNL     1       2.677   5.741  18.153  0.00  0.00    +0.000 C 
ATOM     25  O   UNL     1       1.661   5.139  17.769  0.00  0.00    +0.000 OA
BRANCH  24  26
ATOM     26  C   UNL     1       3.905   5.154  18.698  0.00  0.00    +0.000 A 
ATOM     27  N   UNL     1       5.109   5.795  18.708  0.00  0.00    +0.000 NA
ATOM     28  N   UNL     1       5.967   4.934  19.304  0.00  0.00    +0.000 NA
ATOM     29  N   UNL     1       5.389   3.721  19.355  0.00  0.00    +0.000 NA
ATOM     30  N   UNL     1       4.127   3.821  18.894  0.00  0.00    +0.000 NA
ENDBRANCH  24  26
ENDBRANCH  23  24
ENDBRANCH  22  23
ENDBRANCH  21  22
ENDBRANCH   1  21
BRANCH  15  31
ATOM     31  O   UNL     1      -6.313  15.289  21.387  0.00  0.00    +0.000 OA
ATOM     32  H   UNL     1      -6.591  15.772  20.590  0.00  0.00    +0.000 HD
ENDBRANCH  15  31
BRANCH  19  33
ATOM     33  O   UNL     1      -3.224  11.749  23.523  0.00  0.00    +0.000 OA
ATOM     34  H   UNL     1      -3.658  11.932  22.684  0.00  0.00    +0.000 HD
ENDBRANCH  19  33
TORSDOF 7
ENDMDL
