MODEL 1
REMARK VINA RESULT:      -8.3      0.000      0.000
REMARK  Name = 
REMARK  2 active torsions:
REMARK  status: ('A' for Active; 'I' for Inactive)
REMARK    1  A    between atoms: N_10  and  C_11
REMARK    2  A    between atoms: C_11  and  C_12
REMARK                            x       y       z     vdW  Elec       q    Type
REMARK                         _______ _______ _______ _____ _____    ______ ____
ROOT
ATOM      1  C   UNL     1      -1.327  12.211  20.292  0.00  0.00    +0.000 A 
ATOM      2  C   UNL     1      -1.322  12.115  21.680  0.00  0.00    +0.000 A 
ATOM      3  C   UNL     1      -0.610  11.099  22.325  0.00  0.00    +0.000 A 
ATOM      4  C   UNL     1       0.092  10.175  21.535  0.00  0.00    +0.000 A 
ATOM      5  S   UNL     1       1.009   8.813  22.024  0.00  0.00    +0.000 S 
ATOM      6  C   UNL     1       1.349   8.421  20.371  0.00  0.00    +0.000 A 
ATOM      7  N   UNL     1       2.076   7.329  20.013  0.00  0.00    +0.000 N 
ATOM      8  C   UNL     1       2.054   6.082  20.778  0.00  0.00    +0.000 C 
ATOM      9  C   UNL     1       1.787   4.862  19.856  0.00  0.00    +0.000 C 
ATOM     10  N   UNL     1       2.626   4.784  18.635  0.00  0.00    +0.000 NA
ATOM     11  C   UNL     1       2.476   6.071  17.913  0.00  0.00    +0.000 C 
ATOM     12  C   UNL     1       2.811   7.327  18.745  0.00  0.00    +0.000 C 
ATOM     13  N   UNL     1       0.868   9.288  19.508  0.00  0.00    +0.000 NA
ATOM     14  C   UNL     1       0.118  10.261  20.145  0.00  0.00    +0.000 A 
ATOM     15  C   UNL     1      -0.605  11.296  19.517  0.00  0.00    +0.000 A 
ENDROOT
BRANCH  10  16
ATOM     16  C   UNL     1       4.020   4.482  19.003  0.00  0.00    +0.000 C 
BRANCH  16  17
ATOM     17  C   UNL     1       5.035   4.729  17.907  0.00  0.00    +0.000 A 
ATOM     18  C   UNL     1       6.112   5.622  18.110  0.00  0.00    +0.000 A 
ATOM     19  C   UNL     1       7.025   5.892  17.086  0.00  0.00    +0.000 A 
ATOM     20  C   UNL     1       6.842   5.256  15.877  0.00  0.00    +0.000 A 
ATOM     21  C   UNL     1       5.805   4.377  15.674  0.00  0.00    +0.000 A 
ATOM     22  C   UNL     1       4.888   4.093  16.662  0.00  0.00    +0.000 A 
ATOM     23  O   UNL     1       5.801   3.858  14.418  0.00  0.00    +0.000 OA
ATOM     24  C   UNL     1       6.951   4.518  13.850  0.00  0.00    +0.000 C 
ATOM     25  O   UNL     1       7.618   5.405  14.771  0.00  0.00    +0.000 OA
ENDBRANCH  16  17
ENDBRANCH  10  16
TORSDOF 2
ENDMDL
MODEL 2
REMARK VINA RESULT:      -7.6      5.048     10.054
REMARK  Name = 
REMARK  2 active torsions:
REMARK  status: ('A' for Active; 'I' for Inactive)
REMARK    1  A    between atoms: N_10  and  C_11
REMARK    2  A    between atoms: C_11  and  C_12
REMARK                            x       y       z     vdW  Elec       q    Type
REMARK                         _______ _______ _______ _____ _____    ______ ____
ROOT
ATOM      1  C   UNL     1       3.700   2.987  18.086  0.00  0.00    +0.000 A 
ATOM      2  C   UNL     1       4.446   3.575  17.070  0.00  0.00    +0.000 A 
ATOM      3  C   UNL     1       4.463   4.963  16.906  0.00  0.00    +0.000 A 
ATOM      4  C   UNL     1       3.700   5.745  17.789  0.00  0.00    +0.000 A 
ATOM      5  S   UNL     1       3.486   7.445  17.816  0.00  0.00    +0.000 S 
ATOM      6  C   UNL     1       2.414   7.311  19.170  0.00  0.00    +0.000 A 
ATOM      7  N   UNL     1       1.803   8.389  19.729  0.00  0.00    +0.000 N 
ATOM      8  C   UNL     1       1.399   9.558  18.947  0.00  0.00    +0.000 C 
ATOM      9  C   UNL     1      -0.081   9.936  19.225  0.00  0.00    +0.000 C 
ATOM     10  N   UNL     1      -0.463  10.029  20.656  0.00  0.00    +0.000 NA
ATOM     11  C   UNL     1      -0.085   8.746  21.298  0.00  0.00    +0.000 C 
ATOM     12  C   UNL     1       1.397   8.349  21.136  0.00  0.00    +0.000 C 
ATOM     13  N   UNL     1       2.277   6.083  19.621  0.00  0.00    +0.000 NA
ATOM     14  C   UNL     1       2.960   5.181  18.826  0.00  0.00    +0.000 A 
ATOM     15  C   UNL     1       2.962   3.779  18.973  0.00  0.00    +0.000 A 
ENDROOT
BRANCH  10  16
ATOM     16  C   UNL     1       0.184  11.201  21.271  0.00  0.00    +0.000 C 
BRANCH  16  17
ATOM     17  C   UNL     1      -0.735  12.069  22.105  0.00  0.00    +0.000 A 
ATOM     18  C   UNL     1      -0.419  13.425  22.350  0.00  0.00    +0.000 A 
ATOM     19  C   UNL     1      -1.238  14.219  23.159  0.00  0.00    +0.000 A 
ATOM     20  C   UNL     1      -2.362  13.637  23.703  0.00  0.00    +0.000 A 
ATOM     21  C   UNL     1      -2.684  12.324  23.461  0.00  0.00    +0.000 A 
ATOM     22  C   UNL     1      -1.897  11.515  22.670  0.00  0.00    +0.000 A 
ATOM     23  O   UNL     1      -3.829  11.943  24.088  0.00  0.00    +0.000 OA
ATOM     24  C   UNL     1      -4.188  13.168  24.760  0.00  0.00    +0.000 C 
ATOM     25  O   UNL     1      -3.262  14.248  24.519  0.00  0.00    +0.000 OA
ENDBRANCH  16  17
ENDBRANCH  10  16
TORSDOF 2
ENDMDL
MODEL 3
REMARK VINA RESULT:      -7.2      1.442      2.327
REMARK  Name = 
REMARK  2 active torsions:
REMARK  status: ('A' for Active; 'I' for Inactive)
REMARK    1  A    between atoms: N_10  and  C_11
REMARK    2  A    between atoms: C_11  and  C_12
REMARK                            x       y       z     vdW  Elec       q    Type
REMARK                         _______ _______ _______ _____ _____    ______ ____
ROOT
ATOM      1  C   UNL     1      -0.361  10.291  22.712  0.00  0.00    +0.000 A 
ATOM      2  C   UNL     1      -0.493  11.245  21.709  0.00  0.00    +0.000 A 
ATOM      3  C   UNL     1       0.009  11.009  20.426  0.00  0.00    +0.000 A 
ATOM      4  C   UNL     1       0.657   9.788  20.180  0.00  0.00    +0.000 A 
ATOM      5  S   UNL     1       1.405   9.232  18.742  0.00  0.00    +0.000 S 
ATOM      6  C   UNL     1       1.867   7.758  19.526  0.00  0.00    +0.000 A 
ATOM      7  N   UNL     1       2.586   6.790  18.898  0.00  0.00    +0.000 N 
ATOM      8  C   UNL     1       3.588   7.092  17.875  0.00  0.00    +0.000 C 
ATOM      9  C   UNL     1       4.933   6.378  18.179  0.00  0.00    +0.000 C 
ATOM     10  N   UNL     1       4.836   4.931  18.493  0.00  0.00    +0.000 NA
ATOM     11  C   UNL     1       3.864   4.786  19.605  0.00  0.00    +0.000 C 
ATOM     12  C   UNL     1       2.473   5.397  19.338  0.00  0.00    +0.000 C 
ATOM     13  N   UNL     1       1.432   7.654  20.763  0.00  0.00    +0.000 NA
ATOM     14  C   UNL     1       0.785   8.809  21.163  0.00  0.00    +0.000 A 
ATOM     15  C   UNL     1       0.268   9.068  22.449  0.00  0.00    +0.000 A 
ENDROOT
BRANCH  10  16
ATOM     16  C   UNL     1       4.455   4.181  17.285  0.00  0.00    +0.000 C 
BRANCH  16  17
ATOM     17  C   UNL     1       5.402   4.337  16.114  0.00  0.00    +0.000 A 
ATOM     18  C   UNL     1       6.599   5.076  16.249  0.00  0.00    +0.000 A 
ATOM     19  C   UNL     1       7.454   5.266  15.158  0.00  0.00    +0.000 A 
ATOM     20  C   UNL     1       7.092   4.705  13.953  0.00  0.00    +0.000 A 
ATOM     21  C   UNL     1       5.937   3.975  13.814  0.00  0.00    +0.000 A 
ATOM     22  C   UNL     1       5.073   3.773  14.869  0.00  0.00    +0.000 A 
ATOM     23  O   UNL     1       5.763   3.509  12.549  0.00  0.00    +0.000 OA
ATOM     24  C   UNL     1       6.940   4.037  11.904  0.00  0.00    +0.000 C 
ATOM     25  O   UNL     1       7.790   4.796  12.789  0.00  0.00    +0.000 OA
ENDBRANCH  16  17
ENDBRANCH  10  16
TORSDOF 2
ENDMDL
MODEL 4
REMARK VINA RESULT:      -7.1      5.057      9.967
REMARK  Name = 
REMARK  2 active torsions:
REMARK  status: ('A' for Active; 'I' for Inactive)
REMARK    1  A    between atoms: N_10  and  C_11
REMARK    2  A    between atoms: C_11  and  C_12
REMARK                            x       y       z     vdW  Elec       q    Type
REMARK                         _______ _______ _______ _____ _____    ______ ____
ROOT
ATOM      1  C   UNL     1       2.902   2.303  19.567  0.00  0.00    +0.000 A 
ATOM      2  C   UNL     1       3.707   2.581  18.467  0.00  0.00    +0.000 A 
ATOM      3  C   UNL     1       3.893   3.895  18.030  0.00  0.00    +0.000 A 
ATOM      4  C   UNL     1       3.239   4.925  18.725  0.00  0.00    +0.000 A 
ATOM      5  S   UNL     1       3.235   6.609  18.409  0.00  0.00    +0.000 S 
ATOM      6  C   UNL     1       2.164   6.880  19.743  0.00  0.00    +0.000 A 
ATOM      7  N   UNL     1       1.693   8.114  20.064  0.00  0.00    +0.000 N 
ATOM      8  C   UNL     1       1.430   9.143  19.058  0.00  0.00    +0.000 C 
ATOM      9  C   UNL     1       0.009   9.746  19.229  0.00  0.00    +0.000 C 
ATOM     10  N   UNL     1      -0.349  10.169  20.605  0.00  0.00    +0.000 NA
ATOM     11  C   UNL     1      -0.126   9.004  21.496  0.00  0.00    +0.000 C 
ATOM     12  C   UNL     1       1.295   8.406  21.444  0.00  0.00    +0.000 C 
ATOM     13  N   UNL     1       1.880   5.793  20.427  0.00  0.00    +0.000 NA
ATOM     14  C   UNL     1       2.442   4.674  19.840  0.00  0.00    +0.000 A 
ATOM     15  C   UNL     1       2.273   3.340  20.264  0.00  0.00    +0.000 A 
ENDROOT
BRANCH  10  16
ATOM     16  C   UNL     1       0.441  11.353  20.985  0.00  0.00    +0.000 C 
BRANCH  16  17
ATOM     17  C   UNL     1      -0.309  12.380  21.807  0.00  0.00    +0.000 A 
ATOM     18  C   UNL     1       0.173  13.704  21.921  0.00  0.00    +0.000 A 
ATOM     19  C   UNL     1      -0.488  14.645  22.717  0.00  0.00    +0.000 A 
ATOM     20  C   UNL     1      -1.626  14.238  23.381  0.00  0.00    +0.000 A 
ATOM     21  C   UNL     1      -2.109  12.957  23.267  0.00  0.00    +0.000 A 
ATOM     22  C   UNL     1      -1.479  12.008  22.492  0.00  0.00    +0.000 A 
ATOM     23  O   UNL     1      -3.238  12.759  23.998  0.00  0.00    +0.000 OA
ATOM     24  C   UNL     1      -3.406  14.062  24.593  0.00  0.00    +0.000 C 
ATOM     25  O   UNL     1      -2.387  15.007  24.204  0.00  0.00    +0.000 OA
ENDBRANCH  16  17
ENDBRANCH  10  16
TORSDOF 2
ENDMDL
MODEL 5
REMARK VINA RESULT:      -7.1      4.395      8.874
REMARK  Name = 
REMARK  2 active torsions:
REMARK  status: ('A' for Active; 'I' for Inactive)
REMARK    1  A    between atoms: N_10  and  C_11
REMARK    2  A    between atoms: C_11  and  C_12
REMARK                            x       y       z     vdW  Elec       q    Type
REMARK                         _______ _______ _______ _____ _____    ______ ____
ROOT
ATOM      1  C   UNL     1       2.131   1.936  19.139  0.00  0.00    +0.000 A 
ATOM      2  C   UNL     1       3.075   2.088  18.130  0.00  0.00    +0.000 A 
ATOM      3  C   UNL     1       3.531   3.356  17.759  0.00  0.00    +0.000 A 
ATOM      4  C   UNL     1       3.002   4.472  18.427  0.00  0.00    +0.000 A 
ATOM      5  S   UNL     1       3.325   6.136  18.173  0.00  0.00    +0.000 S 
ATOM      6  C   UNL     1       2.193   6.568  19.411  0.00  0.00    +0.000 A 
ATOM      7  N   UNL     1       1.917   7.860  19.732  0.00  0.00    +0.000 N 
ATOM      8  C   UNL     1       1.938   8.938  18.743  0.00  0.00    +0.000 C 
ATOM      9  C   UNL     1       0.636   9.781  18.803  0.00  0.00    +0.000 C 
ATOM     10  N   UNL     1       0.225  10.235  20.155  0.00  0.00    +0.000 NA
ATOM     11  C   UNL     1       0.152   9.032  21.021  0.00  0.00    +0.000 C 
ATOM     12  C   UNL     1       1.444   8.192  21.078  0.00  0.00    +0.000 C 
ATOM     13  N   UNL     1       1.658   5.536  20.027  0.00  0.00    +0.000 NA
ATOM     14  C   UNL     1       2.070   4.346  19.454  0.00  0.00    +0.000 A 
ATOM     15  C   UNL     1       1.628   3.056  19.813  0.00  0.00    +0.000 A 
ENDROOT
BRANCH  10  16
ATOM     16  C   UNL     1       1.169  11.252  20.649  0.00  0.00    +0.000 C 
BRANCH  16  17
ATOM     17  C   UNL     1       0.950  12.644  20.097  0.00  0.00    +0.000 A 
ATOM     18  C   UNL     1      -0.352  13.187  20.005  0.00  0.00    +0.000 A 
ATOM     19  C   UNL     1      -0.566  14.453  19.452  0.00  0.00    +0.000 A 
ATOM     20  C   UNL     1       0.533  15.154  19.004  0.00  0.00    +0.000 A 
ATOM     21  C   UNL     1       1.804  14.640  19.100  0.00  0.00    +0.000 A 
ATOM     22  C   UNL     1       2.047  13.395  19.638  0.00  0.00    +0.000 A 
ATOM     23  O   UNL     1       2.747  15.484  18.604  0.00  0.00    +0.000 OA
ATOM     24  C   UNL     1       1.922  16.588  18.177  0.00  0.00    +0.000 C 
ATOM     25  O   UNL     1       0.515  16.386  18.430  0.00  0.00    +0.000 OA
ENDBRANCH  16  17
ENDBRANCH  10  16
TORSDOF 2
ENDMDL
MODEL 6
REMARK VINA RESULT:      -7.1      5.268     10.373
REMARK  Name = 
REMARK  2 active torsions:
REMARK  status: ('A' for Active; 'I' for Inactive)
REMARK    1  A    between atoms: N_10  and  C_11
REMARK    2  A    between atoms: C_11  and  C_12
REMARK                            x       y       z     vdW  Elec       q    Type
REMARK                         _______ _______ _______ _____ _____    ______ ____
ROOT
ATOM      1  C   UNL     1       3.292   3.167  19.030  0.00  0.00    +0.000 A 
ATOM      2  C   UNL     1       3.868   3.654  17.862  0.00  0.00    +0.000 A 
ATOM      3  C   UNL     1       3.796   5.013  17.539  0.00  0.00    +0.000 A 
ATOM      4  C   UNL     1       3.119   5.869  18.423  0.00  0.00    +0.000 A 
ATOM      5  S   UNL     1       2.829   7.552  18.285  0.00  0.00    +0.000 S 
ATOM      6  C   UNL     1       1.952   7.546  19.779  0.00  0.00    +0.000 A 
ATOM      7  N   UNL     1       1.369   8.663  20.289  0.00  0.00    +0.000 N 
ATOM      8  C   UNL     1       0.809   9.716  19.442  0.00  0.00    +0.000 C 
ATOM      9  C   UNL     1      -0.638  10.075  19.875  0.00  0.00    +0.000 C 
ATOM     10  N   UNL     1      -0.832  10.327  21.324  0.00  0.00    +0.000 NA
ATOM     11  C   UNL     1      -0.311   9.143  22.050  0.00  0.00    +0.000 C 
ATOM     12  C   UNL     1       1.154   8.778  21.734  0.00  0.00    +0.000 C 
ATOM     13  N   UNL     1       1.935   6.377  20.381  0.00  0.00    +0.000 NA
ATOM     14  C   UNL     1       2.551   5.409  19.608  0.00  0.00    +0.000 A 
ATOM     15  C   UNL     1       2.640   4.035  19.913  0.00  0.00    +0.000 A 
ENDROOT
BRANCH  10  16
ATOM     16  C   UNL     1      -0.168  11.584  21.707  0.00  0.00    +0.000 C 
BRANCH  16  17
ATOM     17  C   UNL     1      -1.011  12.517  22.551  0.00  0.00    +0.000 A 
ATOM     18  C   UNL     1      -2.274  12.107  23.036  0.00  0.00    +0.000 A 
ATOM     19  C   UNL     1      -3.079  12.981  23.775  0.00  0.00    +0.000 A 
ATOM     20  C   UNL     1      -2.596  14.249  24.017  0.00  0.00    +0.000 A 
ATOM     21  C   UNL     1      -1.365  14.652  23.561  0.00  0.00    +0.000 A 
ATOM     22  C   UNL     1      -0.550  13.816  22.828  0.00  0.00    +0.000 A 
ATOM     23  O   UNL     1      -1.076  15.935  23.904  0.00  0.00    +0.000 OA
ATOM     24  C   UNL     1      -2.272  16.297  24.625  0.00  0.00    +0.000 C 
ATOM     25  O   UNL     1      -3.241  15.231  24.702  0.00  0.00    +0.000 OA
ENDBRANCH  16  17
ENDBRANCH  10  16
TORSDOF 2
ENDMDL
MODEL 7
REMARK VINA RESULT:      -7.1      4.623      9.011
REMARK  Name = 
REMARK  2 active torsions:
REMARK  status: ('A' for Active; 'I' for Inactive)
REMARK    1  A    between atoms: N_10  and  C_11
REMARK    2  A    between atoms: C_11  and  C_12
REMARK                            x       y       z     vdW  Elec       q    Type
REMARK                         _______ _______ _______ _____ _____    ______ ____
ROOT
ATOM      1  C   UNL     1       2.172   1.988  19.011  0.00  0.00    +0.000 A 
ATOM      2  C   UNL     1       3.073   2.181  17.969  0.00  0.00    +0.000 A 
ATOM      3  C   UNL     1       3.494   3.466  17.615  0.00  0.00    +0.000 A 
ATOM      4  C   UNL     1       2.975   4.555  18.333  0.00  0.00    +0.000 A 
ATOM      5  S   UNL     1       3.262   6.230  18.111  0.00  0.00    +0.000 S 
ATOM      6  C   UNL     1       2.174   6.611  19.404  0.00  0.00    +0.000 A 
ATOM      7  N   UNL     1       1.892   7.889  19.770  0.00  0.00    +0.000 N 
ATOM      8  C   UNL     1       1.857   8.994  18.810  0.00  0.00    +0.000 C 
ATOM      9  C   UNL     1       0.545   9.813  18.944  0.00  0.00    +0.000 C 
ATOM     10  N   UNL     1       0.182  10.225  20.322  0.00  0.00    +0.000 NA
ATOM     11  C   UNL     1       0.161   8.999  21.158  0.00  0.00    +0.000 C 
ATOM     12  C   UNL     1       1.468   8.178  21.142  0.00  0.00    +0.000 C 
ATOM     13  N   UNL     1       1.679   5.555  20.012  0.00  0.00    +0.000 NA
ATOM     14  C   UNL     1       2.086   4.387  19.392  0.00  0.00    +0.000 A 
ATOM     15  C   UNL     1       1.679   3.081  19.733  0.00  0.00    +0.000 A 
ENDROOT
BRANCH  10  16
ATOM     16  C   UNL     1       1.129  11.243  20.806  0.00  0.00    +0.000 C 
BRANCH  16  17
ATOM     17  C   UNL     1       1.020  12.589  20.121  0.00  0.00    +0.000 A 
ATOM     18  C   UNL     1       2.070  13.070  19.306  0.00  0.00    +0.000 A 
ATOM     19  C   UNL     1       1.997  14.333  18.709  0.00  0.00    +0.000 A 
ATOM     20  C   UNL     1       0.867  15.088  18.940  0.00  0.00    +0.000 A 
ATOM     21  C   UNL     1      -0.164  14.624  19.720  0.00  0.00    +0.000 A 
ATOM     22  C   UNL     1      -0.120  13.386  20.323  0.00  0.00    +0.000 A 
ATOM     23  O   UNL     1      -1.183  15.518  19.823  0.00  0.00    +0.000 OA
ATOM     24  C   UNL     1      -0.672  16.602  19.021  0.00  0.00    +0.000 C 
ATOM     25  O   UNL     1       0.629  16.336  18.456  0.00  0.00    +0.000 OA
ENDBRANCH  16  17
ENDBRANCH  10  16
TORSDOF 2
ENDMDL
MODEL 8
REMARK VINA RESULT:      -7.0      5.156     10.078
REMARK  Name = 
REMARK  2 active torsions:
REMARK  status: ('A' for Active; 'I' for Inactive)
REMARK    1  A    between atoms: N_10  and  C_11
REMARK    2  A    between atoms: C_11  and  C_12
REMARK                            x       y       z     vdW  Elec       q    Type
REMARK                         _______ _______ _______ _____ _____    ______ ____
ROOT
ATOM      1  C   UNL     1       5.256   5.212  16.484  0.00  0.00    +0.000 A 
ATOM      2  C   UNL     1       4.933   4.049  17.175  0.00  0.00    +0.000 A 
ATOM      3  C   UNL     1       3.988   4.067  18.204  0.00  0.00    +0.000 A 
ATOM      4  C   UNL     1       3.381   5.291  18.527  0.00  0.00    +0.000 A 
ATOM      5  S   UNL     1       2.233   5.638  19.752  0.00  0.00    +0.000 S 
ATOM      6  C   UNL     1       2.228   7.311  19.304  0.00  0.00    +0.000 A 
ATOM      7  N   UNL     1       1.482   8.241  19.957  0.00  0.00    +0.000 N 
ATOM      8  C   UNL     1       1.196   8.156  21.390  0.00  0.00    +0.000 C 
ATOM      9  C   UNL     1       1.524   9.492  22.109  0.00  0.00    +0.000 C 
ATOM     10  N   UNL     1       0.975  10.716  21.475  0.00  0.00    +0.000 NA
ATOM     11  C   UNL     1       1.422  10.719  20.060  0.00  0.00    +0.000 C 
ATOM     12  C   UNL     1       1.052   9.454  19.257  0.00  0.00    +0.000 C 
ATOM     13  N   UNL     1       2.981   7.586  18.262  0.00  0.00    +0.000 NA
ATOM     14  C   UNL     1       3.674   6.466  17.838  0.00  0.00    +0.000 A 
ATOM     15  C   UNL     1       4.628   6.422  16.801  0.00  0.00    +0.000 A 
ENDROOT
BRANCH  10  16
ATOM     16  C   UNL     1      -0.491  10.740  21.622  0.00  0.00    +0.000 C 
BRANCH  16  17
ATOM     17  C   UNL     1      -1.045  11.999  22.254  0.00  0.00    +0.000 A 
ATOM     18  C   UNL     1      -0.386  13.238  22.091  0.00  0.00    +0.000 A 
ATOM     19  C   UNL     1      -0.866  14.396  22.712  0.00  0.00    +0.000 A 
ATOM     20  C   UNL     1      -2.003  14.287  23.483  0.00  0.00    +0.000 A 
ATOM     21  C   UNL     1      -2.658  13.089  23.638  0.00  0.00    +0.000 A 
ATOM     22  C   UNL     1      -2.209  11.932  23.040  0.00  0.00    +0.000 A 
ATOM     23  O   UNL     1      -3.755  13.194  24.434  0.00  0.00    +0.000 OA
ATOM     24  C   UNL     1      -3.712  14.596  24.770  0.00  0.00    +0.000 C 
ATOM     25  O   UNL     1      -2.603  15.297  24.168  0.00  0.00    +0.000 OA
ENDBRANCH  16  17
ENDBRANCH  10  16
TORSDOF 2
ENDMDL
MODEL 9
REMARK VINA RESULT:      -6.9      2.764      4.929
REMARK  Name = 
REMARK  2 active torsions:
REMARK  status: ('A' for Active; 'I' for Inactive)
REMARK    1  A    between atoms: N_10  and  C_11
REMARK    2  A    between atoms: C_11  and  C_12
REMARK                            x       y       z     vdW  Elec       q    Type
REMARK                         _______ _______ _______ _____ _____    ______ ____
ROOT
ATOM      1  C   UNL     1      -1.842  15.893  23.692  0.00  0.00    +0.000 A 
ATOM      2  C   UNL     1      -2.782  16.033  22.677  0.00  0.00    +0.000 A 
ATOM      3  C   UNL     1      -3.010  14.999  21.764  0.00  0.00    +0.000 A 
ATOM      4  C   UNL     1      -2.258  13.820  21.895  0.00  0.00    +0.000 A 
ATOM      5  S   UNL     1      -2.278  12.412  20.918  0.00  0.00    +0.000 S 
ATOM      6  C   UNL     1      -1.038  11.693  21.890  0.00  0.00    +0.000 A 
ATOM      7  N   UNL     1      -0.516  10.467  21.621  0.00  0.00    +0.000 N 
ATOM      8  C   UNL     1      -0.377   9.953  20.258  0.00  0.00    +0.000 C 
ATOM      9  C   UNL     1       1.060   9.425  20.001  0.00  0.00    +0.000 C 
ATOM     10  N   UNL     1       1.601   8.504  21.031  0.00  0.00    +0.000 NA
ATOM     11  C   UNL     1       1.485   9.191  22.341  0.00  0.00    +0.000 C 
ATOM     12  C   UNL     1       0.063   9.668  22.703  0.00  0.00    +0.000 C 
ATOM     13  N   UNL     1      -0.678  12.426  22.922  0.00  0.00    +0.000 NA
ATOM     14  C   UNL     1      -1.325  13.649  22.915  0.00  0.00    +0.000 A 
ATOM     15  C   UNL     1      -1.115  14.704  23.825  0.00  0.00    +0.000 A 
ENDROOT
BRANCH  10  16
ATOM     16  C   UNL     1       0.881   7.220  20.982  0.00  0.00    +0.000 C 
BRANCH  16  17
ATOM     17  C   UNL     1       1.694   6.055  20.459  0.00  0.00    +0.000 A 
ATOM     18  C   UNL     1       1.251   4.725  20.643  0.00  0.00    +0.000 A 
ATOM     19  C   UNL     1       2.020   3.642  20.206  0.00  0.00    +0.000 A 
ATOM     20  C   UNL     1       3.221   3.917  19.587  0.00  0.00    +0.000 A 
ATOM     21  C   UNL     1       3.655   5.205  19.393  0.00  0.00    +0.000 A 
ATOM     22  C   UNL     1       2.921   6.292  19.814  0.00  0.00    +0.000 A 
ATOM     23  O   UNL     1       4.860   5.261  18.766  0.00  0.00    +0.000 OA
ATOM     24  C   UNL     1       5.139   3.856  18.594  0.00  0.00    +0.000 C 
ATOM     25  O   UNL     1       4.102   2.996  19.111  0.00  0.00    +0.000 OA
ENDBRANCH  16  17
ENDBRANCH  10  16
TORSDOF 2
ENDMDL
