MODEL 1
REMARK VINA RESULT:      -8.7      0.000      0.000
REMARK  Name = 
REMARK  12 active torsions:
REMARK  status: ('A' for Active; 'I' for Inactive)
REMARK    1  A    between atoms: C_1  and  O_2
REMARK    2  A    between atoms: O_2  and  C_3
REMARK    3  A    between atoms: C_5  and  O_6
REMARK    4  A    between atoms: O_6  and  C_7
REMARK    5  A    between atoms: C_9  and  C_10
REMARK    6  A    between atoms: N_12  and  C_13
REMARK    7  A    between atoms: C_13  and  C_14
REMARK    8  A    between atoms: C_14  and  O_16
REMARK    9  A    between atoms: O_16  and  C_17
REMARK   10  A    between atoms: C_17  and  C_18
REMARK   11  A    between atoms: C_30  and  C_31
REMARK   12  A    between atoms: C_30  and  C_32
REMARK                            x       y       z     vdW  Elec       q    Type
REMARK                         _______ _______ _______ _____ _____    ______ ____
ROOT
ATOM      1  O   UNL     1       2.427   7.529  18.983  0.00  0.00    +0.000 OA
ENDROOT
BRANCH   1   2
ATOM      2  C   UNL     1       2.225   8.480  18.037  0.00  0.00    +0.000 C 
ATOM      3  O   UNL     1       2.683   8.455  16.904  0.00  0.00    +0.000 OA
BRANCH   2   4
ATOM      4  C   UNL     1       1.491   9.681  18.625  0.00  0.00    +0.000 C 
BRANCH   4   7
ATOM      5  C   UNL     1      -0.897  10.253  18.702  0.00  0.00    +0.000 C 
ATOM      6  O   UNL     1      -0.866  10.366  19.924  0.00  0.00    +0.000 OA
ATOM      7  N   UNL     1       0.204   9.853  17.964  0.00  0.00    +0.000 N 
ATOM      8  H   UNL     1       0.225  10.051  16.972  0.00  0.00    +0.000 HD
BRANCH   5  13
ATOM      9  C   UNL     1      -3.514  10.569  15.969  0.00  0.00    +0.000 A 
ATOM     10  C   UNL     1      -4.483  11.308  16.654  0.00  0.00    +0.000 A 
ATOM     11  C   UNL     1      -4.292  11.695  17.986  0.00  0.00    +0.000 A 
ATOM     12  C   UNL     1      -3.123  11.324  18.640  0.00  0.00    +0.000 A 
ATOM     13  C   UNL     1      -2.127  10.599  17.951  0.00  0.00    +0.000 A 
ATOM     14  C   UNL     1      -2.336  10.206  16.626  0.00  0.00    +0.000 A 
BRANCH   9  16
ATOM     15  C   UNL     1      -2.800   9.787  13.834  0.00  0.00    +0.000 C 
ATOM     16  O   UNL     1      -3.839  10.273  14.675  0.00  0.00    +0.000 OA
ENDBRANCH   9  16
BRANCH  11  17
ATOM     17  O   UNL     1      -5.313  12.431  18.522  0.00  0.00    +0.000 OA
ATOM     18  C   UNL     1      -5.429  12.433  19.940  0.00  0.00    +0.000 C 
ENDBRANCH  11  17
ENDBRANCH   5  13
ENDBRANCH   4   7
ENDBRANCH   2   4
ENDBRANCH   1   2
BRANCH   1  19
ATOM     19  C   UNL     1       3.263   6.442  18.577  0.00  0.00    +0.000 C 
BRANCH  19  20
ATOM     20  C   UNL     1       2.522   5.089  18.472  0.00  0.00    +0.000 C 
ATOM     21  O   UNL     1       1.475   4.922  19.109  0.00  0.00    +0.000 OA
ATOM     22  N   UNL     1       3.166   4.029  17.743  0.00  0.00    +0.000 N 
ATOM     23  C   UNL     1       4.473   4.291  17.256  0.00  0.00    +0.000 A 
ATOM     24  C   UNL     1       4.703   4.531  15.908  0.00  0.00    +0.000 A 
ATOM     25  C   UNL     1       6.015   4.721  15.488  0.00  0.00    +0.000 A 
ATOM     26  C   UNL     1       7.060   4.738  16.425  0.00  0.00    +0.000 A 
ATOM     27  C   UNL     1       6.819   4.484  17.782  0.00  0.00    +0.000 A 
ATOM     28  C   UNL     1       5.528   4.177  18.179  0.00  0.00    +0.000 A 
ATOM     29  N   UNL     1       5.224   3.685  19.467  0.00  0.00    +0.000 N 
ATOM     30  C   UNL     1       4.036   2.985  19.729  0.00  0.00    +0.000 C 
ATOM     31  O   UNL     1       3.842   2.494  20.837  0.00  0.00    +0.000 OA
ATOM     32  C   UNL     1       3.143   2.708  18.466  0.00  0.00    +0.000 C 
ATOM     33  C   UNL     1       3.865   1.548  17.701  0.00  0.00    +0.000 C 
ATOM     34  C   UNL     1       1.717   2.179  18.727  0.00  0.00    +0.000 C 
ATOM     35  H   UNL     1       5.902   3.723  20.217  0.00  0.00    +0.000 HD
ENDBRANCH  19  20
ENDBRANCH   1  19
TORSDOF 8
ENDMDL
MODEL 2
REMARK VINA RESULT:      -8.7      0.632      2.266
REMARK  Name = 
REMARK  12 active torsions:
REMARK  status: ('A' for Active; 'I' for Inactive)
REMARK    1  A    between atoms: C_1  and  O_2
REMARK    2  A    between atoms: O_2  and  C_3
REMARK    3  A    between atoms: C_5  and  O_6
REMARK    4  A    between atoms: O_6  and  C_7
REMARK    5  A    between atoms: C_9  and  C_10
REMARK    6  A    between atoms: N_12  and  C_13
REMARK    7  A    between atoms: C_13  and  C_14
REMARK    8  A    between atoms: C_14  and  O_16
REMARK    9  A    between atoms: O_16  and  C_17
REMARK   10  A    between atoms: C_17  and  C_18
REMARK   11  A    between atoms: C_30  and  C_31
REMARK   12  A    between atoms: C_30  and  C_32
REMARK                            x       y       z     vdW  Elec       q    Type
REMARK                         _______ _______ _______ _____ _____    ______ ____
ROOT
ATOM      1  O   UNL     1       2.172   7.412  17.760  0.00  0.00    +0.000 OA
ENDROOT
BRANCH   1   2
ATOM      2  C   UNL     1       1.960   8.307  18.758  0.00  0.00    +0.000 C 
ATOM      3  O   UNL     1       1.802   8.024  19.936  0.00  0.00    +0.000 OA
BRANCH   2   4
ATOM      4  C   UNL     1       1.769   9.711  18.193  0.00  0.00    +0.000 C 
BRANCH   4   7
ATOM      5  C   UNL     1      -0.508  10.515  18.646  0.00  0.00    +0.000 C 
ATOM      6  O   UNL     1      -0.210  10.815  19.799  0.00  0.00    +0.000 OA
ATOM      7  N   UNL     1       0.383   9.901  17.784  0.00  0.00    +0.000 N 
ATOM      8  H   UNL     1       0.205   9.938  16.789  0.00  0.00    +0.000 HD
BRANCH   5  13
ATOM      9  C   UNL     1      -4.112  11.670  18.343  0.00  0.00    +0.000 A 
ATOM     10  C   UNL     1      -4.313  11.463  16.975  0.00  0.00    +0.000 A 
ATOM     11  C   UNL     1      -3.291  10.959  16.161  0.00  0.00    +0.000 A 
ATOM     12  C   UNL     1      -2.053  10.674  16.724  0.00  0.00    +0.000 A 
ATOM     13  C   UNL     1      -1.846  10.857  18.108  0.00  0.00    +0.000 A 
ATOM     14  C   UNL     1      -2.869  11.374  18.908  0.00  0.00    +0.000 A 
BRANCH   9  16
ATOM     15  C   UNL     1      -6.453  12.117  18.331  0.00  0.00    +0.000 C 
ATOM     16  O   UNL     1      -5.203  12.158  19.007  0.00  0.00    +0.000 OA
ENDBRANCH   9  16
BRANCH  11  17
ATOM     17  O   UNL     1      -3.636  10.787  14.848  0.00  0.00    +0.000 OA
ATOM     18  C   UNL     1      -2.925   9.790  14.122  0.00  0.00    +0.000 C 
ENDBRANCH  11  17
ENDBRANCH   5  13
ENDBRANCH   4   7
ENDBRANCH   2   4
ENDBRANCH   1   2
BRANCH   1  19
ATOM     19  C   UNL     1       3.061   6.342  18.089  0.00  0.00    +0.000 C 
BRANCH  19  20
ATOM     20  C   UNL     1       2.396   4.946  18.066  0.00  0.00    +0.000 C 
ATOM     21  O   UNL     1       1.276   4.802  18.572  0.00  0.00    +0.000 OA
ATOM     22  N   UNL     1       3.178   3.840  17.581  0.00  0.00    +0.000 N 
ATOM     23  C   UNL     1       4.529   4.112  17.245  0.00  0.00    +0.000 A 
ATOM     24  C   UNL     1       4.939   4.192  15.921  0.00  0.00    +0.000 A 
ATOM     25  C   UNL     1       6.289   4.402  15.661  0.00  0.00    +0.000 A 
ATOM     26  C   UNL     1       7.189   4.597  16.720  0.00  0.00    +0.000 A 
ATOM     27  C   UNL     1       6.768   4.504  18.054  0.00  0.00    +0.000 A 
ATOM     28  C   UNL     1       5.446   4.177  18.309  0.00  0.00    +0.000 A 
ATOM     29  N   UNL     1       4.981   3.836  19.599  0.00  0.00    +0.000 N 
ATOM     30  C   UNL     1       3.796   3.109  19.788  0.00  0.00    +0.000 C 
ATOM     31  O   UNL     1       3.466   2.752  20.915  0.00  0.00    +0.000 OA
ATOM     32  C   UNL     1       3.103   2.623  18.463  0.00  0.00    +0.000 C 
ATOM     33  C   UNL     1       3.971   1.418  17.966  0.00  0.00    +0.000 C 
ATOM     34  C   UNL     1       1.676   2.051  18.597  0.00  0.00    +0.000 C 
ATOM     35  H   UNL     1       5.544   4.008  20.421  0.00  0.00    +0.000 HD
ENDBRANCH  19  20
ENDBRANCH   1  19
TORSDOF 8
ENDMDL
MODEL 3
REMARK VINA RESULT:      -8.5      1.586      2.753
REMARK  Name = 
REMARK  12 active torsions:
REMARK  status: ('A' for Active; 'I' for Inactive)
REMARK    1  A    between atoms: C_1  and  O_2
REMARK    2  A    between atoms: O_2  and  C_3
REMARK    3  A    between atoms: C_5  and  O_6
REMARK    4  A    between atoms: O_6  and  C_7
REMARK    5  A    between atoms: C_9  and  C_10
REMARK    6  A    between atoms: N_12  and  C_13
REMARK    7  A    between atoms: C_13  and  C_14
REMARK    8  A    between atoms: C_14  and  O_16
REMARK    9  A    between atoms: O_16  and  C_17
REMARK   10  A    between atoms: C_17  and  C_18
REMARK   11  A    between atoms: C_30  and  C_31
REMARK   12  A    between atoms: C_30  and  C_32
REMARK                            x       y       z     vdW  Elec       q    Type
REMARK                         _______ _______ _______ _____ _____    ______ ____
ROOT
ATOM      1  O   UNL     1       2.272   7.824  19.492  0.00  0.00    +0.000 OA
ENDROOT
BRANCH   1   2
ATOM      2  C   UNL     1       1.527   7.925  20.621  0.00  0.00    +0.000 C 
ATOM      3  O   UNL     1       1.119   6.982  21.283  0.00  0.00    +0.000 OA
BRANCH   2   4
ATOM      4  C   UNL     1       1.112   9.372  20.867  0.00  0.00    +0.000 C 
BRANCH   4   7
ATOM      5  C   UNL     1      -0.201  10.556  19.161  0.00  0.00    +0.000 C 
ATOM      6  O   UNL     1       0.770  11.233  18.833  0.00  0.00    +0.000 OA
ATOM      7  N   UNL     1      -0.156   9.648  20.204  0.00  0.00    +0.000 N 
ATOM      8  H   UNL     1      -0.860   8.922  20.250  0.00  0.00    +0.000 HD
BRANCH   5  13
ATOM      9  C   UNL     1      -3.744  11.419  18.104  0.00  0.00    +0.000 A 
ATOM     10  C   UNL     1      -3.789  10.762  16.870  0.00  0.00    +0.000 A 
ATOM     11  C   UNL     1      -2.684  10.052  16.386  0.00  0.00    +0.000 A 
ATOM     12  C   UNL     1      -1.518  10.013  17.142  0.00  0.00    +0.000 A 
ATOM     13  C   UNL     1      -1.468  10.653  18.399  0.00  0.00    +0.000 A 
ATOM     14  C   UNL     1      -2.574  11.370  18.865  0.00  0.00    +0.000 A 
BRANCH   9  16
ATOM     15  C   UNL     1      -5.688  12.597  17.389  0.00  0.00    +0.000 C 
ATOM     16  O   UNL     1      -4.901  12.062  18.445  0.00  0.00    +0.000 OA
ENDBRANCH   9  16
BRANCH  11  17
ATOM     17  O   UNL     1      -2.879   9.441  15.177  0.00  0.00    +0.000 OA
ATOM     18  C   UNL     1      -3.716  10.116  14.244  0.00  0.00    +0.000 C 
ENDBRANCH  11  17
ENDBRANCH   5  13
ENDBRANCH   4   7
ENDBRANCH   2   4
ENDBRANCH   1   2
BRANCH   1  19
ATOM     19  C   UNL     1       3.189   6.726  19.471  0.00  0.00    +0.000 C 
BRANCH  19  20
ATOM     20  C   UNL     1       2.885   5.679  18.375  0.00  0.00    +0.000 C 
ATOM     21  O   UNL     1       1.776   5.131  18.353  0.00  0.00    +0.000 OA
ATOM     22  N   UNL     1       3.964   5.284  17.510  0.00  0.00    +0.000 N 
ATOM     23  C   UNL     1       5.244   5.827  17.796  0.00  0.00    +0.000 A 
ATOM     24  C   UNL     1       5.791   6.831  17.007  0.00  0.00    +0.000 A 
ATOM     25  C   UNL     1       7.074   7.277  17.307  0.00  0.00    +0.000 A 
ATOM     26  C   UNL     1       7.755   6.767  18.422  0.00  0.00    +0.000 A 
ATOM     27  C   UNL     1       7.199   5.746  19.205  0.00  0.00    +0.000 A 
ATOM     28  C   UNL     1       5.972   5.221  18.834  0.00  0.00    +0.000 A 
ATOM     29  N   UNL     1       5.439   4.048  19.413  0.00  0.00    +0.000 N 
ATOM     30  C   UNL     1       4.449   3.292  18.769  0.00  0.00    +0.000 C 
ATOM     31  O   UNL     1       4.069   2.231  19.257  0.00  0.00    +0.000 OA
ATOM     32  C   UNL     1       4.069   3.793  17.329  0.00  0.00    +0.000 C 
ATOM     33  C   UNL     1       5.257   3.341  16.413  0.00  0.00    +0.000 C 
ATOM     34  C   UNL     1       2.816   3.165  16.683  0.00  0.00    +0.000 C 
ATOM     35  H   UNL     1       5.834   3.655  20.257  0.00  0.00    +0.000 HD
ENDBRANCH  19  20
ENDBRANCH   1  19
TORSDOF 8
ENDMDL
MODEL 4
REMARK VINA RESULT:      -8.4      1.562      3.143
REMARK  Name = 
REMARK  12 active torsions:
REMARK  status: ('A' for Active; 'I' for Inactive)
REMARK    1  A    between atoms: C_1  and  O_2
REMARK    2  A    between atoms: O_2  and  C_3
REMARK    3  A    between atoms: C_5  and  O_6
REMARK    4  A    between atoms: O_6  and  C_7
REMARK    5  A    between atoms: C_9  and  C_10
REMARK    6  A    between atoms: N_12  and  C_13
REMARK    7  A    between atoms: C_13  and  C_14
REMARK    8  A    between atoms: C_14  and  O_16
REMARK    9  A    between atoms: O_16  and  C_17
REMARK   10  A    between atoms: C_17  and  C_18
REMARK   11  A    between atoms: C_30  and  C_31
REMARK   12  A    between atoms: C_30  and  C_32
REMARK                            x       y       z     vdW  Elec       q    Type
REMARK                         _______ _______ _______ _____ _____    ______ ____
ROOT
ATOM      1  O   UNL     1       1.999   8.251  17.699  0.00  0.00    +0.000 OA
ENDROOT
BRANCH   1   2
ATOM      2  C   UNL     1       1.749   8.780  18.923  0.00  0.00    +0.000 C 
ATOM      3  O   UNL     1       1.754   8.156  19.974  0.00  0.00    +0.000 OA
BRANCH   2   4
ATOM      4  C   UNL     1       1.288  10.229  18.802  0.00  0.00    +0.000 C 
BRANCH   4   7
ATOM      5  C   UNL     1      -1.103  10.789  18.750  0.00  0.00    +0.000 C 
ATOM      6  O   UNL     1      -1.096  11.085  19.942  0.00  0.00    +0.000 OA
ATOM      7  N   UNL     1       0.012  10.290  18.101  0.00  0.00    +0.000 N 
ATOM      8  H   UNL     1       0.051  10.337  17.091  0.00  0.00    +0.000 HD
BRANCH   5  13
ATOM      9  C   UNL     1      -3.529  11.023  15.839  0.00  0.00    +0.000 A 
ATOM     10  C   UNL     1      -4.673  11.454  16.518  0.00  0.00    +0.000 A 
ATOM     11  C   UNL     1      -4.659  11.662  17.902  0.00  0.00    +0.000 A 
ATOM     12  C   UNL     1      -3.488  11.421  18.613  0.00  0.00    +0.000 A 
ATOM     13  C   UNL     1      -2.321  11.009  17.935  0.00  0.00    +0.000 A 
ATOM     14  C   UNL     1      -2.352  10.792  16.554  0.00  0.00    +0.000 A 
BRANCH   9  16
ATOM     15  C   UNL     1      -2.999   9.806  13.860  0.00  0.00    +0.000 C 
ATOM     16  O   UNL     1      -3.695  10.873  14.490  0.00  0.00    +0.000 OA
ENDBRANCH   9  16
BRANCH  11  17
ATOM     17  O   UNL     1      -5.842  12.104  18.428  0.00  0.00    +0.000 OA
ATOM     18  C   UNL     1      -6.857  11.128  18.637  0.00  0.00    +0.000 C 
ENDBRANCH  11  17
ENDBRANCH   5  13
ENDBRANCH   4   7
ENDBRANCH   2   4
ENDBRANCH   1   2
BRANCH   1  19
ATOM     19  C   UNL     1       2.291   6.851  17.695  0.00  0.00    +0.000 C 
BRANCH  19  20
ATOM     20  C   UNL     1       3.747   6.516  18.093  0.00  0.00    +0.000 C 
ATOM     21  O   UNL     1       4.676   7.148  17.574  0.00  0.00    +0.000 OA
ATOM     22  N   UNL     1       3.963   5.378  18.946  0.00  0.00    +0.000 N 
ATOM     23  C   UNL     1       2.820   4.606  19.281  0.00  0.00    +0.000 A 
ATOM     24  C   UNL     1       2.249   4.677  20.545  0.00  0.00    +0.000 A 
ATOM     25  C   UNL     1       1.168   3.848  20.826  0.00  0.00    +0.000 A 
ATOM     26  C   UNL     1       0.636   3.021  19.826  0.00  0.00    +0.000 A 
ATOM     27  C   UNL     1       1.226   2.947  18.557  0.00  0.00    +0.000 A 
ATOM     28  C   UNL     1       2.374   3.685  18.317  0.00  0.00    +0.000 A 
ATOM     29  N   UNL     1       3.166   3.506  17.162  0.00  0.00    +0.000 N 
ATOM     30  C   UNL     1       4.508   3.914  17.117  0.00  0.00    +0.000 C 
ATOM     31  O   UNL     1       5.195   3.665  16.130  0.00  0.00    +0.000 OA
ATOM     32  C   UNL     1       5.071   4.477  18.472  0.00  0.00    +0.000 C 
ATOM     33  C   UNL     1       5.301   3.217  19.374  0.00  0.00    +0.000 C 
ATOM     34  C   UNL     1       6.446   5.175  18.416  0.00  0.00    +0.000 C 
ATOM     35  H   UNL     1       2.826   2.977  16.370  0.00  0.00    +0.000 HD
ENDBRANCH  19  20
ENDBRANCH   1  19
TORSDOF 8
ENDMDL
MODEL 5
REMARK VINA RESULT:      -8.4      5.216      9.264
REMARK  Name = 
REMARK  12 active torsions:
REMARK  status: ('A' for Active; 'I' for Inactive)
REMARK    1  A    between atoms: C_1  and  O_2
REMARK    2  A    between atoms: O_2  and  C_3
REMARK    3  A    between atoms: C_5  and  O_6
REMARK    4  A    between atoms: O_6  and  C_7
REMARK    5  A    between atoms: C_9  and  C_10
REMARK    6  A    between atoms: N_12  and  C_13
REMARK    7  A    between atoms: C_13  and  C_14
REMARK    8  A    between atoms: C_14  and  O_16
REMARK    9  A    between atoms: O_16  and  C_17
REMARK   10  A    between atoms: C_17  and  C_18
REMARK   11  A    between atoms: C_30  and  C_31
REMARK   12  A    between atoms: C_30  and  C_32
REMARK                            x       y       z     vdW  Elec       q    Type
REMARK                         _______ _______ _______ _____ _____    ______ ____
ROOT
ATOM      1  O   UNL     1       6.806   4.578  18.971  0.00  0.00    +0.000 OA
ENDROOT
BRANCH   1   2
ATOM      2  C   UNL     1       7.651   5.569  19.353  0.00  0.00    +0.000 C 
ATOM      3  O   UNL     1       8.233   5.623  20.427  0.00  0.00    +0.000 OA
BRANCH   2   4
ATOM      4  C   UNL     1       7.649   6.704  18.335  0.00  0.00    +0.000 C 
BRANCH   4   7
ATOM      5  C   UNL     1       8.433   9.027  18.179  0.00  0.00    +0.000 C 
ATOM      6  O   UNL     1       7.753   9.226  17.177  0.00  0.00    +0.000 OA
ATOM      7  N   UNL     1       8.505   7.790  18.796  0.00  0.00    +0.000 N 
ATOM      8  H   UNL     1       8.827   7.739  19.753  0.00  0.00    +0.000 HD
BRANCH   5  13
ATOM      9  C   UNL     1       9.740  11.561  20.687  0.00  0.00    +0.000 A 
ATOM     10  C   UNL     1      10.642  12.254  19.874  0.00  0.00    +0.000 A 
ATOM     11  C   UNL     1      10.827  11.902  18.532  0.00  0.00    +0.000 A 
ATOM     12  C   UNL     1      10.110  10.834  18.005  0.00  0.00    +0.000 A 
ATOM     13  C   UNL     1       9.178  10.142  18.809  0.00  0.00    +0.000 A 
ATOM     14  C   UNL     1       9.013  10.495  20.152  0.00  0.00    +0.000 A 
BRANCH   9  16
ATOM     15  C   UNL     1       9.404  13.412  22.150  0.00  0.00    +0.000 C 
ATOM     16  O   UNL     1       9.663  12.025  21.970  0.00  0.00    +0.000 OA
ENDBRANCH   9  16
BRANCH  11  17
ATOM     17  O   UNL     1      11.724  12.680  17.853  0.00  0.00    +0.000 OA
ATOM     18  C   UNL     1      11.187  13.701  17.019  0.00  0.00    +0.000 C 
ENDBRANCH  11  17
ENDBRANCH   5  13
ENDBRANCH   4   7
ENDBRANCH   2   4
ENDBRANCH   1   2
BRANCH   1  19
ATOM     19  C   UNL     1       5.421   4.933  18.973  0.00  0.00    +0.000 C 
BRANCH  19  20
ATOM     20  C   UNL     1       4.509   3.891  19.662  0.00  0.00    +0.000 C 
ATOM     21  O   UNL     1       4.930   2.740  19.834  0.00  0.00    +0.000 OA
ATOM     22  N   UNL     1       3.152   4.273  19.945  0.00  0.00    +0.000 N 
ATOM     23  C   UNL     1       2.738   5.550  19.485  0.00  0.00    +0.000 A 
ATOM     24  C   UNL     1       2.575   6.612  20.364  0.00  0.00    +0.000 A 
ATOM     25  C   UNL     1       2.110   7.821  19.857  0.00  0.00    +0.000 A 
ATOM     26  C   UNL     1       1.884   7.967  18.480  0.00  0.00    +0.000 A 
ATOM     27  C   UNL     1       2.041   6.886  17.602  0.00  0.00    +0.000 A 
ATOM     28  C   UNL     1       2.389   5.652  18.127  0.00  0.00    +0.000 A 
ATOM     29  N   UNL     1       2.347   4.462  17.368  0.00  0.00    +0.000 N 
ATOM     30  C   UNL     1       2.277   3.200  17.977  0.00  0.00    +0.000 C 
ATOM     31  O   UNL     1       2.153   2.190  17.289  0.00  0.00    +0.000 OA
ATOM     32  C   UNL     1       2.142   3.231  19.542  0.00  0.00    +0.000 C 
ATOM     33  C   UNL     1       0.655   3.641  19.816  0.00  0.00    +0.000 C 
ATOM     34  C   UNL     1       2.321   1.888  20.281  0.00  0.00    +0.000 C 
ATOM     35  H   UNL     1       2.254   4.486  16.361  0.00  0.00    +0.000 HD
ENDBRANCH  19  20
ENDBRANCH   1  19
TORSDOF 8
ENDMDL
MODEL 6
REMARK VINA RESULT:      -8.3      2.989      3.908
REMARK  Name = 
REMARK  12 active torsions:
REMARK  status: ('A' for Active; 'I' for Inactive)
REMARK    1  A    between atoms: C_1  and  O_2
REMARK    2  A    between atoms: O_2  and  C_3
REMARK    3  A    between atoms: C_5  and  O_6
REMARK    4  A    between atoms: O_6  and  C_7
REMARK    5  A    between atoms: C_9  and  C_10
REMARK    6  A    between atoms: N_12  and  C_13
REMARK    7  A    between atoms: C_13  and  C_14
REMARK    8  A    between atoms: C_14  and  O_16
REMARK    9  A    between atoms: O_16  and  C_17
REMARK   10  A    between atoms: C_17  and  C_18
REMARK   11  A    between atoms: C_30  and  C_31
REMARK   12  A    between atoms: C_30  and  C_32
REMARK                            x       y       z     vdW  Elec       q    Type
REMARK                         _______ _______ _______ _____ _____    ______ ____
ROOT
ATOM      1  O   UNL     1       2.986   6.610  19.249  0.00  0.00    +0.000 OA
ENDROOT
BRANCH   1   2
ATOM      2  C   UNL     1       2.175   7.665  19.517  0.00  0.00    +0.000 C 
ATOM      3  O   UNL     1       2.000   8.624  18.779  0.00  0.00    +0.000 OA
BRANCH   2   4
ATOM      4  C   UNL     1       1.640   7.587  20.942  0.00  0.00    +0.000 C 
BRANCH   4   7
ATOM      5  C   UNL     1       0.715   9.550  22.096  0.00  0.00    +0.000 C 
ATOM      6  O   UNL     1       1.655   9.572  22.886  0.00  0.00    +0.000 OA
ATOM      7  N   UNL     1       0.577   8.567  21.132  0.00  0.00    +0.000 N 
ATOM      8  H   UNL     1      -0.025   8.742  20.338  0.00  0.00    +0.000 HD
BRANCH   5  13
ATOM      9  C   UNL     1      -2.230  11.747  23.049  0.00  0.00    +0.000 A 
ATOM     10  C   UNL     1      -2.143  12.711  22.039  0.00  0.00    +0.000 A 
ATOM     11  C   UNL     1      -1.140  12.651  21.065  0.00  0.00    +0.000 A 
ATOM     12  C   UNL     1      -0.207  11.621  21.114  0.00  0.00    +0.000 A 
ATOM     13  C   UNL     1      -0.299  10.629  22.114  0.00  0.00    +0.000 A 
ATOM     14  C   UNL     1      -1.298  10.708  23.089  0.00  0.00    +0.000 A 
BRANCH   9  16
ATOM     15  C   UNL     1      -3.942  13.185  23.876  0.00  0.00    +0.000 C 
ATOM     16  O   UNL     1      -3.266  11.935  23.921  0.00  0.00    +0.000 OA
ENDBRANCH   9  16
BRANCH  11  17
ATOM     17  O   UNL     1      -1.189  13.646  20.128  0.00  0.00    +0.000 OA
ATOM     18  C   UNL     1      -0.414  13.459  18.949  0.00  0.00    +0.000 C 
ENDBRANCH  11  17
ENDBRANCH   5  13
ENDBRANCH   4   7
ENDBRANCH   2   4
ENDBRANCH   1   2
BRANCH   1  19
ATOM     19  C   UNL     1       2.824   6.041  17.947  0.00  0.00    +0.000 C 
BRANCH  19  20
ATOM     20  C   UNL     1       2.284   4.592  17.962  0.00  0.00    +0.000 C 
ATOM     21  O   UNL     1       1.160   4.371  18.429  0.00  0.00    +0.000 OA
ATOM     22  N   UNL     1       3.178   3.540  17.558  0.00  0.00    +0.000 N 
ATOM     23  C   UNL     1       4.515   3.916  17.264  0.00  0.00    +0.000 A 
ATOM     24  C   UNL     1       4.973   3.976  15.954  0.00  0.00    +0.000 A 
ATOM     25  C   UNL     1       6.310   4.293  15.739  0.00  0.00    +0.000 A 
ATOM     26  C   UNL     1       7.142   4.611  16.822  0.00  0.00    +0.000 A 
ATOM     27  C   UNL     1       6.674   4.537  18.141  0.00  0.00    +0.000 A 
ATOM     28  C   UNL     1       5.375   4.106  18.359  0.00  0.00    +0.000 A 
ATOM     29  N   UNL     1       4.887   3.780  19.644  0.00  0.00    +0.000 N 
ATOM     30  C   UNL     1       3.762   2.960  19.819  0.00  0.00    +0.000 C 
ATOM     31  O   UNL     1       3.415   2.623  20.948  0.00  0.00    +0.000 OA
ATOM     32  C   UNL     1       3.171   2.359  18.492  0.00  0.00    +0.000 C 
ATOM     33  C   UNL     1       4.161   1.216  18.085  0.00  0.00    +0.000 C 
ATOM     34  C   UNL     1       1.795   1.669  18.595  0.00  0.00    +0.000 C 
ATOM     35  H   UNL     1       5.397   4.035  20.479  0.00  0.00    +0.000 HD
ENDBRANCH  19  20
ENDBRANCH   1  19
TORSDOF 8
ENDMDL
MODEL 7
REMARK VINA RESULT:      -8.3      1.566      3.790
REMARK  Name = 
REMARK  12 active torsions:
REMARK  status: ('A' for Active; 'I' for Inactive)
REMARK    1  A    between atoms: C_1  and  O_2
REMARK    2  A    between atoms: O_2  and  C_3
REMARK    3  A    between atoms: C_5  and  O_6
REMARK    4  A    between atoms: O_6  and  C_7
REMARK    5  A    between atoms: C_9  and  C_10
REMARK    6  A    between atoms: N_12  and  C_13
REMARK    7  A    between atoms: C_13  and  C_14
REMARK    8  A    between atoms: C_14  and  O_16
REMARK    9  A    between atoms: O_16  and  C_17
REMARK   10  A    between atoms: C_17  and  C_18
REMARK   11  A    between atoms: C_30  and  C_31
REMARK   12  A    between atoms: C_30  and  C_32
REMARK                            x       y       z     vdW  Elec       q    Type
REMARK                         _______ _______ _______ _____ _____    ______ ____
ROOT
ATOM      1  O   UNL     1       1.782   8.210  17.540  0.00  0.00    +0.000 OA
ENDROOT
BRANCH   1   2
ATOM      2  C   UNL     1       1.737   8.836  18.743  0.00  0.00    +0.000 C 
ATOM      3  O   UNL     1       1.798   8.279  19.830  0.00  0.00    +0.000 OA
BRANCH   2   4
ATOM      4  C   UNL     1       1.424  10.319  18.571  0.00  0.00    +0.000 C 
BRANCH   4   7
ATOM      5  C   UNL     1      -1.017  10.553  18.713  0.00  0.00    +0.000 C 
ATOM      6  O   UNL     1      -1.000  10.369  19.927  0.00  0.00    +0.000 OA
ATOM      7  N   UNL     1       0.124  10.484  17.933  0.00  0.00    +0.000 N 
ATOM      8  H   UNL     1       0.119  10.918  17.019  0.00  0.00    +0.000 HD
BRANCH   5  13
ATOM      9  C   UNL     1      -4.540  11.785  18.012  0.00  0.00    +0.000 A 
ATOM     10  C   UNL     1      -4.601  11.556  16.635  0.00  0.00    +0.000 A 
ATOM     11  C   UNL     1      -3.513  11.013  15.941  0.00  0.00    +0.000 A 
ATOM     12  C   UNL     1      -2.348  10.710  16.636  0.00  0.00    +0.000 A 
ATOM     13  C   UNL     1      -2.282  10.915  18.031  0.00  0.00    +0.000 A 
ATOM     14  C   UNL     1      -3.371  11.471  18.710  0.00  0.00    +0.000 A 
BRANCH   9  16
ATOM     15  C   UNL     1      -6.597  12.935  17.659  0.00  0.00    +0.000 C 
ATOM     16  O   UNL     1      -5.682  12.311  18.550  0.00  0.00    +0.000 OA
ENDBRANCH   9  16
BRANCH  11  17
ATOM     17  O   UNL     1      -3.722  10.824  14.602  0.00  0.00    +0.000 OA
ATOM     18  C   UNL     1      -2.900   9.860  13.953  0.00  0.00    +0.000 C 
ENDBRANCH  11  17
ENDBRANCH   5  13
ENDBRANCH   4   7
ENDBRANCH   2   4
ENDBRANCH   1   2
BRANCH   1  19
ATOM     19  C   UNL     1       2.155   6.831  17.591  0.00  0.00    +0.000 C 
BRANCH  19  20
ATOM     20  C   UNL     1       3.620   6.595  18.024  0.00  0.00    +0.000 C 
ATOM     21  O   UNL     1       4.521   7.261  17.497  0.00  0.00    +0.000 OA
ATOM     22  N   UNL     1       3.885   5.504  18.923  0.00  0.00    +0.000 N 
ATOM     23  C   UNL     1       2.783   4.679  19.268  0.00  0.00    +0.000 A 
ATOM     24  C   UNL     1       2.186   4.763  20.519  0.00  0.00    +0.000 A 
ATOM     25  C   UNL     1       1.149   3.884  20.814  0.00  0.00    +0.000 A 
ATOM     26  C   UNL     1       0.683   2.991  19.837  0.00  0.00    +0.000 A 
ATOM     27  C   UNL     1       1.299   2.906  18.581  0.00  0.00    +0.000 A 
ATOM     28  C   UNL     1       2.407   3.699  18.332  0.00  0.00    +0.000 A 
ATOM     29  N   UNL     1       3.230   3.525  17.197  0.00  0.00    +0.000 N 
ATOM     30  C   UNL     1       4.546   4.008  17.158  0.00  0.00    +0.000 C 
ATOM     31  O   UNL     1       5.264   3.763  16.193  0.00  0.00    +0.000 OA
ATOM     32  C   UNL     1       5.052   4.651  18.500  0.00  0.00    +0.000 C 
ATOM     33  C   UNL     1       5.337   3.440  19.452  0.00  0.00    +0.000 C 
ATOM     34  C   UNL     1       6.385   5.425  18.440  0.00  0.00    +0.000 C 
ATOM     35  H   UNL     1       2.934   2.949  16.420  0.00  0.00    +0.000 HD
ENDBRANCH  19  20
ENDBRANCH   1  19
TORSDOF 8
ENDMDL
MODEL 8
REMARK VINA RESULT:      -8.2      1.364      1.534
REMARK  Name = 
REMARK  12 active torsions:
REMARK  status: ('A' for Active; 'I' for Inactive)
REMARK    1  A    between atoms: C_1  and  O_2
REMARK    2  A    between atoms: O_2  and  C_3
REMARK    3  A    between atoms: C_5  and  O_6
REMARK    4  A    between atoms: O_6  and  C_7
REMARK    5  A    between atoms: C_9  and  C_10
REMARK    6  A    between atoms: N_12  and  C_13
REMARK    7  A    between atoms: C_13  and  C_14
REMARK    8  A    between atoms: C_14  and  O_16
REMARK    9  A    between atoms: O_16  and  C_17
REMARK   10  A    between atoms: C_17  and  C_18
REMARK   11  A    between atoms: C_30  and  C_31
REMARK   12  A    between atoms: C_30  and  C_32
REMARK                            x       y       z     vdW  Elec       q    Type
REMARK                         _______ _______ _______ _____ _____    ______ ____
ROOT
ATOM      1  O   UNL     1       2.286   7.689  19.582  0.00  0.00    +0.000 OA
ENDROOT
BRANCH   1   2
ATOM      2  C   UNL     1       1.399   8.357  20.363  0.00  0.00    +0.000 C 
ATOM      3  O   UNL     1       0.792   7.875  21.308  0.00  0.00    +0.000 OA
BRANCH   2   4
ATOM      4  C   UNL     1       1.123   9.747  19.801  0.00  0.00    +0.000 C 
BRANCH   4   7
ATOM      5  C   UNL     1      -1.100  10.503  19.078  0.00  0.00    +0.000 C 
ATOM      6  O   UNL     1      -1.233  11.190  20.087  0.00  0.00    +0.000 OA
ATOM      7  N   UNL     1       0.005   9.696  18.868  0.00  0.00    +0.000 N 
ATOM      8  H   UNL     1       0.212   9.386  17.927  0.00  0.00    +0.000 HD
BRANCH   5  13
ATOM      9  C   UNL     1      -2.818  10.329  15.696  0.00  0.00    +0.000 A 
ATOM     10  C   UNL     1      -4.117  10.682  16.072  0.00  0.00    +0.000 A 
ATOM     11  C   UNL     1      -4.433  10.968  17.406  0.00  0.00    +0.000 A 
ATOM     12  C   UNL     1      -3.437  10.886  18.372  0.00  0.00    +0.000 A 
ATOM     13  C   UNL     1      -2.116  10.554  18.001  0.00  0.00    +0.000 A 
ATOM     14  C   UNL     1      -1.817  10.257  16.668  0.00  0.00    +0.000 A 
BRANCH   9  16
ATOM     15  C   UNL     1      -3.838  10.028  13.563  0.00  0.00    +0.000 C 
ATOM     16  O   UNL     1      -2.662  10.087  14.360  0.00  0.00    +0.000 OA
ENDBRANCH   9  16
BRANCH  11  17
ATOM     17  O   UNL     1      -5.737  11.319  17.624  0.00  0.00    +0.000 OA
ATOM     18  C   UNL     1      -6.099  12.664  17.330  0.00  0.00    +0.000 C 
ENDBRANCH  11  17
ENDBRANCH   5  13
ENDBRANCH   4   7
ENDBRANCH   2   4
ENDBRANCH   1   2
BRANCH   1  19
ATOM     19  C   UNL     1       2.742   6.444  20.117  0.00  0.00    +0.000 C 
BRANCH  19  20
ATOM     20  C   UNL     1       2.235   5.207  19.340  0.00  0.00    +0.000 C 
ATOM     21  O   UNL     1       1.242   4.598  19.757  0.00  0.00    +0.000 OA
ATOM     22  N   UNL     1       3.033   4.734  18.241  0.00  0.00    +0.000 N 
ATOM     23  C   UNL     1       4.268   5.395  18.017  0.00  0.00    +0.000 A 
ATOM     24  C   UNL     1       4.430   6.279  16.959  0.00  0.00    +0.000 A 
ATOM     25  C   UNL     1       5.684   6.846  16.761  0.00  0.00    +0.000 A 
ATOM     26  C   UNL     1       6.729   6.578  17.658  0.00  0.00    +0.000 A 
ATOM     27  C   UNL     1       6.559   5.676  18.718  0.00  0.00    +0.000 A 
ATOM     28  C   UNL     1       5.344   5.022  18.842  0.00  0.00    +0.000 A 
ATOM     29  N   UNL     1       5.151   3.937  19.725  0.00  0.00    +0.000 N 
ATOM     30  C   UNL     1       4.101   3.022  19.551  0.00  0.00    +0.000 C 
ATOM     31  O   UNL     1       4.012   2.040  20.282  0.00  0.00    +0.000 OA
ATOM     32  C   UNL     1       3.243   3.244  18.253  0.00  0.00    +0.000 C 
ATOM     33  C   UNL     1       4.133   2.713  17.079  0.00  0.00    +0.000 C 
ATOM     34  C   UNL     1       1.930   2.440  18.143  0.00  0.00    +0.000 C 
ATOM     35  H   UNL     1       5.827   3.719  20.444  0.00  0.00    +0.000 HD
ENDBRANCH  19  20
ENDBRANCH   1  19
TORSDOF 8
ENDMDL
MODEL 9
REMARK VINA RESULT:      -8.2      3.077      3.396
REMARK  Name = 
REMARK  12 active torsions:
REMARK  status: ('A' for Active; 'I' for Inactive)
REMARK    1  A    between atoms: C_1  and  O_2
REMARK    2  A    between atoms: O_2  and  C_3
REMARK    3  A    between atoms: C_5  and  O_6
REMARK    4  A    between atoms: O_6  and  C_7
REMARK    5  A    between atoms: C_9  and  C_10
REMARK    6  A    between atoms: N_12  and  C_13
REMARK    7  A    between atoms: C_13  and  C_14
REMARK    8  A    between atoms: C_14  and  O_16
REMARK    9  A    between atoms: O_16  and  C_17
REMARK   10  A    between atoms: C_17  and  C_18
REMARK   11  A    between atoms: C_30  and  C_31
REMARK   12  A    between atoms: C_30  and  C_32
REMARK                            x       y       z     vdW  Elec       q    Type
REMARK                         _______ _______ _______ _____ _____    ______ ____
ROOT
ATOM      1  O   UNL     1       2.878   6.857  19.485  0.00  0.00    +0.000 OA
ENDROOT
BRANCH   1   2
ATOM      2  C   UNL     1       2.017   7.901  19.587  0.00  0.00    +0.000 C 
ATOM      3  O   UNL     1       1.821   8.739  18.719  0.00  0.00    +0.000 OA
BRANCH   2   4
ATOM      4  C   UNL     1       1.447   7.997  20.998  0.00  0.00    +0.000 C 
BRANCH   4   7
ATOM      5  C   UNL     1       0.342   9.843  22.184  0.00  0.00    +0.000 C 
ATOM      6  O   UNL     1       1.010   9.640  23.195  0.00  0.00    +0.000 OA
ATOM      7  N   UNL     1       0.435   9.043  21.059  0.00  0.00    +0.000 N 
ATOM      8  H   UNL     1       0.101   9.404  20.174  0.00  0.00    +0.000 HD
BRANCH   5  13
ATOM      9  C   UNL     1      -1.388  13.037  21.078  0.00  0.00    +0.000 A 
ATOM     10  C   UNL     1      -2.342  13.152  22.094  0.00  0.00    +0.000 A 
ATOM     11  C   UNL     1      -2.426  12.205  23.121  0.00  0.00    +0.000 A 
ATOM     12  C   UNL     1      -1.552  11.124  23.121  0.00  0.00    +0.000 A 
ATOM     13  C   UNL     1      -0.569  11.009  22.114  0.00  0.00    +0.000 A 
ATOM     14  C   UNL     1      -0.505  11.954  21.086  0.00  0.00    +0.000 A 
BRANCH   9  16
ATOM     15  C   UNL     1      -0.438  14.022  19.127  0.00  0.00    +0.000 C 
ATOM     16  O   UNL     1      -1.424  14.041  20.152  0.00  0.00    +0.000 OA
ENDBRANCH   9  16
BRANCH  11  17
ATOM     17  O   UNL     1      -3.392  12.457  24.057  0.00  0.00    +0.000 OA
ATOM     18  C   UNL     1      -4.630  12.971  23.580  0.00  0.00    +0.000 C 
ENDBRANCH  11  17
ENDBRANCH   5  13
ENDBRANCH   4   7
ENDBRANCH   2   4
ENDBRANCH   1   2
BRANCH   1  19
ATOM     19  C   UNL     1       2.930   6.241  18.196  0.00  0.00    +0.000 C 
BRANCH  19  20
ATOM     20  C   UNL     1       2.308   4.826  18.155  0.00  0.00    +0.000 C 
ATOM     21  O   UNL     1       1.199   4.637  18.671  0.00  0.00    +0.000 OA
ATOM     22  N   UNL     1       3.117   3.754  17.639  0.00  0.00    +0.000 N 
ATOM     23  C   UNL     1       4.455   4.075  17.292  0.00  0.00    +0.000 A 
ATOM     24  C   UNL     1       4.845   4.192  15.964  0.00  0.00    +0.000 A 
ATOM     25  C   UNL     1       6.185   4.448  15.692  0.00  0.00    +0.000 A 
ATOM     26  C   UNL     1       7.091   4.652  16.744  0.00  0.00    +0.000 A 
ATOM     27  C   UNL     1       6.690   4.521  18.081  0.00  0.00    +0.000 A 
ATOM     28  C   UNL     1       5.383   4.148  18.346  0.00  0.00    +0.000 A 
ATOM     29  N   UNL     1       4.945   3.769  19.634  0.00  0.00    +0.000 N 
ATOM     30  C   UNL     1       3.786   3.001  19.823  0.00  0.00    +0.000 C 
ATOM     31  O   UNL     1       3.481   2.613  20.948  0.00  0.00    +0.000 OA
ATOM     32  C   UNL     1       3.091   2.519  18.499  0.00  0.00    +0.000 C 
ATOM     33  C   UNL     1       3.990   1.351  17.968  0.00  0.00    +0.000 C 
ATOM     34  C   UNL     1       1.685   1.900  18.638  0.00  0.00    +0.000 C 
ATOM     35  H   UNL     1       5.513   3.942  20.453  0.00  0.00    +0.000 HD
ENDBRANCH  19  20
ENDBRANCH   1  19
TORSDOF 8
ENDMDL
