MODEL 1
REMARK VINA RESULT:      -8.8      0.000      0.000
REMARK  Name = 
REMARK  10 active torsions:
REMARK  status: ('A' for Active; 'I' for Inactive)
REMARK    1  A    between atoms: C_1  and  C_2
REMARK    2  A    between atoms: C_2  and  C_3
REMARK    3  A    between atoms: C_2  and  C_4
REMARK    4  A    between atoms: C_9  and  N_10
REMARK    5  A    between atoms: C_15  and  O_16
REMARK    6  A    between atoms: C_20  and  C_21
REMARK    7  A    between atoms: C_20  and  C_22
REMARK    8  A    between atoms: C_25  and  C_26
REMARK    9  A    between atoms: C_27  and  C_28
REMARK   10  A    between atoms: C_28  and  O_30
REMARK                            x       y       z     vdW  Elec       q    Type
REMARK                         _______ _______ _______ _____ _____    ______ ____
ROOT
ATOM      1  N   UNL     1       0.503  11.451  19.281  0.00  0.00    +0.000 N 
ATOM      2  C   UNL     1       1.229  12.428  20.189  0.00  0.00    +0.000 C 
ATOM      3  C   UNL     1       0.643  13.860  20.358  0.00  0.00    +0.000 C 
ATOM      4  C   UNL     1      -0.871  13.834  20.721  0.00  0.00    +0.000 A 
ATOM      5  C   UNL     1      -1.110  14.678  21.813  0.00  0.00    +0.000 A 
ATOM      6  C   UNL     1      -0.997  14.050  23.025  0.00  0.00    +0.000 A 
ATOM      7  C   UNL     1      -1.076  12.654  23.068  0.00  0.00    +0.000 A 
ATOM      8  C   UNL     1      -1.334  11.881  21.872  0.00  0.00    +0.000 A 
ATOM      9  C   UNL     1      -1.342  12.501  20.598  0.00  0.00    +0.000 A 
ATOM     10  C   UNL     1      -0.974  11.835  19.162  0.00  0.00    +0.000 C 
ATOM     11  C   UNL     1      -0.924  13.040  18.082  0.00  0.00    +0.000 C 
ENDROOT
BRANCH   1  17
ATOM     12  C   UNL     1       1.096   9.153  20.191  0.00  0.00    +0.000 A 
ATOM     13  C   UNL     1       1.728   7.895  19.977  0.00  0.00    +0.000 A 
ATOM     14  C   UNL     1       2.386   7.592  18.798  0.00  0.00    +0.000 A 
ATOM     15  C   UNL     1       2.385   8.528  17.786  0.00  0.00    +0.000 A 
ATOM     16  C   UNL     1       1.715   9.760  17.950  0.00  0.00    +0.000 A 
ATOM     17  C   UNL     1       1.066  10.156  19.146  0.00  0.00    +0.000 A 
BRANCH  12  19
ATOM     18  C   UNL     1      -0.643   8.267  21.765  0.00  0.00    +0.000 C 
ATOM     19  C   UNL     1       0.469   9.318  21.575  0.00  0.00    +0.000 C 
ATOM     20  C   UNL     1       1.393   9.279  22.802  0.00  0.00    +0.000 C 
ENDBRANCH  12  19
ENDBRANCH   1  17
BRANCH  10  21
ATOM     21  C   UNL     1      -2.023  10.980  18.270  0.00  0.00    +0.000 A 
ATOM     22  C   UNL     1      -1.498   9.901  17.496  0.00  0.00    +0.000 A 
ATOM     23  C   UNL     1      -1.939   9.625  16.186  0.00  0.00    +0.000 A 
ATOM     24  C   UNL     1      -3.072  10.244  15.654  0.00  0.00    +0.000 A 
ATOM     25  C   UNL     1      -3.778  11.094  16.513  0.00  0.00    +0.000 A 
ATOM     26  C   UNL     1      -3.255  11.477  17.795  0.00  0.00    +0.000 A 
BRANCH  24  27
ATOM     27  C   UNL     1      -3.310  10.086  14.196  0.00  0.00    +0.000 C 
ATOM     28  C   UNL     1      -4.465   9.876  13.531  0.00  0.00    +0.000 C 
BRANCH  28  29
ATOM     29  C   UNL     1      -4.403   9.737  12.050  0.00  0.00    +0.000 C 
ATOM     30  O   UNL     1      -5.374   9.720  11.302  0.00  0.00    +0.000 OA
BRANCH  29  31
ATOM     31  O   UNL     1      -3.146   9.626  11.589  0.00  0.00    +0.000 OA
ATOM     32  H   UNL     1      -2.992   9.968  10.691  0.00  0.00    +0.000 HD
ENDBRANCH  29  31
ENDBRANCH  28  29
ENDBRANCH  24  27
ENDBRANCH  10  21
BRANCH   6  33
ATOM     33  O   UNL     1      -0.618  14.769  24.125  0.00  0.00    +0.000 OA
ATOM     34  H   UNL     1      -1.348  14.765  24.771  0.00  0.00    +0.000 HD
ENDBRANCH   6  33
TORSDOF 7
ENDMDL
MODEL 2
REMARK VINA RESULT:      -8.2      2.064      3.976
REMARK  Name = 
REMARK  10 active torsions:
REMARK  status: ('A' for Active; 'I' for Inactive)
REMARK    1  A    between atoms: C_1  and  C_2
REMARK    2  A    between atoms: C_2  and  C_3
REMARK    3  A    between atoms: C_2  and  C_4
REMARK    4  A    between atoms: C_9  and  N_10
REMARK    5  A    between atoms: C_15  and  O_16
REMARK    6  A    between atoms: C_20  and  C_21
REMARK    7  A    between atoms: C_20  and  C_22
REMARK    8  A    between atoms: C_25  and  C_26
REMARK    9  A    between atoms: C_27  and  C_28
REMARK   10  A    between atoms: C_28  and  O_30
REMARK                            x       y       z     vdW  Elec       q    Type
REMARK                         _______ _______ _______ _____ _____    ______ ____
ROOT
ATOM      1  N   UNL     1       0.362  12.487  20.665  0.00  0.00    +0.000 N 
ATOM      2  C   UNL     1       1.562  13.379  20.935  0.00  0.00    +0.000 C 
ATOM      3  C   UNL     1       2.658  13.500  19.837  0.00  0.00    +0.000 C 
ATOM      4  C   UNL     1       2.054  13.841  18.442  0.00  0.00    +0.000 A 
ATOM      5  C   UNL     1       2.761  14.906  17.869  0.00  0.00    +0.000 A 
ATOM      6  C   UNL     1       2.250  16.136  18.188  0.00  0.00    +0.000 A 
ATOM      7  C   UNL     1       0.933  16.217  18.654  0.00  0.00    +0.000 A 
ATOM      8  C   UNL     1       0.097  15.039  18.744  0.00  0.00    +0.000 A 
ATOM      9  C   UNL     1       0.641  13.748  18.527  0.00  0.00    +0.000 A 
ATOM     10  C   UNL     1       0.141  12.336  19.158  0.00  0.00    +0.000 C 
ATOM     11  C   UNL     1       1.250  11.225  18.764  0.00  0.00    +0.000 C 
ENDROOT
BRANCH   1  17
ATOM     12  C   UNL     1      -0.838  11.231  22.520  0.00  0.00    +0.000 A 
ATOM     13  C   UNL     1      -1.878  11.216  23.492  0.00  0.00    +0.000 A 
ATOM     14  C   UNL     1      -2.755  12.274  23.651  0.00  0.00    +0.000 A 
ATOM     15  C   UNL     1      -2.578  13.396  22.868  0.00  0.00    +0.000 A 
ATOM     16  C   UNL     1      -1.518  13.460  21.938  0.00  0.00    +0.000 A 
ATOM     17  C   UNL     1      -0.616  12.396  21.688  0.00  0.00    +0.000 A 
BRANCH  12  19
ATOM     18  C   UNL     1       0.081   9.328  23.871  0.00  0.00    +0.000 C 
ATOM     19  C   UNL     1      -0.009   9.948  22.462  0.00  0.00    +0.000 C 
ATOM     20  C   UNL     1      -0.433   8.852  21.472  0.00  0.00    +0.000 C 
ENDBRANCH  12  19
ENDBRANCH   1  17
BRANCH  10  21
ATOM     21  C   UNL     1      -1.070  11.452  18.543  0.00  0.00    +0.000 A 
ATOM     22  C   UNL     1      -0.729  10.211  17.928  0.00  0.00    +0.000 A 
ATOM     23  C   UNL     1      -1.340   9.763  16.739  0.00  0.00    +0.000 A 
ATOM     24  C   UNL     1      -2.472  10.394  16.221  0.00  0.00    +0.000 A 
ATOM     25  C   UNL     1      -3.002  11.443  16.979  0.00  0.00    +0.000 A 
ATOM     26  C   UNL     1      -2.305  11.984  18.113  0.00  0.00    +0.000 A 
BRANCH  24  27
ATOM     27  C   UNL     1      -2.890  10.015  14.846  0.00  0.00    +0.000 C 
ATOM     28  C   UNL     1      -4.081  10.179  14.234  0.00  0.00    +0.000 C 
BRANCH  28  29
ATOM     29  C   UNL     1      -4.223   9.682  12.838  0.00  0.00    +0.000 C 
ATOM     30  O   UNL     1      -3.297   9.514  12.051  0.00  0.00    +0.000 OA
BRANCH  29  31
ATOM     31  O   UNL     1      -5.498   9.425  12.502  0.00  0.00    +0.000 OA
ATOM     32  H   UNL     1      -5.638   9.063  11.610  0.00  0.00    +0.000 HD
ENDBRANCH  29  31
ENDBRANCH  28  29
ENDBRANCH  24  27
ENDBRANCH  10  21
BRANCH   6  33
ATOM     33  O   UNL     1       3.081  17.222  18.233  0.00  0.00    +0.000 OA
ATOM     34  H   UNL     1       2.774  17.881  17.583  0.00  0.00    +0.000 HD
ENDBRANCH   6  33
TORSDOF 7
ENDMDL
MODEL 3
REMARK VINA RESULT:      -8.1      1.082      2.281
REMARK  Name = 
REMARK  10 active torsions:
REMARK  status: ('A' for Active; 'I' for Inactive)
REMARK    1  A    between atoms: C_1  and  C_2
REMARK    2  A    between atoms: C_2  and  C_3
REMARK    3  A    between atoms: C_2  and  C_4
REMARK    4  A    between atoms: C_9  and  N_10
REMARK    5  A    between atoms: C_15  and  O_16
REMARK    6  A    between atoms: C_20  and  C_21
REMARK    7  A    between atoms: C_20  and  C_22
REMARK    8  A    between atoms: C_25  and  C_26
REMARK    9  A    between atoms: C_27  and  C_28
REMARK   10  A    between atoms: C_28  and  O_30
REMARK                            x       y       z     vdW  Elec       q    Type
REMARK                         _______ _______ _______ _____ _____    ______ ____
ROOT
ATOM      1  N   UNL     1       0.135  11.996  19.945  0.00  0.00    +0.000 N 
ATOM      2  C   UNL     1       0.836  13.195  20.558  0.00  0.00    +0.000 C 
ATOM      3  C   UNL     1       0.502  14.612  20.005  0.00  0.00    +0.000 C 
ATOM      4  C   UNL     1      -1.032  14.872  19.951  0.00  0.00    +0.000 A 
ATOM      5  C   UNL     1      -1.321  16.114  20.531  0.00  0.00    +0.000 A 
ATOM      6  C   UNL     1      -1.566  16.044  21.877  0.00  0.00    +0.000 A 
ATOM      7  C   UNL     1      -1.908  14.807  22.435  0.00  0.00    +0.000 A 
ATOM      8  C   UNL     1      -2.065  13.630  21.608  0.00  0.00    +0.000 A 
ATOM      9  C   UNL     1      -1.707  13.658  20.236  0.00  0.00    +0.000 A 
ATOM     10  C   UNL     1      -1.193  12.421  19.314  0.00  0.00    +0.000 C 
ATOM     11  C   UNL     1      -0.711  13.054  17.905  0.00  0.00    +0.000 C 
ENDROOT
BRANCH   1  17
ATOM     12  C   UNL     1       1.085   9.649  19.714  0.00  0.00    +0.000 A 
ATOM     13  C   UNL     1       1.335   8.383  20.315  0.00  0.00    +0.000 A 
ATOM     14  C   UNL     1       0.953   8.094  21.613  0.00  0.00    +0.000 A 
ATOM     15  C   UNL     1       0.351   9.088  22.357  0.00  0.00    +0.000 A 
ATOM     16  C   UNL     1       0.145  10.371  21.805  0.00  0.00    +0.000 A 
ATOM     17  C   UNL     1       0.465  10.719  20.469  0.00  0.00    +0.000 A 
BRANCH  12  19
ATOM     18  C   UNL     1       2.368  11.040  18.070  0.00  0.00    +0.000 C 
ATOM     19  C   UNL     1       1.533   9.757  18.257  0.00  0.00    +0.000 C 
ATOM     20  C   UNL     1       2.304   8.579  17.644  0.00  0.00    +0.000 C 
ENDBRANCH  12  19
ENDBRANCH   1  17
BRANCH  10  21
ATOM     21  C   UNL     1      -2.185  11.367  18.586  0.00  0.00    +0.000 A 
ATOM     22  C   UNL     1      -1.601  10.445  17.667  0.00  0.00    +0.000 A 
ATOM     23  C   UNL     1      -2.219  10.097  16.448  0.00  0.00    +0.000 A 
ATOM     24  C   UNL     1      -3.540  10.454  16.175  0.00  0.00    +0.000 A 
ATOM     25  C   UNL     1      -4.232  11.111  17.199  0.00  0.00    +0.000 A 
ATOM     26  C   UNL     1      -3.565  11.582  18.380  0.00  0.00    +0.000 A 
BRANCH  24  27
ATOM     27  C   UNL     1      -4.019  10.268  14.781  0.00  0.00    +0.000 C 
ATOM     28  C   UNL     1      -3.372   9.761  13.711  0.00  0.00    +0.000 C 
BRANCH  28  29
ATOM     29  C   UNL     1      -4.101   9.710  12.414  0.00  0.00    +0.000 C 
ATOM     30  O   UNL     1      -5.314   9.577  12.291  0.00  0.00    +0.000 OA
BRANCH  29  31
ATOM     31  O   UNL     1      -3.287   9.823  11.352  0.00  0.00    +0.000 OA
ATOM     32  H   UNL     1      -2.534   9.207  11.326  0.00  0.00    +0.000 HD
ENDBRANCH  29  31
ENDBRANCH  28  29
ENDBRANCH  24  27
ENDBRANCH  10  21
BRANCH   6  33
ATOM     33  O   UNL     1      -1.285  17.121  22.671  0.00  0.00    +0.000 OA
ATOM     34  H   UNL     1      -0.360  17.392  22.521  0.00  0.00    +0.000 HD
ENDBRANCH   6  33
TORSDOF 7
ENDMDL
MODEL 4
REMARK VINA RESULT:      -7.9      2.402      5.040
REMARK  Name = 
REMARK  10 active torsions:
REMARK  status: ('A' for Active; 'I' for Inactive)
REMARK    1  A    between atoms: C_1  and  C_2
REMARK    2  A    between atoms: C_2  and  C_3
REMARK    3  A    between atoms: C_2  and  C_4
REMARK    4  A    between atoms: C_9  and  N_10
REMARK    5  A    between atoms: C_15  and  O_16
REMARK    6  A    between atoms: C_20  and  C_21
REMARK    7  A    between atoms: C_20  and  C_22
REMARK    8  A    between atoms: C_25  and  C_26
REMARK    9  A    between atoms: C_27  and  C_28
REMARK   10  A    between atoms: C_28  and  O_30
REMARK                            x       y       z     vdW  Elec       q    Type
REMARK                         _______ _______ _______ _____ _____    ______ ____
ROOT
ATOM      1  N   UNL     1      -0.599  13.260  21.566  0.00  0.00    +0.000 N 
ATOM      2  C   UNL     1       0.457  14.290  21.926  0.00  0.00    +0.000 C 
ATOM      3  C   UNL     1       1.815  14.257  21.166  0.00  0.00    +0.000 C 
ATOM      4  C   UNL     1       1.621  14.223  19.621  0.00  0.00    +0.000 A 
ATOM      5  C   UNL     1       2.438  15.189  19.021  0.00  0.00    +0.000 A 
ATOM      6  C   UNL     1       1.832  16.410  18.886  0.00  0.00    +0.000 A 
ATOM      7  C   UNL     1       0.436  16.478  18.949  0.00  0.00    +0.000 A 
ATOM      8  C   UNL     1      -0.367  15.282  19.090  0.00  0.00    +0.000 A 
ATOM      9  C   UNL     1       0.243  14.028  19.343  0.00  0.00    +0.000 A 
ATOM     10  C   UNL     1      -0.384  12.755  20.137  0.00  0.00    +0.000 C 
ATOM     11  C   UNL     1       0.814  11.685  20.333  0.00  0.00    +0.000 C 
ENDROOT
BRANCH   1  17
ATOM     12  C   UNL     1      -2.697  14.470  22.338  0.00  0.00    +0.000 A 
ATOM     13  C   UNL     1      -3.885  14.447  23.123  0.00  0.00    +0.000 A 
ATOM     14  C   UNL     1      -4.231  13.360  23.905  0.00  0.00    +0.000 A 
ATOM     15  C   UNL     1      -3.416  12.247  23.881  0.00  0.00    +0.000 A 
ATOM     16  C   UNL     1      -2.264  12.221  23.065  0.00  0.00    +0.000 A 
ATOM     17  C   UNL     1      -1.823  13.316  22.281  0.00  0.00    +0.000 A 
BRANCH  12  19
ATOM     18  C   UNL     1      -3.697  16.109  20.726  0.00  0.00    +0.000 C 
ATOM     19  C   UNL     1      -2.460  15.779  21.586  0.00  0.00    +0.000 C 
ATOM     20  C   UNL     1      -2.084  17.027  22.398  0.00  0.00    +0.000 C 
ENDBRANCH  12  19
ENDBRANCH   1  17
BRANCH  10  21
ATOM     21  C   UNL     1      -1.355  11.655  19.450  0.00  0.00    +0.000 A 
ATOM     22  C   UNL     1      -0.733  10.534  18.822  0.00  0.00    +0.000 A 
ATOM     23  C   UNL     1      -1.190  10.004  17.597  0.00  0.00    +0.000 A 
ATOM     24  C   UNL     1      -2.411  10.396  17.045  0.00  0.00    +0.000 A 
ATOM     25  C   UNL     1      -3.180  11.285  17.804  0.00  0.00    +0.000 A 
ATOM     26  C   UNL     1      -2.658  11.925  18.979  0.00  0.00    +0.000 A 
BRANCH  24  27
ATOM     27  C   UNL     1      -2.687   9.981  15.645  0.00  0.00    +0.000 C 
ATOM     28  C   UNL     1      -3.495  10.546  14.725  0.00  0.00    +0.000 C 
BRANCH  28  29
ATOM     29  C   UNL     1      -3.592   9.897  13.389  0.00  0.00    +0.000 C 
ATOM     30  O   UNL     1      -4.639   9.601  12.822  0.00  0.00    +0.000 OA
BRANCH  29  31
ATOM     31  O   UNL     1      -2.391   9.654  12.838  0.00  0.00    +0.000 OA
ATOM     32  H   UNL     1      -1.627   9.731  13.436  0.00  0.00    +0.000 HD
ENDBRANCH  29  31
ENDBRANCH  28  29
ENDBRANCH  24  27
ENDBRANCH  10  21
BRANCH   6  33
ATOM     33  O   UNL     1       2.594  17.546  18.890  0.00  0.00    +0.000 OA
ATOM     34  H   UNL     1       2.217  18.181  18.253  0.00  0.00    +0.000 HD
ENDBRANCH   6  33
TORSDOF 7
ENDMDL
MODEL 5
REMARK VINA RESULT:      -7.8      1.830      3.045
REMARK  Name = 
REMARK  10 active torsions:
REMARK  status: ('A' for Active; 'I' for Inactive)
REMARK    1  A    between atoms: C_1  and  C_2
REMARK    2  A    between atoms: C_2  and  C_3
REMARK    3  A    between atoms: C_2  and  C_4
REMARK    4  A    between atoms: C_9  and  N_10
REMARK    5  A    between atoms: C_15  and  O_16
REMARK    6  A    between atoms: C_20  and  C_21
REMARK    7  A    between atoms: C_20  and  C_22
REMARK    8  A    between atoms: C_25  and  C_26
REMARK    9  A    between atoms: C_27  and  C_28
REMARK   10  A    between atoms: C_28  and  O_30
REMARK                            x       y       z     vdW  Elec       q    Type
REMARK                         _______ _______ _______ _____ _____    ______ ____
ROOT
ATOM      1  N   UNL     1       0.237  12.273  20.218  0.00  0.00    +0.000 N 
ATOM      2  C   UNL     1       1.141  13.459  20.502  0.00  0.00    +0.000 C 
ATOM      3  C   UNL     1       1.323  14.535  19.391  0.00  0.00    +0.000 C 
ATOM      4  C   UNL     1      -0.042  15.038  18.834  0.00  0.00    +0.000 A 
ATOM      5  C   UNL     1      -0.055  16.438  18.808  0.00  0.00    +0.000 A 
ATOM      6  C   UNL     1      -0.528  17.002  19.963  0.00  0.00    +0.000 A 
ATOM      7  C   UNL     1      -1.297  16.217  20.829  0.00  0.00    +0.000 A 
ATOM      8  C   UNL     1      -1.645  14.853  20.493  0.00  0.00    +0.000 A 
ATOM      9  C   UNL     1      -1.074  14.219  19.361  0.00  0.00    +0.000 A 
ATOM     10  C   UNL     1      -0.791  12.633  19.143  0.00  0.00    +0.000 C 
ATOM     11  C   UNL     1       0.078  12.492  17.784  0.00  0.00    +0.000 C 
ENDROOT
BRANCH   1  17
ATOM     12  C   UNL     1      -0.746  11.462  22.418  0.00  0.00    +0.000 A 
ATOM     13  C   UNL     1      -0.785  10.458  23.426  0.00  0.00    +0.000 A 
ATOM     14  C   UNL     1       0.011   9.328  23.373  0.00  0.00    +0.000 A 
ATOM     15  C   UNL     1       0.833   9.154  22.278  0.00  0.00    +0.000 A 
ATOM     16  C   UNL     1       0.846  10.106  21.235  0.00  0.00    +0.000 A 
ATOM     17  C   UNL     1       0.097  11.309  21.250  0.00  0.00    +0.000 A 
BRANCH  12  19
ATOM     18  C   UNL     1      -3.022  12.162  23.203  0.00  0.00    +0.000 C 
ATOM     19  C   UNL     1      -1.659  12.659  22.682  0.00  0.00    +0.000 C 
ATOM     20  C   UNL     1      -1.153  13.767  23.619  0.00  0.00    +0.000 C 
ENDBRANCH  12  19
ENDBRANCH   1  17
BRANCH  10  21
ATOM     21  C   UNL     1      -1.910  11.581  18.625  0.00  0.00    +0.000 A 
ATOM     22  C   UNL     1      -1.446  10.403  17.966  0.00  0.00    +0.000 A 
ATOM     23  C   UNL     1      -2.087   9.870  16.829  0.00  0.00    +0.000 A 
ATOM     24  C   UNL     1      -3.341  10.327  16.420  0.00  0.00    +0.000 A 
ATOM     25  C   UNL     1      -3.950  11.288  17.235  0.00  0.00    +0.000 A 
ATOM     26  C   UNL     1      -3.242  11.925  18.310  0.00  0.00    +0.000 A 
BRANCH  24  27
ATOM     27  C   UNL     1      -3.818   9.891  15.082  0.00  0.00    +0.000 C 
ATOM     28  C   UNL     1      -3.413  10.281  13.856  0.00  0.00    +0.000 C 
BRANCH  28  29
ATOM     29  C   UNL     1      -4.090   9.681  12.673  0.00  0.00    +0.000 C 
ATOM     30  O   UNL     1      -3.549   9.436  11.600  0.00  0.00    +0.000 OA
BRANCH  29  31
ATOM     31  O   UNL     1      -5.390   9.424  12.891  0.00  0.00    +0.000 OA
ATOM     32  H   UNL     1      -5.636   9.231  13.812  0.00  0.00    +0.000 HD
ENDBRANCH  29  31
ENDBRANCH  28  29
ENDBRANCH  24  27
ENDBRANCH  10  21
BRANCH   6  33
ATOM     33  O   UNL     1      -0.084  18.240  20.340  0.00  0.00    +0.000 OA
ATOM     34  H   UNL     1      -0.533  18.915  19.798  0.00  0.00    +0.000 HD
ENDBRANCH   6  33
TORSDOF 7
ENDMDL
MODEL 6
REMARK VINA RESULT:      -7.6      3.925      6.747
REMARK  Name = 
REMARK  10 active torsions:
REMARK  status: ('A' for Active; 'I' for Inactive)
REMARK    1  A    between atoms: C_1  and  C_2
REMARK    2  A    between atoms: C_2  and  C_3
REMARK    3  A    between atoms: C_2  and  C_4
REMARK    4  A    between atoms: C_9  and  N_10
REMARK    5  A    between atoms: C_15  and  O_16
REMARK    6  A    between atoms: C_20  and  C_21
REMARK    7  A    between atoms: C_20  and  C_22
REMARK    8  A    between atoms: C_25  and  C_26
REMARK    9  A    between atoms: C_27  and  C_28
REMARK   10  A    between atoms: C_28  and  O_30
REMARK                            x       y       z     vdW  Elec       q    Type
REMARK                         _______ _______ _______ _____ _____    ______ ____
ROOT
ATOM      1  N   UNL     1      -0.479  12.199  19.774  0.00  0.00    +0.000 N 
ATOM      2  C   UNL     1      -0.207  13.644  20.153  0.00  0.00    +0.000 C 
ATOM      3  C   UNL     1       1.063  13.964  20.994  0.00  0.00    +0.000 C 
ATOM      4  C   UNL     1       2.347  13.332  20.379  0.00  0.00    +0.000 A 
ATOM      5  C   UNL     1       3.360  14.297  20.306  0.00  0.00    +0.000 A 
ATOM      6  C   UNL     1       3.363  14.999  19.130  0.00  0.00    +0.000 A 
ATOM      7  C   UNL     1       2.700  14.457  18.022  0.00  0.00    +0.000 A 
ATOM      8  C   UNL     1       2.073  13.154  18.088  0.00  0.00    +0.000 A 
ATOM      9  C   UNL     1       1.963  12.467  19.323  0.00  0.00    +0.000 A 
ATOM     10  C   UNL     1       0.824  11.396  19.770  0.00  0.00    +0.000 C 
ATOM     11  C   UNL     1       1.046  11.103  21.346  0.00  0.00    +0.000 C 
ENDROOT
BRANCH   1  17
ATOM     12  C   UNL     1      -2.998  12.243  19.438  0.00  0.00    +0.000 A 
ATOM     13  C   UNL     1      -4.114  11.903  18.621  0.00  0.00    +0.000 A 
ATOM     14  C   UNL     1      -3.973  11.226  17.423  0.00  0.00    +0.000 A 
ATOM     15  C   UNL     1      -2.700  10.915  16.992  0.00  0.00    +0.000 A 
ATOM     16  C   UNL     1      -1.573  11.293  17.753  0.00  0.00    +0.000 A 
ATOM     17  C   UNL     1      -1.647  11.941  19.011  0.00  0.00    +0.000 A 
BRANCH  12  19
ATOM     18  C   UNL     1      -4.874  13.245  20.766  0.00  0.00    +0.000 C 
ATOM     19  C   UNL     1      -3.362  12.941  20.748  0.00  0.00    +0.000 C 
ATOM     20  C   UNL     1      -2.987  12.252  22.068  0.00  0.00    +0.000 C 
ENDBRANCH  12  19
ENDBRANCH   1  17
BRANCH  10  21
ATOM     21  C   UNL     1       0.871   9.821  19.394  0.00  0.00    +0.000 A 
ATOM     22  C   UNL     1       0.840   8.889  20.474  0.00  0.00    +0.000 A 
ATOM     23  C   UNL     1       1.634   7.723  20.491  0.00  0.00    +0.000 A 
ATOM     24  C   UNL     1       2.322   7.296  19.354  0.00  0.00    +0.000 A 
ATOM     25  C   UNL     1       2.126   8.045  18.189  0.00  0.00    +0.000 A 
ATOM     26  C   UNL     1       1.430   9.301  18.207  0.00  0.00    +0.000 A 
BRANCH  24  27
ATOM     27  C   UNL     1       3.324   6.213  19.535  0.00  0.00    +0.000 C 
ATOM     28  C   UNL     1       4.258   5.754  18.677  0.00  0.00    +0.000 C 
BRANCH  28  29
ATOM     29  C   UNL     1       5.127   4.631  19.126  0.00  0.00    +0.000 C 
ATOM     30  O   UNL     1       4.848   3.441  19.030  0.00  0.00    +0.000 OA
BRANCH  29  31
ATOM     31  O   UNL     1       6.283   5.050  19.666  0.00  0.00    +0.000 OA
ATOM     32  H   UNL     1       6.726   5.784  19.205  0.00  0.00    +0.000 HD
ENDBRANCH  29  31
ENDBRANCH  28  29
ENDBRANCH  24  27
ENDBRANCH  10  21
BRANCH   6  33
ATOM     33  O   UNL     1       3.834  16.282  19.110  0.00  0.00    +0.000 OA
ATOM     34  H   UNL     1       4.639  16.315  18.561  0.00  0.00    +0.000 HD
ENDBRANCH   6  33
TORSDOF 7
ENDMDL
MODEL 7
REMARK VINA RESULT:      -7.5      3.915      6.559
REMARK  Name = 
REMARK  10 active torsions:
REMARK  status: ('A' for Active; 'I' for Inactive)
REMARK    1  A    between atoms: C_1  and  C_2
REMARK    2  A    between atoms: C_2  and  C_3
REMARK    3  A    between atoms: C_2  and  C_4
REMARK    4  A    between atoms: C_9  and  N_10
REMARK    5  A    between atoms: C_15  and  O_16
REMARK    6  A    between atoms: C_20  and  C_21
REMARK    7  A    between atoms: C_20  and  C_22
REMARK    8  A    between atoms: C_25  and  C_26
REMARK    9  A    between atoms: C_27  and  C_28
REMARK   10  A    between atoms: C_28  and  O_30
REMARK                            x       y       z     vdW  Elec       q    Type
REMARK                         _______ _______ _______ _____ _____    ______ ____
ROOT
ATOM      1  N   UNL     1      -1.138  12.275  20.495  0.00  0.00    +0.000 N 
ATOM      2  C   UNL     1      -1.861  11.989  21.800  0.00  0.00    +0.000 C 
ATOM      3  C   UNL     1      -1.393  12.734  23.084  0.00  0.00    +0.000 C 
ATOM      4  C   UNL     1      -1.294  14.272  22.866  0.00  0.00    +0.000 A 
ATOM      5  C   UNL     1      -1.946  14.941  23.910  0.00  0.00    +0.000 A 
ATOM      6  C   UNL     1      -3.273  15.176  23.663  0.00  0.00    +0.000 A 
ATOM      7  C   UNL     1      -3.730  15.130  22.341  0.00  0.00    +0.000 A 
ATOM      8  C   UNL     1      -2.817  14.900  21.241  0.00  0.00    +0.000 A 
ATOM      9  C   UNL     1      -1.467  14.544  21.484  0.00  0.00    +0.000 A 
ATOM     10  C   UNL     1      -0.484  13.658  20.541  0.00  0.00    +0.000 C 
ATOM     11  C   UNL     1       0.858  13.368  21.399  0.00  0.00    +0.000 C 
ENDROOT
BRANCH   1  17
ATOM     12  C   UNL     1      -0.823  10.568  18.637  0.00  0.00    +0.000 A 
ATOM     13  C   UNL     1      -1.338   9.954  17.460  0.00  0.00    +0.000 A 
ATOM     14  C   UNL     1      -2.551  10.324  16.906  0.00  0.00    +0.000 A 
ATOM     15  C   UNL     1      -3.300  11.288  17.549  0.00  0.00    +0.000 A 
ATOM     16  C   UNL     1      -2.839  11.870  18.750  0.00  0.00    +0.000 A 
ATOM     17  C   UNL     1      -1.586  11.576  19.344  0.00  0.00    +0.000 A 
BRANCH  12  19
ATOM     18  C   UNL     1       0.419   9.214  20.344  0.00  0.00    +0.000 C 
ATOM     19  C   UNL     1       0.555  10.062  19.063  0.00  0.00    +0.000 C 
ATOM     20  C   UNL     1       1.388   9.273  18.041  0.00  0.00    +0.000 C 
ENDBRANCH  12  19
ENDBRANCH   1  17
BRANCH  10  21
ATOM     21  C   UNL     1       0.355  14.263  19.293  0.00  0.00    +0.000 A 
ATOM     22  C   UNL     1       1.267  13.387  18.631  0.00  0.00    +0.000 A 
ATOM     23  C   UNL     1       2.539  13.809  18.195  0.00  0.00    +0.000 A 
ATOM     24  C   UNL     1       2.891  15.160  18.178  0.00  0.00    +0.000 A 
ATOM     25  C   UNL     1       1.893  16.068  18.550  0.00  0.00    +0.000 A 
ATOM     26  C   UNL     1       0.649  15.632  19.121  0.00  0.00    +0.000 A 
BRANCH  24  27
ATOM     27  C   UNL     1       4.323  15.486  17.947  0.00  0.00    +0.000 C 
ATOM     28  C   UNL     1       5.423  14.747  18.198  0.00  0.00    +0.000 C 
BRANCH  28  29
ATOM     29  C   UNL     1       6.750  15.340  17.877  0.00  0.00    +0.000 C 
ATOM     30  O   UNL     1       7.124  16.457  18.216  0.00  0.00    +0.000 OA
BRANCH  29  31
ATOM     31  O   UNL     1       7.529  14.516  17.155  0.00  0.00    +0.000 OA
ATOM     32  H   UNL     1       8.373  14.891  16.849  0.00  0.00    +0.000 HD
ENDBRANCH  29  31
ENDBRANCH  28  29
ENDBRANCH  24  27
ENDBRANCH  10  21
BRANCH   6  33
ATOM     33  O   UNL     1      -4.150  15.255  24.710  0.00  0.00    +0.000 OA
ATOM     34  H   UNL     1      -5.051  15.082  24.380  0.00  0.00    +0.000 HD
ENDBRANCH   6  33
TORSDOF 7
ENDMDL
MODEL 8
REMARK VINA RESULT:      -7.1      2.677      5.136
REMARK  Name = 
REMARK  10 active torsions:
REMARK  status: ('A' for Active; 'I' for Inactive)
REMARK    1  A    between atoms: C_1  and  C_2
REMARK    2  A    between atoms: C_2  and  C_3
REMARK    3  A    between atoms: C_2  and  C_4
REMARK    4  A    between atoms: C_9  and  N_10
REMARK    5  A    between atoms: C_15  and  O_16
REMARK    6  A    between atoms: C_20  and  C_21
REMARK    7  A    between atoms: C_20  and  C_22
REMARK    8  A    between atoms: C_25  and  C_26
REMARK    9  A    between atoms: C_27  and  C_28
REMARK   10  A    between atoms: C_28  and  O_30
REMARK                            x       y       z     vdW  Elec       q    Type
REMARK                         _______ _______ _______ _____ _____    ______ ____
ROOT
ATOM      1  N   UNL     1      -1.492  14.103  21.384  0.00  0.00    +0.000 N 
ATOM      2  C   UNL     1      -0.423  15.110  21.771  0.00  0.00    +0.000 C 
ATOM      3  C   UNL     1       1.064  14.766  21.466  0.00  0.00    +0.000 C 
ATOM      4  C   UNL     1       1.271  14.323  19.987  0.00  0.00    +0.000 A 
ATOM      5  C   UNL     1       2.350  15.022  19.431  0.00  0.00    +0.000 A 
ATOM      6  C   UNL     1       1.988  16.202  18.835  0.00  0.00    +0.000 A 
ATOM      7  C   UNL     1       0.649  16.390  18.475  0.00  0.00    +0.000 A 
ATOM      8  C   UNL     1      -0.332  15.343  18.666  0.00  0.00    +0.000 A 
ATOM      9  C   UNL     1      -0.002  14.165  19.381  0.00  0.00    +0.000 A 
ATOM     10  C   UNL     1      -0.995  13.211  20.245  0.00  0.00    +0.000 C 
ATOM     11  C   UNL     1      -0.061  12.148  21.031  0.00  0.00    +0.000 C 
ENDROOT
BRANCH   1  17
ATOM     12  C   UNL     1      -3.617  13.880  22.762  0.00  0.00    +0.000 A 
ATOM     13  C   UNL     1      -4.978  14.252  22.952  0.00  0.00    +0.000 A 
ATOM     14  C   UNL     1      -5.633  15.116  22.093  0.00  0.00    +0.000 A 
ATOM     15  C   UNL     1      -4.923  15.666  21.046  0.00  0.00    +0.000 A 
ATOM     16  C   UNL     1      -3.556  15.360  20.870  0.00  0.00    +0.000 A 
ATOM     17  C   UNL     1      -2.837  14.446  21.680  0.00  0.00    +0.000 A 
BRANCH  12  19
ATOM     18  C   UNL     1      -4.228  12.455  24.732  0.00  0.00    +0.000 C 
ATOM     19  C   UNL     1      -3.087  12.875  23.785  0.00  0.00    +0.000 C 
ATOM     20  C   UNL     1      -2.391  11.608  23.266  0.00  0.00    +0.000 C 
ENDBRANCH  12  19
ENDBRANCH   1  17
BRANCH  10  21
ATOM     21  C   UNL     1      -1.910  12.041  19.597  0.00  0.00    +0.000 A 
ATOM     22  C   UNL     1      -1.242  11.031  18.841  0.00  0.00    +0.000 A 
ATOM     23  C   UNL     1      -1.769  10.512  17.640  0.00  0.00    +0.000 A 
ATOM     24  C   UNL     1      -3.079  10.788  17.242  0.00  0.00    +0.000 A 
ATOM     25  C   UNL     1      -3.853  11.544  18.128  0.00  0.00    +0.000 A 
ATOM     26  C   UNL     1      -3.277  12.183  19.279  0.00  0.00    +0.000 A 
BRANCH  24  27
ATOM     27  C   UNL     1      -3.459  10.412  15.855  0.00  0.00    +0.000 C 
ATOM     28  C   UNL     1      -2.677  10.041  14.820  0.00  0.00    +0.000 C 
BRANCH  28  29
ATOM     29  C   UNL     1      -3.336   9.733  13.522  0.00  0.00    +0.000 C 
ATOM     30  O   UNL     1      -2.750   9.472  12.477  0.00  0.00    +0.000 OA
BRANCH  29  31
ATOM     31  O   UNL     1      -4.678   9.771  13.596  0.00  0.00    +0.000 OA
ATOM     32  H   UNL     1      -5.085  10.647  13.480  0.00  0.00    +0.000 HD
ENDBRANCH  29  31
ENDBRANCH  28  29
ENDBRANCH  24  27
ENDBRANCH  10  21
BRANCH   6  33
ATOM     33  O   UNL     1       2.884  17.234  18.782  0.00  0.00    +0.000 OA
ATOM     34  H   UNL     1       3.667  17.000  19.316  0.00  0.00    +0.000 HD
ENDBRANCH   6  33
TORSDOF 7
ENDMDL
MODEL 9
REMARK VINA RESULT:      -7.1      4.360      6.098
REMARK  Name = 
REMARK  10 active torsions:
REMARK  status: ('A' for Active; 'I' for Inactive)
REMARK    1  A    between atoms: C_1  and  C_2
REMARK    2  A    between atoms: C_2  and  C_3
REMARK    3  A    between atoms: C_2  and  C_4
REMARK    4  A    between atoms: C_9  and  N_10
REMARK    5  A    between atoms: C_15  and  O_16
REMARK    6  A    between atoms: C_20  and  C_21
REMARK    7  A    between atoms: C_20  and  C_22
REMARK    8  A    between atoms: C_25  and  C_26
REMARK    9  A    between atoms: C_27  and  C_28
REMARK   10  A    between atoms: C_28  and  O_30
REMARK                            x       y       z     vdW  Elec       q    Type
REMARK                         _______ _______ _______ _____ _____    ______ ____
ROOT
ATOM      1  N   UNL     1       0.602  12.588  20.400  0.00  0.00    +0.000 N 
ATOM      2  C   UNL     1       2.077  12.951  20.377  0.00  0.00    +0.000 C 
ATOM      3  C   UNL     1       2.525  14.183  19.537  0.00  0.00    +0.000 C 
ATOM      4  C   UNL     1       1.678  15.449  19.859  0.00  0.00    +0.000 A 
ATOM      5  C   UNL     1       2.526  16.541  20.085  0.00  0.00    +0.000 A 
ATOM      6  C   UNL     1       2.898  16.681  21.396  0.00  0.00    +0.000 A 
ATOM      7  C   UNL     1       2.130  16.053  22.384  0.00  0.00    +0.000 A 
ATOM      8  C   UNL     1       0.930  15.319  22.045  0.00  0.00    +0.000 A 
ATOM      9  C   UNL     1       0.594  15.069  20.691  0.00  0.00    +0.000 A 
ATOM     10  C   UNL     1      -0.253  13.818  20.088  0.00  0.00    +0.000 C 
ATOM     11  C   UNL     1      -0.141  13.908  18.476  0.00  0.00    +0.000 C 
ENDROOT
BRANCH   1  17
ATOM     12  C   UNL     1       0.457  10.080  20.786  0.00  0.00    +0.000 A 
ATOM     13  C   UNL     1       0.003   9.008  21.606  0.00  0.00    +0.000 A 
ATOM     14  C   UNL     1      -0.720   9.222  22.766  0.00  0.00    +0.000 A 
ATOM     15  C   UNL     1      -0.963  10.522  23.157  0.00  0.00    +0.000 A 
ATOM     16  C   UNL     1      -0.472  11.604  22.394  0.00  0.00    +0.000 A 
ATOM     17  C   UNL     1       0.229  11.457  21.171  0.00  0.00    +0.000 A 
BRANCH  12  19
ATOM     18  C   UNL     1       1.658   8.179  19.676  0.00  0.00    +0.000 C 
ATOM     19  C   UNL     1       1.191   9.640  19.519  0.00  0.00    +0.000 C 
ATOM     20  C   UNL     1       0.465   9.779  18.172  0.00  0.00    +0.000 C 
ENDBRANCH  12  19
ENDBRANCH   1  17
BRANCH  10  21
ATOM     21  C   UNL     1      -1.872  13.762  20.047  0.00  0.00    +0.000 A 
ATOM     22  C   UNL     1      -2.580  14.662  20.899  0.00  0.00    +0.000 A 
ATOM     23  C   UNL     1      -3.738  14.280  21.607  0.00  0.00    +0.000 A 
ATOM     24  C   UNL     1      -4.389  13.075  21.341  0.00  0.00    +0.000 A 
ATOM     25  C   UNL     1      -3.871  12.306  20.293  0.00  0.00    +0.000 A 
ATOM     26  C   UNL     1      -2.620  12.628  19.665  0.00  0.00    +0.000 A 
BRANCH  24  27
ATOM     27  C   UNL     1      -5.439  12.645  22.300  0.00  0.00    +0.000 C 
ATOM     28  C   UNL     1      -6.259  13.392  23.069  0.00  0.00    +0.000 C 
BRANCH  28  29
ATOM     29  C   UNL     1      -7.216  12.683  23.962  0.00  0.00    +0.000 C 
ATOM     30  O   UNL     1      -7.446  11.479  23.936  0.00  0.00    +0.000 OA
BRANCH  29  31
ATOM     31  O   UNL     1      -7.830  13.507  24.827  0.00  0.00    +0.000 OA
ATOM     32  H   UNL     1      -7.753  13.269  25.768  0.00  0.00    +0.000 HD
ENDBRANCH  29  31
ENDBRANCH  28  29
ENDBRANCH  24  27
ENDBRANCH  10  21
BRANCH   6  33
ATOM     33  O   UNL     1       4.101  17.256  21.699  0.00  0.00    +0.000 OA
ATOM     34  H   UNL     1       4.363  16.987  22.599  0.00  0.00    +0.000 HD
ENDBRANCH   6  33
TORSDOF 7
ENDMDL
