MODEL 1
REMARK VINA RESULT:      -7.2      0.000      0.000
REMARK  Name = 
REMARK  11 active torsions:
REMARK  status: ('A' for Active; 'I' for Inactive)
REMARK    1  A    between atoms: C_1  and  O_2
REMARK    2  A    between atoms: O_2  and  C_3
REMARK    3  A    between atoms: C_6  and  C_7
REMARK    4  A    between atoms: C_9  and  C_10
REMARK    5  A    between atoms: C_10  and  N_11
REMARK    6  A    between atoms: N_14  and  C_15
REMARK    7  A    between atoms: C_15  and  C_16
REMARK    8  A    between atoms: C_15  and  C_17
REMARK    9  A    between atoms: C_19  and  C_20
REMARK   10  A    between atoms: C_23  and  O_24
REMARK   11  A    between atoms: O_24  and  C_25
REMARK                            x       y       z     vdW  Elec       q    Type
REMARK                         _______ _______ _______ _____ _____    ______ ____
ROOT
ATOM      1  C   UNL     1       6.448   5.438  16.348  0.00  0.00    +0.000 A 
ATOM      2  N   UNL     1       7.551   6.250  16.601  0.00  0.00    +0.000 NA
ATOM      3  C   UNL     1       7.444   6.791  17.796  0.00  0.00    +0.000 A 
ATOM      4  S   UNL     1       6.061   6.320  18.696  0.00  0.00    +0.000 S 
ATOM      5  C   UNL     1       5.530   5.319  17.398  0.00  0.00    +0.000 A 
ENDROOT
BRANCH   1   9
ATOM      6  C   UNL     1       6.006   3.611  12.512  0.00  0.00    +0.000 A 
ATOM      7  C   UNL     1       4.943   3.642  13.421  0.00  0.00    +0.000 A 
ATOM      8  C   UNL     1       5.066   4.256  14.659  0.00  0.00    +0.000 A 
ATOM      9  C   UNL     1       6.294   4.793  15.051  0.00  0.00    +0.000 A 
ATOM     10  C   UNL     1       7.373   4.698  14.153  0.00  0.00    +0.000 A 
ATOM     11  C   UNL     1       7.231   4.163  12.892  0.00  0.00    +0.000 A 
BRANCH   6  13
ATOM     12  C   UNL     1       6.043   1.607  11.276  0.00  0.00    +0.000 C 
ATOM     13  O   UNL     1       5.756   2.997  11.329  0.00  0.00    +0.000 OA
ENDBRANCH   6  13
ENDBRANCH   1   9
BRANCH   5  14
ATOM     14  C   UNL     1       4.300   4.515  17.511  0.00  0.00    +0.000 A 
ATOM     15  C   UNL     1       4.334   3.124  17.656  0.00  0.00    +0.000 A 
ATOM     16  C   UNL     1       3.166   2.415  17.908  0.00  0.00    +0.000 A 
ATOM     17  C   UNL     1       1.943   3.073  18.086  0.00  0.00    +0.000 A 
ATOM     18  C   UNL     1       1.880   4.441  17.907  0.00  0.00    +0.000 A 
ATOM     19  C   UNL     1       3.033   5.132  17.576  0.00  0.00    +0.000 A 
BRANCH  17  20
ATOM     20  O   UNL     1       0.882   2.249  18.350  0.00  0.00    +0.000 OA
ATOM     21  C   UNL     1       0.406   2.254  19.692  0.00  0.00    +0.000 C 
ENDBRANCH  17  20
ENDBRANCH   5  14
BRANCH   3  22
ATOM     22  C   UNL     1       8.413   7.765  18.399  0.00  0.00    +0.000 C 
BRANCH  22  23
ATOM     23  N   UNL     1       8.224   9.090  17.835  0.00  0.00    +0.000 N 
ATOM     24  C   UNL     1       8.846  10.160  18.439  0.00  0.00    +0.000 C 
ATOM     25  O   UNL     1       9.553  10.065  19.415  0.00  0.00    +0.000 OA
ATOM     26  N   UNL     1       8.627  11.342  17.761  0.00  0.00    +0.000 N 
ATOM     27  H   UNL     1       7.595   9.205  17.067  0.00  0.00    +0.000 HD
ATOM     28  H   UNL     1       7.856  11.385  17.116  0.00  0.00    +0.000 HD
BRANCH  26  29
ATOM     29  C   UNL     1       9.242  12.593  18.210  0.00  0.00    +0.000 C 
ATOM     30  C   UNL     1      10.554  12.855  17.471  0.00  0.00    +0.000 C 
ATOM     31  C   UNL     1       8.305  13.784  18.016  0.00  0.00    +0.000 C 
ENDBRANCH  26  29
ENDBRANCH  22  23
ENDBRANCH   3  22
TORSDOF 7
ENDMDL
MODEL 2
REMARK VINA RESULT:      -7.1      3.952      7.677
REMARK  Name = 
REMARK  11 active torsions:
REMARK  status: ('A' for Active; 'I' for Inactive)
REMARK    1  A    between atoms: C_1  and  O_2
REMARK    2  A    between atoms: O_2  and  C_3
REMARK    3  A    between atoms: C_6  and  C_7
REMARK    4  A    between atoms: C_9  and  C_10
REMARK    5  A    between atoms: C_10  and  N_11
REMARK    6  A    between atoms: N_14  and  C_15
REMARK    7  A    between atoms: C_15  and  C_16
REMARK    8  A    between atoms: C_15  and  C_17
REMARK    9  A    between atoms: C_19  and  C_20
REMARK   10  A    between atoms: C_23  and  O_24
REMARK   11  A    between atoms: O_24  and  C_25
REMARK                            x       y       z     vdW  Elec       q    Type
REMARK                         _______ _______ _______ _____ _____    ______ ____
ROOT
ATOM      1  C   UNL     1       4.105   5.388  18.007  0.00  0.00    +0.000 A 
ATOM      2  N   UNL     1       5.253   4.860  17.421  0.00  0.00    +0.000 NA
ATOM      3  C   UNL     1       5.848   5.781  16.693  0.00  0.00    +0.000 A 
ATOM      4  S   UNL     1       5.106   7.328  16.713  0.00  0.00    +0.000 S 
ATOM      5  C   UNL     1       3.871   6.746  17.764  0.00  0.00    +0.000 A 
ENDROOT
BRANCH   1   9
ATOM      6  C   UNL     1       1.475   2.939  20.317  0.00  0.00    +0.000 A 
ATOM      7  C   UNL     1       2.718   3.336  20.823  0.00  0.00    +0.000 A 
ATOM      8  C   UNL     1       3.569   4.153  20.093  0.00  0.00    +0.000 A 
ATOM      9  C   UNL     1       3.224   4.534  18.794  0.00  0.00    +0.000 A 
ATOM     10  C   UNL     1       2.001   4.073  18.274  0.00  0.00    +0.000 A 
ATOM     11  C   UNL     1       1.118   3.331  19.026  0.00  0.00    +0.000 A 
BRANCH   6  13
ATOM     12  C   UNL     1       1.051   2.208  22.516  0.00  0.00    +0.000 C 
ATOM     13  O   UNL     1       0.728   2.154  21.134  0.00  0.00    +0.000 OA
ENDBRANCH   6  13
ENDBRANCH   1   9
BRANCH   5  14
ATOM     14  C   UNL     1       2.809   7.640  18.258  0.00  0.00    +0.000 A 
ATOM     15  C   UNL     1       2.290   7.530  19.552  0.00  0.00    +0.000 A 
ATOM     16  C   UNL     1       1.397   8.480  20.035  0.00  0.00    +0.000 A 
ATOM     17  C   UNL     1       1.045   9.598  19.269  0.00  0.00    +0.000 A 
ATOM     18  C   UNL     1       1.514   9.705  17.975  0.00  0.00    +0.000 A 
ATOM     19  C   UNL     1       2.338   8.713  17.471  0.00  0.00    +0.000 A 
BRANCH  17  20
ATOM     20  O   UNL     1       0.175  10.461  19.881  0.00  0.00    +0.000 OA
ATOM     21  C   UNL     1      -1.040  10.721  19.186  0.00  0.00    +0.000 C 
ENDBRANCH  17  20
ENDBRANCH   5  14
BRANCH   3  22
ATOM     22  C   UNL     1       7.085   5.573  15.870  0.00  0.00    +0.000 C 
BRANCH  22  23
ATOM     23  N   UNL     1       6.740   5.361  14.474  0.00  0.00    +0.000 N 
ATOM     24  C   UNL     1       6.307   4.114  14.083  0.00  0.00    +0.000 C 
ATOM     25  O   UNL     1       6.188   3.176  14.836  0.00  0.00    +0.000 OA
ATOM     26  N   UNL     1       5.960   4.077  12.748  0.00  0.00    +0.000 N 
ATOM     27  H   UNL     1       6.890   6.102  13.820  0.00  0.00    +0.000 HD
ATOM     28  H   UNL     1       6.303   4.807  12.146  0.00  0.00    +0.000 HD
BRANCH  26  29
ATOM     29  C   UNL     1       5.426   2.856  12.142  0.00  0.00    +0.000 C 
ATOM     30  C   UNL     1       4.230   3.166  11.242  0.00  0.00    +0.000 C 
ATOM     31  C   UNL     1       6.490   2.115  11.332  0.00  0.00    +0.000 C 
ENDBRANCH  26  29
ENDBRANCH  22  23
ENDBRANCH   3  22
TORSDOF 7
ENDMDL
MODEL 3
REMARK VINA RESULT:      -7.1      9.266     11.487
REMARK  Name = 
REMARK  11 active torsions:
REMARK  status: ('A' for Active; 'I' for Inactive)
REMARK    1  A    between atoms: C_1  and  O_2
REMARK    2  A    between atoms: O_2  and  C_3
REMARK    3  A    between atoms: C_6  and  C_7
REMARK    4  A    between atoms: C_9  and  C_10
REMARK    5  A    between atoms: C_10  and  N_11
REMARK    6  A    between atoms: N_14  and  C_15
REMARK    7  A    between atoms: C_15  and  C_16
REMARK    8  A    between atoms: C_15  and  C_17
REMARK    9  A    between atoms: C_19  and  C_20
REMARK   10  A    between atoms: C_23  and  O_24
REMARK   11  A    between atoms: O_24  and  C_25
REMARK                            x       y       z     vdW  Elec       q    Type
REMARK                         _______ _______ _______ _____ _____    ______ ____
ROOT
ATOM      1  C   UNL     1      -1.644  11.115  19.640  0.00  0.00    +0.000 A 
ATOM      2  N   UNL     1      -2.276  12.023  20.486  0.00  0.00    +0.000 NA
ATOM      3  C   UNL     1      -1.648  12.071  21.641  0.00  0.00    +0.000 A 
ATOM      4  S   UNL     1      -0.248  11.086  21.759  0.00  0.00    +0.000 S 
ATOM      5  C   UNL     1      -0.483  10.521  20.148  0.00  0.00    +0.000 A 
ENDROOT
BRANCH   1   9
ATOM      6  C   UNL     1      -3.332  10.312  15.798  0.00  0.00    +0.000 A 
ATOM      7  C   UNL     1      -3.506   9.419  16.862  0.00  0.00    +0.000 A 
ATOM      8  C   UNL     1      -2.986   9.682  18.121  0.00  0.00    +0.000 A 
ATOM      9  C   UNL     1      -2.205  10.822  18.327  0.00  0.00    +0.000 A 
ATOM     10  C   UNL     1      -1.984  11.677  17.233  0.00  0.00    +0.000 A 
ATOM     11  C   UNL     1      -2.567  11.461  16.004  0.00  0.00    +0.000 A 
BRANCH   6  13
ATOM     12  C   UNL     1      -3.023   9.829  13.514  0.00  0.00    +0.000 C 
ATOM     13  O   UNL     1      -3.903   9.950  14.622  0.00  0.00    +0.000 OA
ENDBRANCH   6  13
ENDBRANCH   1   9
BRANCH   5  14
ATOM     14  C   UNL     1       0.462   9.576  19.528  0.00  0.00    +0.000 A 
ATOM     15  C   UNL     1       0.935   9.750  18.222  0.00  0.00    +0.000 A 
ATOM     16  C   UNL     1       1.936   8.926  17.721  0.00  0.00    +0.000 A 
ATOM     17  C   UNL     1       2.538   7.949  18.523  0.00  0.00    +0.000 A 
ATOM     18  C   UNL     1       2.059   7.734  19.800  0.00  0.00    +0.000 A 
ATOM     19  C   UNL     1       1.007   8.504  20.265  0.00  0.00    +0.000 A 
BRANCH  17  20
ATOM     20  O   UNL     1       3.525   7.228  17.904  0.00  0.00    +0.000 OA
ATOM     21  C   UNL     1       3.478   5.818  18.090  0.00  0.00    +0.000 C 
ENDBRANCH  17  20
ENDBRANCH   5  14
BRANCH   3  22
ATOM     22  C   UNL     1      -2.064  12.895  22.823  0.00  0.00    +0.000 C 
BRANCH  22  23
ATOM     23  N   UNL     1      -3.328  12.420  23.359  0.00  0.00    +0.000 N 
ATOM     24  C   UNL     1      -4.488  13.063  22.987  0.00  0.00    +0.000 C 
ATOM     25  O   UNL     1      -4.521  14.005  22.230  0.00  0.00    +0.000 OA
ATOM     26  N   UNL     1      -5.611  12.467  23.523  0.00  0.00    +0.000 N 
ATOM     27  H   UNL     1      -3.322  11.684  24.035  0.00  0.00    +0.000 HD
ATOM     28  H   UNL     1      -5.494  11.854  24.313  0.00  0.00    +0.000 HD
BRANCH  26  29
ATOM     29  C   UNL     1      -6.951  12.967  23.210  0.00  0.00    +0.000 C 
ATOM     30  C   UNL     1      -7.911  11.815  22.912  0.00  0.00    +0.000 C 
ATOM     31  C   UNL     1      -7.517  13.815  24.348  0.00  0.00    +0.000 C 
ENDBRANCH  26  29
ENDBRANCH  22  23
ENDBRANCH   3  22
TORSDOF 7
ENDMDL
MODEL 4
REMARK VINA RESULT:      -7.0      8.593     11.385
REMARK  Name = 
REMARK  11 active torsions:
REMARK  status: ('A' for Active; 'I' for Inactive)
REMARK    1  A    between atoms: C_1  and  O_2
REMARK    2  A    between atoms: O_2  and  C_3
REMARK    3  A    between atoms: C_6  and  C_7
REMARK    4  A    between atoms: C_9  and  C_10
REMARK    5  A    between atoms: C_10  and  N_11
REMARK    6  A    between atoms: N_14  and  C_15
REMARK    7  A    between atoms: C_15  and  C_16
REMARK    8  A    between atoms: C_15  and  C_17
REMARK    9  A    between atoms: C_19  and  C_20
REMARK   10  A    between atoms: C_23  and  O_24
REMARK   11  A    between atoms: O_24  and  C_25
REMARK                            x       y       z     vdW  Elec       q    Type
REMARK                         _______ _______ _______ _____ _____    ______ ____
ROOT
ATOM      1  C   UNL     1       0.329  13.428  21.543  0.00  0.00    +0.000 A 
ATOM      2  N   UNL     1       1.293  14.275  22.086  0.00  0.00    +0.000 NA
ATOM      3  C   UNL     1       2.333  14.341  21.284  0.00  0.00    +0.000 A 
ATOM      4  S   UNL     1       2.197  13.448  19.825  0.00  0.00    +0.000 S 
ATOM      5  C   UNL     1       0.628  12.902  20.281  0.00  0.00    +0.000 A 
ENDROOT
BRANCH   1   9
ATOM      6  C   UNL     1      -3.206  12.576  23.785  0.00  0.00    +0.000 A 
ATOM      7  C   UNL     1      -2.324  11.553  23.416  0.00  0.00    +0.000 A 
ATOM      8  C   UNL     1      -1.159  11.821  22.711  0.00  0.00    +0.000 A 
ATOM      9  C   UNL     1      -0.885  13.124  22.289  0.00  0.00    +0.000 A 
ATOM     10  C   UNL     1      -1.813  14.131  22.610  0.00  0.00    +0.000 A 
ATOM     11  C   UNL     1      -2.927  13.882  23.380  0.00  0.00    +0.000 A 
BRANCH   6  13
ATOM     12  C   UNL     1      -5.530  12.788  24.104  0.00  0.00    +0.000 C 
ATOM     13  O   UNL     1      -4.300  12.188  24.486  0.00  0.00    +0.000 OA
ENDBRANCH   6  13
ENDBRANCH   1   9
BRANCH   5  14
ATOM     14  C   UNL     1      -0.163  12.034  19.391  0.00  0.00    +0.000 A 
ATOM     15  C   UNL     1      -1.260  12.516  18.669  0.00  0.00    +0.000 A 
ATOM     16  C   UNL     1      -1.893  11.711  17.729  0.00  0.00    +0.000 A 
ATOM     17  C   UNL     1      -1.414  10.428  17.435  0.00  0.00    +0.000 A 
ATOM     18  C   UNL     1      -0.358   9.918  18.165  0.00  0.00    +0.000 A 
ATOM     19  C   UNL     1       0.216  10.695  19.156  0.00  0.00    +0.000 A 
BRANCH  17  20
ATOM     20  O   UNL     1      -2.121   9.758  16.473  0.00  0.00    +0.000 OA
ATOM     21  C   UNL     1      -3.162  10.493  15.838  0.00  0.00    +0.000 C 
ENDBRANCH  17  20
ENDBRANCH   5  14
BRANCH   3  22
ATOM     22  C   UNL     1       3.591  15.113  21.554  0.00  0.00    +0.000 C 
BRANCH  22  23
ATOM     23  N   UNL     1       4.717  14.211  21.727  0.00  0.00    +0.000 N 
ATOM     24  C   UNL     1       5.153  13.933  23.004  0.00  0.00    +0.000 C 
ATOM     25  O   UNL     1       4.647  14.393  24.001  0.00  0.00    +0.000 OA
ATOM     26  N   UNL     1       6.185  13.019  23.016  0.00  0.00    +0.000 N 
ATOM     27  H   UNL     1       5.192  13.868  20.917  0.00  0.00    +0.000 HD
ATOM     28  H   UNL     1       6.699  12.868  22.164  0.00  0.00    +0.000 HD
BRANCH  26  29
ATOM     29  C   UNL     1       6.760  12.549  24.278  0.00  0.00    +0.000 C 
ATOM     30  C   UNL     1       6.028  11.308  24.787  0.00  0.00    +0.000 C 
ATOM     31  C   UNL     1       8.250  12.236  24.139  0.00  0.00    +0.000 C 
ENDBRANCH  26  29
ENDBRANCH  22  23
ENDBRANCH   3  22
TORSDOF 7
ENDMDL
MODEL 5
REMARK VINA RESULT:      -6.9      9.236     11.409
REMARK  Name = 
REMARK  11 active torsions:
REMARK  status: ('A' for Active; 'I' for Inactive)
REMARK    1  A    between atoms: C_1  and  O_2
REMARK    2  A    between atoms: O_2  and  C_3
REMARK    3  A    between atoms: C_6  and  C_7
REMARK    4  A    between atoms: C_9  and  C_10
REMARK    5  A    between atoms: C_10  and  N_11
REMARK    6  A    between atoms: N_14  and  C_15
REMARK    7  A    between atoms: C_15  and  C_16
REMARK    8  A    between atoms: C_15  and  C_17
REMARK    9  A    between atoms: C_19  and  C_20
REMARK   10  A    between atoms: C_23  and  O_24
REMARK   11  A    between atoms: O_24  and  C_25
REMARK                            x       y       z     vdW  Elec       q    Type
REMARK                         _______ _______ _______ _____ _____    ______ ____
ROOT
ATOM      1  C   UNL     1      -1.298  11.085  20.087  0.00  0.00    +0.000 A 
ATOM      2  N   UNL     1      -2.012  11.886  20.974  0.00  0.00    +0.000 NA
ATOM      3  C   UNL     1      -1.522  11.756  22.188  0.00  0.00    +0.000 A 
ATOM      4  S   UNL     1      -0.160  10.723  22.326  0.00  0.00    +0.000 S 
ATOM      5  C   UNL     1      -0.213  10.391  20.636  0.00  0.00    +0.000 A 
ENDROOT
BRANCH   1   9
ATOM      6  C   UNL     1      -2.545  10.861  16.007  0.00  0.00    +0.000 A 
ATOM      7  C   UNL     1      -2.716   9.774  16.872  0.00  0.00    +0.000 A 
ATOM      8  C   UNL     1      -2.340   9.844  18.205  0.00  0.00    +0.000 A 
ATOM      9  C   UNL     1      -1.707  10.991  18.691  0.00  0.00    +0.000 A 
ATOM     10  C   UNL     1      -1.482  12.051  17.794  0.00  0.00    +0.000 A 
ATOM     11  C   UNL     1      -1.929  12.015  16.492  0.00  0.00    +0.000 A 
BRANCH   6  13
ATOM     12  C   UNL     1      -4.030   9.747  14.558  0.00  0.00    +0.000 C 
ATOM     13  O   UNL     1      -2.968  10.674  14.732  0.00  0.00    +0.000 OA
ENDBRANCH   6  13
ENDBRANCH   1   9
BRANCH   5  14
ATOM     14  C   UNL     1       0.785   9.513  20.001  0.00  0.00    +0.000 A 
ATOM     15  C   UNL     1       1.232   8.336  20.611  0.00  0.00    +0.000 A 
ATOM     16  C   UNL     1       2.060   7.457  19.922  0.00  0.00    +0.000 A 
ATOM     17  C   UNL     1       2.414   7.691  18.588  0.00  0.00    +0.000 A 
ATOM     18  C   UNL     1       2.017   8.866  17.980  0.00  0.00    +0.000 A 
ATOM     19  C   UNL     1       1.260   9.776  18.698  0.00  0.00    +0.000 A 
BRANCH  17  20
ATOM     20  O   UNL     1       3.214   6.731  18.030  0.00  0.00    +0.000 OA
ATOM     21  C   UNL     1       2.881   5.382  18.341  0.00  0.00    +0.000 C 
ENDBRANCH  17  20
ENDBRANCH   5  14
BRANCH   3  22
ATOM     22  C   UNL     1      -2.062  12.423  23.419  0.00  0.00    +0.000 C 
BRANCH  22  23
ATOM     23  N   UNL     1      -3.440  12.028  23.653  0.00  0.00    +0.000 N 
ATOM     24  C   UNL     1      -4.448  12.887  23.275  0.00  0.00    +0.000 C 
ATOM     25  O   UNL     1      -4.256  13.959  22.750  0.00  0.00    +0.000 OA
ATOM     26  N   UNL     1      -5.700  12.355  23.502  0.00  0.00    +0.000 N 
ATOM     27  H   UNL     1      -3.624  11.175  24.142  0.00  0.00    +0.000 HD
ATOM     28  H   UNL     1      -5.782  11.584  24.143  0.00  0.00    +0.000 HD
BRANCH  26  29
ATOM     29  C   UNL     1      -6.910  13.089  23.123  0.00  0.00    +0.000 C 
ATOM     30  C   UNL     1      -7.850  12.210  22.298  0.00  0.00    +0.000 C 
ATOM     31  C   UNL     1      -7.656  13.618  24.348  0.00  0.00    +0.000 C 
ENDBRANCH  26  29
ENDBRANCH  22  23
ENDBRANCH   3  22
TORSDOF 7
ENDMDL
MODEL 6
REMARK VINA RESULT:      -6.9      6.597      8.635
REMARK  Name = 
REMARK  11 active torsions:
REMARK  status: ('A' for Active; 'I' for Inactive)
REMARK    1  A    between atoms: C_1  and  O_2
REMARK    2  A    between atoms: O_2  and  C_3
REMARK    3  A    between atoms: C_6  and  C_7
REMARK    4  A    between atoms: C_9  and  C_10
REMARK    5  A    between atoms: C_10  and  N_11
REMARK    6  A    between atoms: N_14  and  C_15
REMARK    7  A    between atoms: C_15  and  C_16
REMARK    8  A    between atoms: C_15  and  C_17
REMARK    9  A    between atoms: C_19  and  C_20
REMARK   10  A    between atoms: C_23  and  O_24
REMARK   11  A    between atoms: O_24  and  C_25
REMARK                            x       y       z     vdW  Elec       q    Type
REMARK                         _______ _______ _______ _____ _____    ______ ____
ROOT
ATOM      1  C   UNL     1       1.166  11.902  18.764  0.00  0.00    +0.000 A 
ATOM      2  N   UNL     1       2.244  12.784  18.762  0.00  0.00    +0.000 NA
ATOM      3  C   UNL     1       1.822  14.006  18.514  0.00  0.00    +0.000 A 
ATOM      4  S   UNL     1       0.125  14.175  18.326  0.00  0.00    +0.000 S 
ATOM      5  C   UNL     1      -0.093  12.484  18.577  0.00  0.00    +0.000 A 
ENDROOT
BRANCH   1   9
ATOM      6  C   UNL     1       1.869   7.723  19.305  0.00  0.00    +0.000 A 
ATOM      7  C   UNL     1       2.142   8.346  18.082  0.00  0.00    +0.000 A 
ATOM      8  C   UNL     1       1.943   9.707  17.902  0.00  0.00    +0.000 A 
ATOM      9  C   UNL     1       1.389  10.472  18.931  0.00  0.00    +0.000 A 
ATOM     10  C   UNL     1       1.059   9.820  20.134  0.00  0.00    +0.000 A 
ATOM     11  C   UNL     1       1.332   8.486  20.342  0.00  0.00    +0.000 A 
BRANCH   6  13
ATOM     12  C   UNL     1       1.818   5.750  20.590  0.00  0.00    +0.000 C 
ATOM     13  O   UNL     1       2.121   6.391  19.359  0.00  0.00    +0.000 OA
ENDBRANCH   6  13
ENDBRANCH   1   9
BRANCH   5  14
ATOM     14  C   UNL     1      -1.438  11.883  18.578  0.00  0.00    +0.000 A 
ATOM     15  C   UNL     1      -2.457  12.346  19.417  0.00  0.00    +0.000 A 
ATOM     16  C   UNL     1      -3.751  11.856  19.289  0.00  0.00    +0.000 A 
ATOM     17  C   UNL     1      -4.082  10.940  18.283  0.00  0.00    +0.000 A 
ATOM     18  C   UNL     1      -3.084  10.439  17.471  0.00  0.00    +0.000 A 
ATOM     19  C   UNL     1      -1.782  10.871  17.657  0.00  0.00    +0.000 A 
BRANCH  17  20
ATOM     20  O   UNL     1      -5.398  10.563  18.262  0.00  0.00    +0.000 OA
ATOM     21  C   UNL     1      -6.326  11.556  17.838  0.00  0.00    +0.000 C 
ENDBRANCH  17  20
ENDBRANCH   5  14
BRANCH   3  22
ATOM     22  C   UNL     1       2.697  15.217  18.382  0.00  0.00    +0.000 C 
BRANCH  22  23
ATOM     23  N   UNL     1       3.925  14.887  17.679  0.00  0.00    +0.000 N 
ATOM     24  C   UNL     1       5.102  14.836  18.392  0.00  0.00    +0.000 C 
ATOM     25  O   UNL     1       5.178  15.044  19.581  0.00  0.00    +0.000 OA
ATOM     26  N   UNL     1       6.171  14.453  17.609  0.00  0.00    +0.000 N 
ATOM     27  H   UNL     1       3.900  14.772  16.686  0.00  0.00    +0.000 HD
ATOM     28  H   UNL     1       6.081  14.527  16.610  0.00  0.00    +0.000 HD
BRANCH  26  29
ATOM     29  C   UNL     1       7.507  14.287  18.186  0.00  0.00    +0.000 C 
ATOM     30  C   UNL     1       8.210  13.062  17.603  0.00  0.00    +0.000 C 
ATOM     31  C   UNL     1       8.376  15.524  17.960  0.00  0.00    +0.000 C 
ENDBRANCH  26  29
ENDBRANCH  22  23
ENDBRANCH   3  22
TORSDOF 7
ENDMDL
MODEL 7
REMARK VINA RESULT:      -6.9      8.793     11.854
REMARK  Name = 
REMARK  11 active torsions:
REMARK  status: ('A' for Active; 'I' for Inactive)
REMARK    1  A    between atoms: C_1  and  O_2
REMARK    2  A    between atoms: O_2  and  C_3
REMARK    3  A    between atoms: C_6  and  C_7
REMARK    4  A    between atoms: C_9  and  C_10
REMARK    5  A    between atoms: C_10  and  N_11
REMARK    6  A    between atoms: N_14  and  C_15
REMARK    7  A    between atoms: C_15  and  C_16
REMARK    8  A    between atoms: C_15  and  C_17
REMARK    9  A    between atoms: C_19  and  C_20
REMARK   10  A    between atoms: C_23  and  O_24
REMARK   11  A    between atoms: O_24  and  C_25
REMARK                            x       y       z     vdW  Elec       q    Type
REMARK                         _______ _______ _______ _____ _____    ______ ____
ROOT
ATOM      1  C   UNL     1       0.278  11.651  21.182  0.00  0.00    +0.000 A 
ATOM      2  N   UNL     1       0.941  10.472  20.851  0.00  0.00    +0.000 NA
ATOM      3  C   UNL     1       0.624   9.525  21.707  0.00  0.00    +0.000 A 
ATOM      4  S   UNL     1      -0.516   9.970  22.909  0.00  0.00    +0.000 S 
ATOM      5  C   UNL     1      -0.601  11.567  22.268  0.00  0.00    +0.000 A 
ENDROOT
BRANCH   1   9
ATOM      6  C   UNL     1       1.021  15.271  19.038  0.00  0.00    +0.000 A 
ATOM      7  C   UNL     1      -0.125  14.508  18.786  0.00  0.00    +0.000 A 
ATOM      8  C   UNL     1      -0.391  13.345  19.495  0.00  0.00    +0.000 A 
ATOM      9  C   UNL     1       0.533  12.873  20.430  0.00  0.00    +0.000 A 
ATOM     10  C   UNL     1       1.712  13.615  20.626  0.00  0.00    +0.000 A 
ATOM     11  C   UNL     1       1.939  14.812  19.984  0.00  0.00    +0.000 A 
BRANCH   6  13
ATOM     12  C   UNL     1      -0.011  17.184  18.131  0.00  0.00    +0.000 C 
ATOM     13  O   UNL     1       1.159  16.395  18.291  0.00  0.00    +0.000 OA
ENDBRANCH   6  13
ENDBRANCH   1   9
BRANCH   5  14
ATOM     14  C   UNL     1      -1.500  12.576  22.855  0.00  0.00    +0.000 A 
ATOM     15  C   UNL     1      -2.853  12.313  23.095  0.00  0.00    +0.000 A 
ATOM     16  C   UNL     1      -3.637  13.232  23.785  0.00  0.00    +0.000 A 
ATOM     17  C   UNL     1      -3.083  14.406  24.309  0.00  0.00    +0.000 A 
ATOM     18  C   UNL     1      -1.760  14.704  24.048  0.00  0.00    +0.000 A 
ATOM     19  C   UNL     1      -1.006  13.823  23.292  0.00  0.00    +0.000 A 
BRANCH  17  20
ATOM     20  O   UNL     1      -3.967  15.206  24.983  0.00  0.00    +0.000 OA
ATOM     21  C   UNL     1      -4.969  15.835  24.192  0.00  0.00    +0.000 C 
ENDBRANCH  17  20
ENDBRANCH   5  14
BRANCH   3  22
ATOM     22  C   UNL     1       1.179   8.131  21.706  0.00  0.00    +0.000 C 
BRANCH  22  23
ATOM     23  N   UNL     1       1.809   7.832  20.431  0.00  0.00    +0.000 N 
ATOM     24  C   UNL     1       2.074   6.518  20.116  0.00  0.00    +0.000 C 
ATOM     25  O   UNL     1       1.807   5.586  20.838  0.00  0.00    +0.000 OA
ATOM     26  N   UNL     1       2.616   6.383  18.854  0.00  0.00    +0.000 N 
ATOM     27  H   UNL     1       2.097   8.589  19.844  0.00  0.00    +0.000 HD
ATOM     28  H   UNL     1       3.021   7.195  18.420  0.00  0.00    +0.000 HD
BRANCH  26  29
ATOM     29  C   UNL     1       2.924   5.061  18.305  0.00  0.00    +0.000 C 
ATOM     30  C   UNL     1       1.691   4.434  17.655  0.00  0.00    +0.000 C 
ATOM     31  C   UNL     1       4.058   5.125  17.282  0.00  0.00    +0.000 C 
ENDBRANCH  26  29
ENDBRANCH  22  23
ENDBRANCH   3  22
TORSDOF 7
ENDMDL
MODEL 8
REMARK VINA RESULT:      -6.9      8.718     11.864
REMARK  Name = 
REMARK  11 active torsions:
REMARK  status: ('A' for Active; 'I' for Inactive)
REMARK    1  A    between atoms: C_1  and  O_2
REMARK    2  A    between atoms: O_2  and  C_3
REMARK    3  A    between atoms: C_6  and  C_7
REMARK    4  A    between atoms: C_9  and  C_10
REMARK    5  A    between atoms: C_10  and  N_11
REMARK    6  A    between atoms: N_14  and  C_15
REMARK    7  A    between atoms: C_15  and  C_16
REMARK    8  A    between atoms: C_15  and  C_17
REMARK    9  A    between atoms: C_19  and  C_20
REMARK   10  A    between atoms: C_23  and  O_24
REMARK   11  A    between atoms: O_24  and  C_25
REMARK                            x       y       z     vdW  Elec       q    Type
REMARK                         _______ _______ _______ _____ _____    ______ ____
ROOT
ATOM      1  C   UNL     1       0.268  11.642  21.233  0.00  0.00    +0.000 A 
ATOM      2  N   UNL     1       0.955  10.479  20.893  0.00  0.00    +0.000 NA
ATOM      3  C   UNL     1       0.654   9.518  21.739  0.00  0.00    +0.000 A 
ATOM      4  S   UNL     1      -0.498   9.930  22.943  0.00  0.00    +0.000 S 
ATOM      5  C   UNL     1      -0.612  11.531  22.315  0.00  0.00    +0.000 A 
ENDROOT
BRANCH   1   9
ATOM      6  C   UNL     1       0.957  15.219  19.001  0.00  0.00    +0.000 A 
ATOM      7  C   UNL     1       1.867  14.793  19.975  0.00  0.00    +0.000 A 
ATOM      8  C   UNL     1       1.667  13.619  20.688  0.00  0.00    +0.000 A 
ATOM      9  C   UNL     1       0.501  12.875  20.492  0.00  0.00    +0.000 A 
ATOM     10  C   UNL     1      -0.435  13.351  19.556  0.00  0.00    +0.000 A 
ATOM     11  C   UNL     1      -0.201  14.470  18.789  0.00  0.00    +0.000 A 
BRANCH   6  13
ATOM     12  C   UNL     1       2.393  17.082  18.874  0.00  0.00    +0.000 C 
ATOM     13  O   UNL     1       1.273  16.373  18.362  0.00  0.00    +0.000 OA
ENDBRANCH   6  13
ENDBRANCH   1   9
BRANCH   5  14
ATOM     14  C   UNL     1      -1.532  12.517  22.909  0.00  0.00    +0.000 A 
ATOM     15  C   UNL     1      -2.884  12.233  23.127  0.00  0.00    +0.000 A 
ATOM     16  C   UNL     1      -3.688  13.128  23.822  0.00  0.00    +0.000 A 
ATOM     17  C   UNL     1      -3.157  14.300  24.375  0.00  0.00    +0.000 A 
ATOM     18  C   UNL     1      -1.835  14.620  24.137  0.00  0.00    +0.000 A 
ATOM     19  C   UNL     1      -1.059  13.763  23.375  0.00  0.00    +0.000 A 
BRANCH  17  20
ATOM     20  O   UNL     1      -4.060  15.075  25.053  0.00  0.00    +0.000 OA
ATOM     21  C   UNL     1      -4.310  16.365  24.505  0.00  0.00    +0.000 C 
ENDBRANCH  17  20
ENDBRANCH   5  14
BRANCH   3  22
ATOM     22  C   UNL     1       1.236   8.135  21.727  0.00  0.00    +0.000 C 
BRANCH  22  23
ATOM     23  N   UNL     1       1.828   7.841  20.434  0.00  0.00    +0.000 N 
ATOM     24  C   UNL     1       2.112   6.531  20.119  0.00  0.00    +0.000 C 
ATOM     25  O   UNL     1       1.892   5.599  20.857  0.00  0.00    +0.000 OA
ATOM     26  N   UNL     1       2.613   6.397  18.841  0.00  0.00    +0.000 N 
ATOM     27  H   UNL     1       2.078   8.599  19.832  0.00  0.00    +0.000 HD
ATOM     28  H   UNL     1       2.984   7.215  18.386  0.00  0.00    +0.000 HD
BRANCH  26  29
ATOM     29  C   UNL     1       2.934   5.079  18.291  0.00  0.00    +0.000 C 
ATOM     30  C   UNL     1       1.701   4.433  17.657  0.00  0.00    +0.000 C 
ATOM     31  C   UNL     1       4.054   5.156  17.254  0.00  0.00    +0.000 C 
ENDBRANCH  26  29
ENDBRANCH  22  23
ENDBRANCH   3  22
TORSDOF 7
ENDMDL
MODEL 9
REMARK VINA RESULT:      -6.8      8.436     11.368
REMARK  Name = 
REMARK  11 active torsions:
REMARK  status: ('A' for Active; 'I' for Inactive)
REMARK    1  A    between atoms: C_1  and  O_2
REMARK    2  A    between atoms: O_2  and  C_3
REMARK    3  A    between atoms: C_6  and  C_7
REMARK    4  A    between atoms: C_9  and  C_10
REMARK    5  A    between atoms: C_10  and  N_11
REMARK    6  A    between atoms: N_14  and  C_15
REMARK    7  A    between atoms: C_15  and  C_16
REMARK    8  A    between atoms: C_15  and  C_17
REMARK    9  A    between atoms: C_19  and  C_20
REMARK   10  A    between atoms: C_23  and  O_24
REMARK   11  A    between atoms: O_24  and  C_25
REMARK                            x       y       z     vdW  Elec       q    Type
REMARK                         _______ _______ _______ _____ _____    ______ ____
ROOT
ATOM      1  C   UNL     1      -0.126  12.142  19.251  0.00  0.00    +0.000 A 
ATOM      2  N   UNL     1      -1.321  12.858  19.270  0.00  0.00    +0.000 NA
ATOM      3  C   UNL     1      -2.334  12.042  19.074  0.00  0.00    +0.000 A 
ATOM      4  S   UNL     1      -1.924  10.384  18.911  0.00  0.00    +0.000 S 
ATOM      5  C   UNL     1      -0.253  10.757  19.100  0.00  0.00    +0.000 A 
ENDROOT
BRANCH   1   9
ATOM      6  C   UNL     1       3.577  14.245  19.600  0.00  0.00    +0.000 A 
ATOM      7  C   UNL     1       3.103  13.823  18.352  0.00  0.00    +0.000 A 
ATOM      8  C   UNL     1       1.890  13.164  18.223  0.00  0.00    +0.000 A 
ATOM      9  C   UNL     1       1.149  12.839  19.362  0.00  0.00    +0.000 A 
ATOM     10  C   UNL     1       1.668  13.211  20.615  0.00  0.00    +0.000 A 
ATOM     11  C   UNL     1       2.831  13.938  20.739  0.00  0.00    +0.000 A 
BRANCH   6  13
ATOM     12  C   UNL     1       5.322  15.162  18.313  0.00  0.00    +0.000 C 
ATOM     13  O   UNL     1       4.767  14.894  19.592  0.00  0.00    +0.000 OA
ENDBRANCH   6  13
ENDBRANCH   1   9
BRANCH   5  14
ATOM     14  C   UNL     1       0.769   9.695  19.094  0.00  0.00    +0.000 A 
ATOM     15  C   UNL     1       1.025   8.906  20.221  0.00  0.00    +0.000 A 
ATOM     16  C   UNL     1       1.888   7.819  20.137  0.00  0.00    +0.000 A 
ATOM     17  C   UNL     1       2.470   7.449  18.919  0.00  0.00    +0.000 A 
ATOM     18  C   UNL     1       2.262   8.237  17.804  0.00  0.00    +0.000 A 
ATOM     19  C   UNL     1       1.466   9.364  17.913  0.00  0.00    +0.000 A 
BRANCH  17  20
ATOM     20  O   UNL     1       3.279   6.346  18.981  0.00  0.00    +0.000 OA
ATOM     21  C   UNL     1       2.627   5.085  18.865  0.00  0.00    +0.000 C 
ENDBRANCH  17  20
ENDBRANCH   5  14
BRANCH   3  22
ATOM     22  C   UNL     1      -3.775  12.452  18.977  0.00  0.00    +0.000 C 
BRANCH  22  23
ATOM     23  N   UNL     1      -4.507  12.030  20.159  0.00  0.00    +0.000 N 
ATOM     24  C   UNL     1      -4.469  12.828  21.280  0.00  0.00    +0.000 C 
ATOM     25  O   UNL     1      -3.864  13.873  21.342  0.00  0.00    +0.000 OA
ATOM     26  N   UNL     1      -5.256  12.333  22.300  0.00  0.00    +0.000 N 
ATOM     27  H   UNL     1      -4.962  11.140  20.155  0.00  0.00    +0.000 HD
ATOM     28  H   UNL     1      -5.530  11.366  22.265  0.00  0.00    +0.000 HD
BRANCH  26  29
ATOM     29  C   UNL     1      -5.395  13.060  23.564  0.00  0.00    +0.000 C 
ATOM     30  C   UNL     1      -6.837  13.013  24.069  0.00  0.00    +0.000 C 
ATOM     31  C   UNL     1      -4.464  12.503  24.641  0.00  0.00    +0.000 C 
ENDBRANCH  26  29
ENDBRANCH  22  23
ENDBRANCH   3  22
TORSDOF 7
ENDMDL
