MODEL 1
REMARK VINA RESULT:      -9.5      0.000      0.000
REMARK  Name = 
REMARK  8 active torsions:
REMARK  status: ('A' for Active; 'I' for Inactive)
REMARK    1  A    between atoms: C_1  and  O_2
REMARK    2  A    between atoms: O_2  and  C_3
REMARK    3  A    between atoms: C_6  and  C_7
REMARK    4  A    between atoms: C_18  and  S_19
REMARK    5  A    between atoms: S_19  and  C_20
REMARK    6  A    between atoms: C_20  and  C_21
REMARK    7  A    between atoms: C_24  and  C_25
REMARK    8  A    between atoms: C_25  and  O_27
REMARK                            x       y       z     vdW  Elec       q    Type
REMARK                         _______ _______ _______ _____ _____    ______ ____
ROOT
ATOM      1  C   UNL     1       3.623   5.424  17.747  0.00  0.00    +0.000 C 
ATOM      2  C   UNL     1       3.044   4.084  18.188  0.00  0.00    +0.000 C 
ATOM      3  C   UNL     1       3.829   3.104  18.692  0.00  0.00    +0.000 C 
ATOM      4  C   UNL     1       3.280   1.740  19.035  0.00  0.00    +0.000 C 
ATOM      5  C   UNL     1       1.834   1.824  19.503  0.00  0.00    +0.000 C 
ATOM      6  C   UNL     1       0.959   2.574  18.511  0.00  0.00    +0.000 C 
ATOM      7  C   UNL     1       1.602   3.825  17.947  0.00  0.00    +0.000 C 
ATOM      8  O   UNL     1       0.949   4.592  17.242  0.00  0.00    +0.000 OA
ATOM      9  N   UNL     1       5.184   3.325  18.897  0.00  0.00    +0.000 N 
ATOM     10  C   UNL     1       5.784   4.503  18.634  0.00  0.00    +0.000 A 
ATOM     11  N   UNL     1       7.009   4.922  18.841  0.00  0.00    +0.000 NA
ATOM     12  C   UNL     1       6.979   6.216  18.374  0.00  0.00    +0.000 A 
ATOM     13  N   UNL     1       5.815   6.604  17.844  0.00  0.00    +0.000 NA
ATOM     14  N   UNL     1       5.054   5.514  18.067  0.00  0.00    +0.000 N 
ATOM     15  H   UNL     1       5.734   2.575  19.307  0.00  0.00    +0.000 HD
ENDROOT
BRANCH   1  19
ATOM     16  C   UNL     1       1.548   8.861  19.401  0.00  0.00    +0.000 A 
ATOM     17  C   UNL     1       1.909   8.848  18.051  0.00  0.00    +0.000 A 
ATOM     18  C   UNL     1       2.566   7.747  17.495  0.00  0.00    +0.000 A 
ATOM     19  C   UNL     1       2.892   6.643  18.299  0.00  0.00    +0.000 A 
ATOM     20  C   UNL     1       2.519   6.663  19.656  0.00  0.00    +0.000 A 
ATOM     21  C   UNL     1       1.853   7.760  20.200  0.00  0.00    +0.000 A 
BRANCH  16  23
ATOM     22  C   UNL     1      -0.385  10.230  19.370  0.00  0.00    +0.000 C 
ATOM     23  O   UNL     1       0.945  10.011  19.829  0.00  0.00    +0.000 OA
ENDBRANCH  16  23
ENDBRANCH   1  19
BRANCH  12  24
ATOM     24  S   UNL     1       8.352   7.289  18.470  0.00  0.00    +0.000 S 
BRANCH  24  25
ATOM     25  C   UNL     1       7.635   8.793  17.742  0.00  0.00    +0.000 C 
BRANCH  25  26
ATOM     26  C   UNL     1       8.374  10.042  18.171  0.00  0.00    +0.000 A 
ATOM     27  C   UNL     1       9.280   9.998  19.242  0.00  0.00    +0.000 A 
ATOM     28  C   UNL     1       9.968  11.147  19.639  0.00  0.00    +0.000 A 
ATOM     29  C   UNL     1       9.754  12.363  18.978  0.00  0.00    +0.000 A 
ATOM     30  C   UNL     1       8.868  12.412  17.895  0.00  0.00    +0.000 A 
ATOM     31  C   UNL     1       8.175  11.261  17.504  0.00  0.00    +0.000 A 
BRANCH  29  32
ATOM     32  C   UNL     1      10.528  13.548  19.433  0.00  0.00    +0.000 C 
ATOM     33  O   UNL     1      11.041  13.619  20.538  0.00  0.00    +0.000 OA
BRANCH  32  34
ATOM     34  O   UNL     1      10.580  14.555  18.536  0.00  0.00    +0.000 OA
ATOM     35  H   UNL     1      11.424  14.637  18.055  0.00  0.00    +0.000 HD
ENDBRANCH  32  34
ENDBRANCH  29  32
ENDBRANCH  25  26
ENDBRANCH  24  25
ENDBRANCH  12  24
TORSDOF 7
ENDMDL
MODEL 2
REMARK VINA RESULT:      -9.5      0.414      1.259
REMARK  Name = 
REMARK  8 active torsions:
REMARK  status: ('A' for Active; 'I' for Inactive)
REMARK    1  A    between atoms: C_1  and  O_2
REMARK    2  A    between atoms: O_2  and  C_3
REMARK    3  A    between atoms: C_6  and  C_7
REMARK    4  A    between atoms: C_18  and  S_19
REMARK    5  A    between atoms: S_19  and  C_20
REMARK    6  A    between atoms: C_20  and  C_21
REMARK    7  A    between atoms: C_24  and  C_25
REMARK    8  A    between atoms: C_25  and  O_27
REMARK                            x       y       z     vdW  Elec       q    Type
REMARK                         _______ _______ _______ _____ _____    ______ ____
ROOT
ATOM      1  C   UNL     1       3.621   5.428  17.763  0.00  0.00    +0.000 C 
ATOM      2  C   UNL     1       3.042   4.083  18.184  0.00  0.00    +0.000 C 
ATOM      3  C   UNL     1       3.828   3.093  18.669  0.00  0.00    +0.000 C 
ATOM      4  C   UNL     1       3.279   1.724  18.991  0.00  0.00    +0.000 C 
ATOM      5  C   UNL     1       1.834   1.802  19.466  0.00  0.00    +0.000 C 
ATOM      6  C   UNL     1       0.957   2.570  18.491  0.00  0.00    +0.000 C 
ATOM      7  C   UNL     1       1.598   3.830  17.945  0.00  0.00    +0.000 C 
ATOM      8  O   UNL     1       0.943   4.608  17.255  0.00  0.00    +0.000 OA
ATOM      9  N   UNL     1       5.184   3.309  18.871  0.00  0.00    +0.000 N 
ATOM     10  C   UNL     1       5.784   4.491  18.625  0.00  0.00    +0.000 A 
ATOM     11  N   UNL     1       7.011   4.905  18.834  0.00  0.00    +0.000 NA
ATOM     12  C   UNL     1       6.980   6.206  18.389  0.00  0.00    +0.000 A 
ATOM     13  N   UNL     1       5.815   6.604  17.870  0.00  0.00    +0.000 NA
ATOM     14  N   UNL     1       5.053   5.512  18.078  0.00  0.00    +0.000 N 
ATOM     15  H   UNL     1       5.735   2.552  19.267  0.00  0.00    +0.000 HD
ENDROOT
BRANCH   1  19
ATOM     16  C   UNL     1       1.547   8.913  19.317  0.00  0.00    +0.000 A 
ATOM     17  C   UNL     1       1.817   7.830  20.158  0.00  0.00    +0.000 A 
ATOM     18  C   UNL     1       2.494   6.704  19.681  0.00  0.00    +0.000 A 
ATOM     19  C   UNL     1       2.894   6.640  18.338  0.00  0.00    +0.000 A 
ATOM     20  C   UNL     1       2.623   7.738  17.500  0.00  0.00    +0.000 A 
ATOM     21  C   UNL     1       1.958   8.863  17.985  0.00  0.00    +0.000 A 
BRANCH  16  23
ATOM     22  C   UNL     1       0.832   9.959  21.318  0.00  0.00    +0.000 C 
ATOM     23  O   UNL     1       0.847   9.935  19.895  0.00  0.00    +0.000 OA
ENDBRANCH  16  23
ENDBRANCH   1  19
BRANCH  12  24
ATOM     24  S   UNL     1       8.355   7.276  18.497  0.00  0.00    +0.000 S 
BRANCH  24  25
ATOM     25  C   UNL     1       7.653   8.778  17.753  0.00  0.00    +0.000 C 
BRANCH  25  26
ATOM     26  C   UNL     1       8.396  10.026  18.177  0.00  0.00    +0.000 A 
ATOM     27  C   UNL     1       8.186  11.240  17.505  0.00  0.00    +0.000 A 
ATOM     28  C   UNL     1       8.867  12.395  17.896  0.00  0.00    +0.000 A 
ATOM     29  C   UNL     1       9.776  12.355  18.960  0.00  0.00    +0.000 A 
ATOM     30  C   UNL     1       9.977  11.153  19.649  0.00  0.00    +0.000 A 
ATOM     31  C   UNL     1       9.299   9.995  19.251  0.00  0.00    +0.000 A 
BRANCH  29  32
ATOM     32  C   UNL     1      10.458  13.620  19.342  0.00  0.00    +0.000 C 
ATOM     33  O   UNL     1      11.162  13.719  20.333  0.00  0.00    +0.000 OA
BRANCH  32  34
ATOM     34  O   UNL     1      10.198  14.660  18.522  0.00  0.00    +0.000 OA
ATOM     35  H   UNL     1       9.309  14.660  18.123  0.00  0.00    +0.000 HD
ENDBRANCH  32  34
ENDBRANCH  29  32
ENDBRANCH  25  26
ENDBRANCH  24  25
ENDBRANCH  12  24
TORSDOF 7
ENDMDL
MODEL 3
REMARK VINA RESULT:      -9.4      0.255      1.038
REMARK  Name = 
REMARK  8 active torsions:
REMARK  status: ('A' for Active; 'I' for Inactive)
REMARK    1  A    between atoms: C_1  and  O_2
REMARK    2  A    between atoms: O_2  and  C_3
REMARK    3  A    between atoms: C_6  and  C_7
REMARK    4  A    between atoms: C_18  and  S_19
REMARK    5  A    between atoms: S_19  and  C_20
REMARK    6  A    between atoms: C_20  and  C_21
REMARK    7  A    between atoms: C_24  and  C_25
REMARK    8  A    between atoms: C_25  and  O_27
REMARK                            x       y       z     vdW  Elec       q    Type
REMARK                         _______ _______ _______ _____ _____    ______ ____
ROOT
ATOM      1  C   UNL     1       3.632   5.393  17.781  0.00  0.00    +0.000 C 
ATOM      2  C   UNL     1       3.067   4.045  18.213  0.00  0.00    +0.000 C 
ATOM      3  C   UNL     1       3.863   3.067  18.703  0.00  0.00    +0.000 C 
ATOM      4  C   UNL     1       3.328   1.695  19.037  0.00  0.00    +0.000 C 
ATOM      5  C   UNL     1       1.884   1.762  19.514  0.00  0.00    +0.000 C 
ATOM      6  C   UNL     1       0.997   2.514  18.535  0.00  0.00    +0.000 C 
ATOM      7  C   UNL     1       1.625   3.776  17.979  0.00  0.00    +0.000 C 
ATOM      8  O   UNL     1       0.962   4.543  17.285  0.00  0.00    +0.000 OA
ATOM      9  N   UNL     1       5.218   3.297  18.901  0.00  0.00    +0.000 N 
ATOM     10  C   UNL     1       5.806   4.483  18.645  0.00  0.00    +0.000 A 
ATOM     11  N   UNL     1       7.029   4.910  18.849  0.00  0.00    +0.000 NA
ATOM     12  C   UNL     1       6.985   6.208  18.394  0.00  0.00    +0.000 A 
ATOM     13  N   UNL     1       5.814   6.591  17.875  0.00  0.00    +0.000 NA
ATOM     14  N   UNL     1       5.064   5.493  18.092  0.00  0.00    +0.000 N 
ATOM     15  H   UNL     1       5.777   2.548  19.301  0.00  0.00    +0.000 HD
ENDROOT
BRANCH   1  19
ATOM     16  C   UNL     1       1.525   8.867  19.314  0.00  0.00    +0.000 A 
ATOM     17  C   UNL     1       1.836   7.807  20.169  0.00  0.00    +0.000 A 
ATOM     18  C   UNL     1       2.524   6.685  19.699  0.00  0.00    +0.000 A 
ATOM     19  C   UNL     1       2.894   6.601  18.349  0.00  0.00    +0.000 A 
ATOM     20  C   UNL     1       2.583   7.677  17.496  0.00  0.00    +0.000 A 
ATOM     21  C   UNL     1       1.906   8.798  17.974  0.00  0.00    +0.000 A 
BRANCH  16  23
ATOM     22  C   UNL     1       0.689  11.074  19.113  0.00  0.00    +0.000 C 
ATOM     23  O   UNL     1       0.818   9.887  19.888  0.00  0.00    +0.000 OA
ENDBRANCH  16  23
ENDBRANCH   1  19
BRANCH  12  24
ATOM     24  S   UNL     1       8.349   7.292  18.492  0.00  0.00    +0.000 S 
BRANCH  24  25
ATOM     25  C   UNL     1       7.625   8.788  17.754  0.00  0.00    +0.000 C 
BRANCH  25  26
ATOM     26  C   UNL     1       8.377  10.040  18.150  0.00  0.00    +0.000 A 
ATOM     27  C   UNL     1       9.306  10.007  19.201  0.00  0.00    +0.000 A 
ATOM     28  C   UNL     1      10.005  11.160  19.567  0.00  0.00    +0.000 A 
ATOM     29  C   UNL     1       9.780  12.367  18.895  0.00  0.00    +0.000 A 
ATOM     30  C   UNL     1       8.869  12.405  17.832  0.00  0.00    +0.000 A 
ATOM     31  C   UNL     1       8.165  11.251  17.472  0.00  0.00    +0.000 A 
BRANCH  29  32
ATOM     32  C   UNL     1      10.567  13.556  19.317  0.00  0.00    +0.000 C 
ATOM     33  O   UNL     1      10.722  14.534  18.605  0.00  0.00    +0.000 OA
BRANCH  32  34
ATOM     34  O   UNL     1      11.128  13.445  20.540  0.00  0.00    +0.000 OA
ATOM     35  H   UNL     1      12.099  13.361  20.543  0.00  0.00    +0.000 HD
ENDBRANCH  32  34
ENDBRANCH  29  32
ENDBRANCH  25  26
ENDBRANCH  24  25
ENDBRANCH  12  24
TORSDOF 7
ENDMDL
MODEL 4
REMARK VINA RESULT:      -8.7      0.936      1.387
REMARK  Name = 
REMARK  8 active torsions:
REMARK  status: ('A' for Active; 'I' for Inactive)
REMARK    1  A    between atoms: C_1  and  O_2
REMARK    2  A    between atoms: O_2  and  C_3
REMARK    3  A    between atoms: C_6  and  C_7
REMARK    4  A    between atoms: C_18  and  S_19
REMARK    5  A    between atoms: S_19  and  C_20
REMARK    6  A    between atoms: C_20  and  C_21
REMARK    7  A    between atoms: C_24  and  C_25
REMARK    8  A    between atoms: C_25  and  O_27
REMARK                            x       y       z     vdW  Elec       q    Type
REMARK                         _______ _______ _______ _____ _____    ______ ____
ROOT
ATOM      1  C   UNL     1       3.748   5.687  17.862  0.00  0.00    +0.000 C 
ATOM      2  C   UNL     1       3.518   4.390  18.629  0.00  0.00    +0.000 C 
ATOM      3  C   UNL     1       4.547   3.670  19.132  0.00  0.00    +0.000 C 
ATOM      4  C   UNL     1       4.334   2.335  19.802  0.00  0.00    +0.000 C 
ATOM      5  C   UNL     1       2.993   2.280  20.521  0.00  0.00    +0.000 C 
ATOM      6  C   UNL     1       1.843   2.665  19.604  0.00  0.00    +0.000 C 
ATOM      7  C   UNL     1       2.133   3.862  18.721  0.00  0.00    +0.000 C 
ATOM      8  O   UNL     1       1.239   4.355  18.035  0.00  0.00    +0.000 OA
ATOM      9  N   UNL     1       5.849   4.141  19.029  0.00  0.00    +0.000 N 
ATOM     10  C   UNL     1       6.160   5.322  18.457  0.00  0.00    +0.000 A 
ATOM     11  N   UNL     1       7.298   5.963  18.347  0.00  0.00    +0.000 NA
ATOM     12  C   UNL     1       6.944   7.114  17.681  0.00  0.00    +0.000 A 
ATOM     13  N   UNL     1       5.658   7.196  17.329  0.00  0.00    +0.000 NA
ATOM     14  N   UNL     1       5.168   6.067  17.878  0.00  0.00    +0.000 N 
ATOM     15  H   UNL     1       6.593   3.587  19.446  0.00  0.00    +0.000 HD
ENDROOT
BRANCH   1  19
ATOM     16  C   UNL     1       1.326   9.002  19.276  0.00  0.00    +0.000 A 
ATOM     17  C   UNL     1       1.675   8.919  17.925  0.00  0.00    +0.000 A 
ATOM     18  C   UNL     1       2.443   7.855  17.447  0.00  0.00    +0.000 A 
ATOM     19  C   UNL     1       2.894   6.861  18.328  0.00  0.00    +0.000 A 
ATOM     20  C   UNL     1       2.533   6.949  19.686  0.00  0.00    +0.000 A 
ATOM     21  C   UNL     1       1.756   8.008  20.154  0.00  0.00    +0.000 A 
BRANCH  16  23
ATOM     22  C   UNL     1       0.917  11.307  18.916  0.00  0.00    +0.000 C 
ATOM     23  O   UNL     1       0.605  10.111  19.622  0.00  0.00    +0.000 OA
ENDBRANCH  16  23
ENDBRANCH   1  19
BRANCH  12  24
ATOM     24  S   UNL     1       8.082   8.388  17.324  0.00  0.00    +0.000 S 
BRANCH  24  25
ATOM     25  C   UNL     1       8.630   8.809  19.006  0.00  0.00    +0.000 C 
BRANCH  25  26
ATOM     26  C   UNL     1       9.176  10.218  19.092  0.00  0.00    +0.000 A 
ATOM     27  C   UNL     1       9.138  11.063  17.973  0.00  0.00    +0.000 A 
ATOM     28  C   UNL     1       9.635  12.366  18.049  0.00  0.00    +0.000 A 
ATOM     29  C   UNL     1      10.189  12.843  19.243  0.00  0.00    +0.000 A 
ATOM     30  C   UNL     1      10.214  12.013  20.371  0.00  0.00    +0.000 A 
ATOM     31  C   UNL     1       9.720  10.706  20.290  0.00  0.00    +0.000 A 
BRANCH  29  32
ATOM     32  C   UNL     1      10.687  14.244  19.270  0.00  0.00    +0.000 C 
ATOM     33  O   UNL     1      10.544  15.014  18.335  0.00  0.00    +0.000 OA
BRANCH  32  34
ATOM     34  O   UNL     1      11.346  14.577  20.400  0.00  0.00    +0.000 OA
ATOM     35  H   UNL     1      12.317  14.600  20.320  0.00  0.00    +0.000 HD
ENDBRANCH  32  34
ENDBRANCH  29  32
ENDBRANCH  25  26
ENDBRANCH  24  25
ENDBRANCH  12  24
TORSDOF 7
ENDMDL
MODEL 5
REMARK VINA RESULT:      -8.7      1.037      1.569
REMARK  Name = 
REMARK  8 active torsions:
REMARK  status: ('A' for Active; 'I' for Inactive)
REMARK    1  A    between atoms: C_1  and  O_2
REMARK    2  A    between atoms: O_2  and  C_3
REMARK    3  A    between atoms: C_6  and  C_7
REMARK    4  A    between atoms: C_18  and  S_19
REMARK    5  A    between atoms: S_19  and  C_20
REMARK    6  A    between atoms: C_20  and  C_21
REMARK    7  A    between atoms: C_24  and  C_25
REMARK    8  A    between atoms: C_25  and  O_27
REMARK                            x       y       z     vdW  Elec       q    Type
REMARK                         _______ _______ _______ _____ _____    ______ ____
ROOT
ATOM      1  C   UNL     1       3.792   5.711  17.853  0.00  0.00    +0.000 C 
ATOM      2  C   UNL     1       3.573   4.388  18.578  0.00  0.00    +0.000 C 
ATOM      3  C   UNL     1       4.610   3.655  19.044  0.00  0.00    +0.000 C 
ATOM      4  C   UNL     1       4.409   2.297  19.671  0.00  0.00    +0.000 C 
ATOM      5  C   UNL     1       3.076   2.213  20.401  0.00  0.00    +0.000 C 
ATOM      6  C   UNL     1       1.915   2.625  19.511  0.00  0.00    +0.000 C 
ATOM      7  C   UNL     1       2.191   3.852  18.666  0.00  0.00    +0.000 C 
ATOM      8  O   UNL     1       1.289   4.365  18.007  0.00  0.00    +0.000 OA
ATOM      9  N   UNL     1       5.910   4.134  18.944  0.00  0.00    +0.000 N 
ATOM     10  C   UNL     1       6.211   5.334  18.410  0.00  0.00    +0.000 A 
ATOM     11  N   UNL     1       7.346   5.983  18.310  0.00  0.00    +0.000 NA
ATOM     12  C   UNL     1       6.981   7.155  17.687  0.00  0.00    +0.000 A 
ATOM     13  N   UNL     1       5.690   7.244  17.352  0.00  0.00    +0.000 NA
ATOM     14  N   UNL     1       5.210   6.095  17.867  0.00  0.00    +0.000 N 
ATOM     15  H   UNL     1       6.659   3.569  19.335  0.00  0.00    +0.000 HD
ENDROOT
BRANCH   1  19
ATOM     16  C   UNL     1       1.352   9.027  19.234  0.00  0.00    +0.000 A 
ATOM     17  C   UNL     1       1.775   8.049  20.138  0.00  0.00    +0.000 A 
ATOM     18  C   UNL     1       2.571   6.980  19.718  0.00  0.00    +0.000 A 
ATOM     19  C   UNL     1       2.939   6.865  18.368  0.00  0.00    +0.000 A 
ATOM     20  C   UNL     1       2.512   7.858  17.466  0.00  0.00    +0.000 A 
ATOM     21  C   UNL     1       1.728   8.928  17.895  0.00  0.00    +0.000 A 
BRANCH  16  23
ATOM     22  C   UNL     1       0.506  10.070  21.185  0.00  0.00    +0.000 C 
ATOM     23  O   UNL     1       0.548   9.997  19.765  0.00  0.00    +0.000 OA
ENDBRANCH  16  23
ENDBRANCH   1  19
BRANCH  12  24
ATOM     24  S   UNL     1       8.111   8.445  17.363  0.00  0.00    +0.000 S 
BRANCH  24  25
ATOM     25  C   UNL     1       8.588   8.888  19.060  0.00  0.00    +0.000 C 
BRANCH  25  26
ATOM     26  C   UNL     1       9.305  10.219  19.122  0.00  0.00    +0.000 A 
ATOM     27  C   UNL     1       9.601  10.921  17.943  0.00  0.00    +0.000 A 
ATOM     28  C   UNL     1      10.259  12.152  17.995  0.00  0.00    +0.000 A 
ATOM     29  C   UNL     1      10.640  12.698  19.226  0.00  0.00    +0.000 A 
ATOM     30  C   UNL     1      10.332  12.015  20.409  0.00  0.00    +0.000 A 
ATOM     31  C   UNL     1       9.679  10.779  20.354  0.00  0.00    +0.000 A 
BRANCH  29  32
ATOM     32  C   UNL     1      11.322  14.020  19.220  0.00  0.00    +0.000 C 
ATOM     33  O   UNL     1      11.504  14.675  20.233  0.00  0.00    +0.000 OA
BRANCH  32  34
ATOM     34  O   UNL     1      11.686  14.451  17.994  0.00  0.00    +0.000 OA
ATOM     35  H   UNL     1      12.506  14.059  17.645  0.00  0.00    +0.000 HD
ENDBRANCH  32  34
ENDBRANCH  29  32
ENDBRANCH  25  26
ENDBRANCH  24  25
ENDBRANCH  12  24
TORSDOF 7
ENDMDL
MODEL 6
REMARK VINA RESULT:      -8.5      1.129      1.477
REMARK  Name = 
REMARK  8 active torsions:
REMARK  status: ('A' for Active; 'I' for Inactive)
REMARK    1  A    between atoms: C_1  and  O_2
REMARK    2  A    between atoms: O_2  and  C_3
REMARK    3  A    between atoms: C_6  and  C_7
REMARK    4  A    between atoms: C_18  and  S_19
REMARK    5  A    between atoms: S_19  and  C_20
REMARK    6  A    between atoms: C_20  and  C_21
REMARK    7  A    between atoms: C_24  and  C_25
REMARK    8  A    between atoms: C_25  and  O_27
REMARK                            x       y       z     vdW  Elec       q    Type
REMARK                         _______ _______ _______ _____ _____    ______ ____
ROOT
ATOM      1  C   UNL     1       3.811   5.781  17.841  0.00  0.00    +0.000 C 
ATOM      2  C   UNL     1       3.605   4.453  18.561  0.00  0.00    +0.000 C 
ATOM      3  C   UNL     1       4.647   3.738  19.042  0.00  0.00    +0.000 C 
ATOM      4  C   UNL     1       4.460   2.375  19.665  0.00  0.00    +0.000 C 
ATOM      5  C   UNL     1       3.118   2.268  20.376  0.00  0.00    +0.000 C 
ATOM      6  C   UNL     1       1.963   2.661  19.469  0.00  0.00    +0.000 C 
ATOM      7  C   UNL     1       2.230   3.894  18.629  0.00  0.00    +0.000 C 
ATOM      8  O   UNL     1       1.330   4.392  17.957  0.00  0.00    +0.000 OA
ATOM      9  N   UNL     1       5.939   4.238  18.961  0.00  0.00    +0.000 N 
ATOM     10  C   UNL     1       6.228   5.444  18.432  0.00  0.00    +0.000 A 
ATOM     11  N   UNL     1       7.353   6.113  18.350  0.00  0.00    +0.000 NA
ATOM     12  C   UNL     1       6.977   7.279  17.722  0.00  0.00    +0.000 A 
ATOM     13  N   UNL     1       5.690   7.346  17.368  0.00  0.00    +0.000 NA
ATOM     14  N   UNL     1       5.222   6.189  17.875  0.00  0.00    +0.000 N 
ATOM     15  H   UNL     1       6.693   3.686  19.362  0.00  0.00    +0.000 HD
ENDROOT
BRANCH   1  19
ATOM     16  C   UNL     1       1.294   9.052  19.190  0.00  0.00    +0.000 A 
ATOM     17  C   UNL     1       1.742   8.094  20.103  0.00  0.00    +0.000 A 
ATOM     18  C   UNL     1       2.563   7.040  19.693  0.00  0.00    +0.000 A 
ATOM     19  C   UNL     1       2.931   6.920  18.345  0.00  0.00    +0.000 A 
ATOM     20  C   UNL     1       2.479   7.892  17.432  0.00  0.00    +0.000 A 
ATOM     21  C   UNL     1       1.670   8.947  17.851  0.00  0.00    +0.000 A 
BRANCH  16  23
ATOM     22  C   UNL     1       1.014  11.317  19.822  0.00  0.00    +0.000 C 
ATOM     23  O   UNL     1       0.467  10.008  19.711  0.00  0.00    +0.000 OA
ENDBRANCH  16  23
ENDBRANCH   1  19
BRANCH  12  24
ATOM     24  S   UNL     1       8.089   8.588  17.415  0.00  0.00    +0.000 S 
BRANCH  24  25
ATOM     25  C   UNL     1       8.735   8.861  19.093  0.00  0.00    +0.000 C 
BRANCH  25  26
ATOM     26  C   UNL     1       9.347  10.235  19.252  0.00  0.00    +0.000 A 
ATOM     27  C   UNL     1       9.376  10.858  20.509  0.00  0.00    +0.000 A 
ATOM     28  C   UNL     1       9.945  12.125  20.661  0.00  0.00    +0.000 A 
ATOM     29  C   UNL     1      10.484  12.795  19.557  0.00  0.00    +0.000 A 
ATOM     30  C   UNL     1      10.477  12.174  18.303  0.00  0.00    +0.000 A 
ATOM     31  C   UNL     1       9.902  10.908  18.151  0.00  0.00    +0.000 A 
BRANCH  29  32
ATOM     32  C   UNL     1      11.091  14.134  19.784  0.00  0.00    +0.000 C 
ATOM     33  O   UNL     1      12.261  14.380  19.543  0.00  0.00    +0.000 OA
BRANCH  32  34
ATOM     34  O   UNL     1      10.246  15.043  20.316  0.00  0.00    +0.000 OA
ATOM     35  H   UNL     1       9.407  14.680  20.652  0.00  0.00    +0.000 HD
ENDBRANCH  32  34
ENDBRANCH  29  32
ENDBRANCH  25  26
ENDBRANCH  24  25
ENDBRANCH  12  24
TORSDOF 7
ENDMDL
MODEL 7
REMARK VINA RESULT:      -8.1      1.066      1.184
REMARK  Name = 
REMARK  8 active torsions:
REMARK  status: ('A' for Active; 'I' for Inactive)
REMARK    1  A    between atoms: C_1  and  O_2
REMARK    2  A    between atoms: O_2  and  C_3
REMARK    3  A    between atoms: C_6  and  C_7
REMARK    4  A    between atoms: C_18  and  S_19
REMARK    5  A    between atoms: S_19  and  C_20
REMARK    6  A    between atoms: C_20  and  C_21
REMARK    7  A    between atoms: C_24  and  C_25
REMARK    8  A    between atoms: C_25  and  O_27
REMARK                            x       y       z     vdW  Elec       q    Type
REMARK                         _______ _______ _______ _____ _____    ______ ____
ROOT
ATOM      1  C   UNL     1       3.763   5.592  17.870  0.00  0.00    +0.000 C 
ATOM      2  C   UNL     1       3.420   4.334  18.660  0.00  0.00    +0.000 C 
ATOM      3  C   UNL     1       4.382   3.555  19.206  0.00  0.00    +0.000 C 
ATOM      4  C   UNL     1       4.057   2.255  19.900  0.00  0.00    +0.000 C 
ATOM      5  C   UNL     1       2.698   2.313  20.583  0.00  0.00    +0.000 C 
ATOM      6  C   UNL     1       1.602   2.756  19.626  0.00  0.00    +0.000 C 
ATOM      7  C   UNL     1       1.999   3.908  18.725  0.00  0.00    +0.000 C 
ATOM      8  O   UNL     1       1.162   4.446  18.004  0.00  0.00    +0.000 OA
ATOM      9  N   UNL     1       5.717   3.930  19.129  0.00  0.00    +0.000 N 
ATOM     10  C   UNL     1       6.126   5.071  18.539  0.00  0.00    +0.000 A 
ATOM     11  N   UNL     1       7.310   5.628  18.447  0.00  0.00    +0.000 NA
ATOM     12  C   UNL     1       7.057   6.784  17.745  0.00  0.00    +0.000 A 
ATOM     13  N   UNL     1       5.789   6.949  17.356  0.00  0.00    +0.000 NA
ATOM     14  N   UNL     1       5.205   5.871  17.917  0.00  0.00    +0.000 N 
ATOM     15  H   UNL     1       6.408   3.335  19.579  0.00  0.00    +0.000 HD
ENDROOT
BRANCH   1  19
ATOM     16  C   UNL     1       1.544   9.101  19.141  0.00  0.00    +0.000 A 
ATOM     17  C   UNL     1       1.975   8.991  17.817  0.00  0.00    +0.000 A 
ATOM     18  C   UNL     1       2.679   7.865  17.383  0.00  0.00    +0.000 A 
ATOM     19  C   UNL     1       2.983   6.835  18.286  0.00  0.00    +0.000 A 
ATOM     20  C   UNL     1       2.540   6.952  19.617  0.00  0.00    +0.000 A 
ATOM     21  C   UNL     1       1.827   8.073  20.040  0.00  0.00    +0.000 A 
BRANCH  16  23
ATOM     22  C   UNL     1       1.354  11.432  18.766  0.00  0.00    +0.000 C 
ATOM     23  O   UNL     1       0.899  10.268  19.446  0.00  0.00    +0.000 OA
ENDBRANCH  16  23
ENDBRANCH   1  19
BRANCH  12  24
ATOM     24  S   UNL     1       8.291   7.966  17.392  0.00  0.00    +0.000 S 
BRANCH  24  25
ATOM     25  C   UNL     1       7.541   9.446  18.135  0.00  0.00    +0.000 C 
BRANCH  25  26
ATOM     26  C   UNL     1       8.404  10.676  17.952  0.00  0.00    +0.000 A 
ATOM     27  C   UNL     1       9.795  10.596  18.113  0.00  0.00    +0.000 A 
ATOM     28  C   UNL     1      10.596  11.728  17.941  0.00  0.00    +0.000 A 
ATOM     29  C   UNL     1      10.018  12.960  17.614  0.00  0.00    +0.000 A 
ATOM     30  C   UNL     1       8.632  13.045  17.432  0.00  0.00    +0.000 A 
ATOM     31  C   UNL     1       7.831  11.912  17.612  0.00  0.00    +0.000 A 
BRANCH  29  32
ATOM     32  C   UNL     1      10.922  14.126  17.426  0.00  0.00    +0.000 C 
ATOM     33  O   UNL     1      11.119  14.958  18.296  0.00  0.00    +0.000 OA
BRANCH  32  34
ATOM     34  O   UNL     1      11.475  14.206  16.197  0.00  0.00    +0.000 OA
ATOM     35  H   UNL     1      12.424  13.990  16.156  0.00  0.00    +0.000 HD
ENDBRANCH  32  34
ENDBRANCH  29  32
ENDBRANCH  25  26
ENDBRANCH  24  25
ENDBRANCH  12  24
TORSDOF 7
ENDMDL
MODEL 8
REMARK VINA RESULT:      -8.0      6.064     10.368
REMARK  Name = 
REMARK  8 active torsions:
REMARK  status: ('A' for Active; 'I' for Inactive)
REMARK    1  A    between atoms: C_1  and  O_2
REMARK    2  A    between atoms: O_2  and  C_3
REMARK    3  A    between atoms: C_6  and  C_7
REMARK    4  A    between atoms: C_18  and  S_19
REMARK    5  A    between atoms: S_19  and  C_20
REMARK    6  A    between atoms: C_20  and  C_21
REMARK    7  A    between atoms: C_24  and  C_25
REMARK    8  A    between atoms: C_25  and  O_27
REMARK                            x       y       z     vdW  Elec       q    Type
REMARK                         _______ _______ _______ _____ _____    ______ ____
ROOT
ATOM      1  C   UNL     1       0.591  10.374  19.730  0.00  0.00    +0.000 C 
ATOM      2  C   UNL     1       1.305   9.031  19.622  0.00  0.00    +0.000 C 
ATOM      3  C   UNL     1       1.456   8.220  20.693  0.00  0.00    +0.000 C 
ATOM      4  C   UNL     1       2.250   6.938  20.618  0.00  0.00    +0.000 C 
ATOM      5  C   UNL     1       2.153   6.304  19.237  0.00  0.00    +0.000 C 
ATOM      6  C   UNL     1       2.520   7.286  18.135  0.00  0.00    +0.000 C 
ATOM      7  C   UNL     1       1.940   8.673  18.328  0.00  0.00    +0.000 C 
ATOM      8  O   UNL     1       2.049   9.518  17.442  0.00  0.00    +0.000 OA
ATOM      9  N   UNL     1       0.890   8.557  21.915  0.00  0.00    +0.000 N 
ATOM     10  C   UNL     1       0.156   9.672  22.102  0.00  0.00    +0.000 A 
ATOM     11  N   UNL     1      -0.521  10.106  23.137  0.00  0.00    +0.000 NA
ATOM     12  C   UNL     1      -1.063  11.286  22.683  0.00  0.00    +0.000 A 
ATOM     13  N   UNL     1      -0.719  11.630  21.438  0.00  0.00    +0.000 NA
ATOM     14  N   UNL     1       0.016  10.562  21.070  0.00  0.00    +0.000 N 
ATOM     15  H   UNL     1       0.999   7.906  22.689  0.00  0.00    +0.000 HD
ENDROOT
BRANCH   1  19
ATOM     16  C   UNL     1      -2.430  11.134  16.706  0.00  0.00    +0.000 A 
ATOM     17  C   UNL     1      -2.251   9.841  17.202  0.00  0.00    +0.000 A 
ATOM     18  C   UNL     1      -1.294   9.576  18.185  0.00  0.00    +0.000 A 
ATOM     19  C   UNL     1      -0.480  10.611  18.671  0.00  0.00    +0.000 A 
ATOM     20  C   UNL     1      -0.671  11.912  18.169  0.00  0.00    +0.000 A 
ATOM     21  C   UNL     1      -1.637  12.170  17.197  0.00  0.00    +0.000 A 
BRANCH  16  23
ATOM     22  C   UNL     1      -3.336  10.265  14.697  0.00  0.00    +0.000 C 
ATOM     23  O   UNL     1      -3.372  11.252  15.721  0.00  0.00    +0.000 OA
ENDBRANCH  16  23
ENDBRANCH   1  19
BRANCH  12  24
ATOM     24  S   UNL     1      -2.135  12.269  23.648  0.00  0.00    +0.000 S 
BRANCH  24  25
ATOM     25  C   UNL     1      -2.638  13.504  22.412  0.00  0.00    +0.000 C 
BRANCH  25  26
ATOM     26  C   UNL     1      -3.835  13.048  21.605  0.00  0.00    +0.000 A 
ATOM     27  C   UNL     1      -5.095  12.930  22.211  0.00  0.00    +0.000 A 
ATOM     28  C   UNL     1      -6.204  12.515  21.469  0.00  0.00    +0.000 A 
ATOM     29  C   UNL     1      -6.069  12.201  20.112  0.00  0.00    +0.000 A 
ATOM     30  C   UNL     1      -4.820  12.335  19.494  0.00  0.00    +0.000 A 
ATOM     31  C   UNL     1      -3.710  12.745  20.241  0.00  0.00    +0.000 A 
BRANCH  29  32
ATOM     32  C   UNL     1      -7.288  11.782  19.370  0.00  0.00    +0.000 C 
ATOM     33  O   UNL     1      -7.745  12.418  18.435  0.00  0.00    +0.000 OA
BRANCH  32  34
ATOM     34  O   UNL     1      -7.867  10.658  19.844  0.00  0.00    +0.000 OA
ATOM     35  H   UNL     1      -8.626  10.335  19.326  0.00  0.00    +0.000 HD
ENDBRANCH  32  34
ENDBRANCH  29  32
ENDBRANCH  25  26
ENDBRANCH  24  25
ENDBRANCH  12  24
TORSDOF 7
ENDMDL
MODEL 9
REMARK VINA RESULT:      -7.7      4.743      8.723
REMARK  Name = 
REMARK  8 active torsions:
REMARK  status: ('A' for Active; 'I' for Inactive)
REMARK    1  A    between atoms: C_1  and  O_2
REMARK    2  A    between atoms: O_2  and  C_3
REMARK    3  A    between atoms: C_6  and  C_7
REMARK    4  A    between atoms: C_18  and  S_19
REMARK    5  A    between atoms: S_19  and  C_20
REMARK    6  A    between atoms: C_20  and  C_21
REMARK    7  A    between atoms: C_24  and  C_25
REMARK    8  A    between atoms: C_25  and  O_27
REMARK                            x       y       z     vdW  Elec       q    Type
REMARK                         _______ _______ _______ _____ _____    ______ ____
ROOT
ATOM      1  C   UNL     1      -0.298  11.790  20.286  0.00  0.00    +0.000 C 
ATOM      2  C   UNL     1      -1.103  12.452  21.397  0.00  0.00    +0.000 C 
ATOM      3  C   UNL     1      -1.453  11.780  22.518  0.00  0.00    +0.000 C 
ATOM      4  C   UNL     1      -2.337  12.396  23.575  0.00  0.00    +0.000 C 
ATOM      5  C   UNL     1      -2.126  13.900  23.670  0.00  0.00    +0.000 C 
ATOM      6  C   UNL     1      -2.270  14.579  22.317  0.00  0.00    +0.000 C 
ATOM      7  C   UNL     1      -1.603  13.834  21.179  0.00  0.00    +0.000 C 
ATOM      8  O   UNL     1      -1.532  14.344  20.063  0.00  0.00    +0.000 OA
ATOM      9  N   UNL     1      -1.015  10.478  22.721  0.00  0.00    +0.000 N 
ATOM     10  C   UNL     1      -0.217   9.828  21.851  0.00  0.00    +0.000 A 
ATOM     11  N   UNL     1       0.362   8.653  21.910  0.00  0.00    +0.000 NA
ATOM     12  C   UNL     1       1.053   8.585  20.723  0.00  0.00    +0.000 A 
ATOM     13  N   UNL     1       0.894   9.634  19.910  0.00  0.00    +0.000 NA
ATOM     14  N   UNL     1       0.122  10.435  20.671  0.00  0.00    +0.000 N 
ATOM     15  H   UNL     1      -1.272  10.017  23.590  0.00  0.00    +0.000 HD
ENDROOT
BRANCH   1  19
ATOM     16  C   UNL     1       3.176  14.071  19.028  0.00  0.00    +0.000 A 
ATOM     17  C   UNL     1       2.265  13.607  18.076  0.00  0.00    +0.000 A 
ATOM     18  C   UNL     1       1.133  12.882  18.460  0.00  0.00    +0.000 A 
ATOM     19  C   UNL     1       0.911  12.591  19.814  0.00  0.00    +0.000 A 
ATOM     20  C   UNL     1       1.832  13.067  20.767  0.00  0.00    +0.000 A 
ATOM     21  C   UNL     1       2.952  13.800  20.377  0.00  0.00    +0.000 A 
BRANCH  16  23
ATOM     22  C   UNL     1       3.975  15.846  17.678  0.00  0.00    +0.000 C 
ATOM     23  O   UNL     1       4.259  14.734  18.519  0.00  0.00    +0.000 OA
ENDBRANCH  16  23
ENDBRANCH   1  19
BRANCH  12  24
ATOM     24  S   UNL     1       2.078   7.237  20.300  0.00  0.00    +0.000 S 
BRANCH  24  25
ATOM     25  C   UNL     1       2.227   7.498  18.506  0.00  0.00    +0.000 C 
BRANCH  25  26
ATOM     26  C   UNL     1       3.306   6.633  17.892  0.00  0.00    +0.000 A 
ATOM     27  C   UNL     1       4.402   7.220  17.242  0.00  0.00    +0.000 A 
ATOM     28  C   UNL     1       5.403   6.425  16.678  0.00  0.00    +0.000 A 
ATOM     29  C   UNL     1       5.319   5.030  16.745  0.00  0.00    +0.000 A 
ATOM     30  C   UNL     1       4.239   4.435  17.408  0.00  0.00    +0.000 A 
ATOM     31  C   UNL     1       3.235   5.233  17.967  0.00  0.00    +0.000 A 
BRANCH  29  32
ATOM     32  C   UNL     1       6.422   4.236  16.142  0.00  0.00    +0.000 C 
ATOM     33  O   UNL     1       7.587   4.598  16.164  0.00  0.00    +0.000 OA
BRANCH  32  34
ATOM     34  O   UNL     1       6.020   3.101  15.532  0.00  0.00    +0.000 OA
ATOM     35  H   UNL     1       5.865   3.180  14.573  0.00  0.00    +0.000 HD
ENDBRANCH  32  34
ENDBRANCH  29  32
ENDBRANCH  25  26
ENDBRANCH  24  25
ENDBRANCH  12  24
TORSDOF 7
ENDMDL
