MODEL 1
REMARK VINA RESULT:      -9.8      0.000      0.000
REMARK  Name = 
REMARK  8 active torsions:
REMARK  status: ('A' for Active; 'I' for Inactive)
REMARK    1  A    between atoms: C_1  and  C_2
REMARK    2  A    between atoms: C_4  and  C_5
REMARK    3  A    between atoms: C_5  and  O_6
REMARK    4  A    between atoms: O_6  and  C_7
REMARK    5  A    between atoms: C_10  and  C_11
REMARK    6  A    between atoms: N_13  and  C_14
REMARK    7  A    between atoms: C_19  and  C_20
REMARK    8  A    between atoms: N_22  and  O_23
REMARK                            x       y       z     vdW  Elec       q    Type
REMARK                         _______ _______ _______ _____ _____    ______ ____
ROOT
ATOM      1  C   UNL     1       1.019   9.244  19.598  0.00  0.00    +0.000 A 
ATOM      2  C   UNL     1       1.376   8.229  20.471  0.00  0.00    +0.000 A 
ATOM      3  C   UNL     1       2.249   7.215  20.044  0.00  0.00    +0.000 A 
ATOM      4  C   UNL     1       2.796   7.175  18.741  0.00  0.00    +0.000 A 
ATOM      5  C   UNL     1       2.507   8.245  17.904  0.00  0.00    +0.000 A 
ATOM      6  C   UNL     1       1.633   9.273  18.339  0.00  0.00    +0.000 A 
ENDROOT
BRANCH   4   7
ATOM      7  C   UNL     1       3.559   5.934  18.405  0.00  0.00    +0.000 C 
ATOM      8  O   UNL     1       3.176   4.876  18.919  0.00  0.00    +0.000 OA
ATOM      9  N   UNL     1       4.585   5.766  17.523  0.00  0.00    +0.000 N 
ATOM     10  H   UNL     1       4.713   4.759  17.416  0.00  0.00    +0.000 HD
BRANCH   9  11
ATOM     11  C   UNL     1       5.668   6.496  16.826  0.00  0.00    +0.000 C 
ATOM     12  C   UNL     1       5.416   6.336  15.308  0.00  0.00    +0.000 C 
ATOM     13  O   UNL     1       5.198   4.942  15.026  0.00  0.00    +0.000 OA
ATOM     14  C   UNL     1       6.332   4.115  15.276  0.00  0.00    +0.000 C 
ATOM     15  C   UNL     1       6.976   4.336  16.650  0.00  0.00    +0.000 C 
ATOM     16  C   UNL     1       7.045   5.822  17.042  0.00  0.00    +0.000 C 
BRANCH  16  17
ATOM     17  C   UNL     1       7.597   6.136  18.416  0.00  0.00    +0.000 C 
ATOM     18  O   UNL     1       8.219   7.173  18.656  0.00  0.00    +0.000 OA
ATOM     19  N   UNL     1       7.525   5.137  19.354  0.00  0.00    +0.000 N 
ATOM     20  H   UNL     1       6.797   4.431  19.357  0.00  0.00    +0.000 HD
BRANCH  19  21
ATOM     21  O   UNL     1       8.035   5.493  20.628  0.00  0.00    +0.000 OA
ATOM     22  H   UNL     1       8.973   5.706  20.430  0.00  0.00    +0.000 HD
ENDBRANCH  19  21
ENDBRANCH  16  17
ENDBRANCH   9  11
ENDBRANCH   4   7
BRANCH   1  23
ATOM     23  O   UNL     1       0.078  10.222  19.832  0.00  0.00    +0.000 OA
BRANCH  23  24
ATOM     24  C   UNL     1      -0.164  11.183  18.800  0.00  0.00    +0.000 C 
BRANCH  24  28
ATOM     25  C   UNL     1      -3.173   9.780  15.037  0.00  0.00    +0.000 C 
ATOM     26  C   UNL     1      -2.977  10.409  16.383  0.00  0.00    +0.000 A 
ATOM     27  C   UNL     1      -1.732  10.413  16.999  0.00  0.00    +0.000 A 
ATOM     28  C   UNL     1      -1.571  11.063  18.231  0.00  0.00    +0.000 A 
ATOM     29  C   UNL     1      -2.717  11.645  18.845  0.00  0.00    +0.000 A 
ATOM     30  C   UNL     1      -2.721  12.270  20.116  0.00  0.00    +0.000 A 
ATOM     31  C   UNL     1      -3.870  12.861  20.637  0.00  0.00    +0.000 A 
ATOM     32  C   UNL     1      -5.048  12.839  19.901  0.00  0.00    +0.000 A 
ATOM     33  C   UNL     1      -5.066  12.205  18.660  0.00  0.00    +0.000 A 
ATOM     34  C   UNL     1      -3.935  11.602  18.124  0.00  0.00    +0.000 A 
ATOM     35  N   UNL     1      -4.056  11.007  16.928  0.00  0.00    +0.000 NA
ENDBRANCH  24  28
ENDBRANCH  23  24
ENDBRANCH   1  23
TORSDOF 7
ENDMDL
MODEL 2
REMARK VINA RESULT:      -9.8      5.400      9.699
REMARK  Name = 
REMARK  8 active torsions:
REMARK  status: ('A' for Active; 'I' for Inactive)
REMARK    1  A    between atoms: C_1  and  C_2
REMARK    2  A    between atoms: C_4  and  C_5
REMARK    3  A    between atoms: C_5  and  O_6
REMARK    4  A    between atoms: O_6  and  C_7
REMARK    5  A    between atoms: C_10  and  C_11
REMARK    6  A    between atoms: N_13  and  C_14
REMARK    7  A    between atoms: C_19  and  C_20
REMARK    8  A    between atoms: N_22  and  O_23
REMARK                            x       y       z     vdW  Elec       q    Type
REMARK                         _______ _______ _______ _____ _____    ______ ____
ROOT
ATOM      1  C   UNL     1       8.146   7.534  18.513  0.00  0.00    +0.000 A 
ATOM      2  C   UNL     1       8.076   6.230  18.974  0.00  0.00    +0.000 A 
ATOM      3  C   UNL     1       7.114   5.353  18.445  0.00  0.00    +0.000 A 
ATOM      4  C   UNL     1       6.194   5.740  17.444  0.00  0.00    +0.000 A 
ATOM      5  C   UNL     1       6.332   7.020  16.924  0.00  0.00    +0.000 A 
ATOM      6  C   UNL     1       7.309   7.902  17.451  0.00  0.00    +0.000 A 
ENDROOT
BRANCH   4   7
ATOM      7  C   UNL     1       5.131   4.737  17.130  0.00  0.00    +0.000 C 
ATOM      8  O   UNL     1       4.905   4.506  15.935  0.00  0.00    +0.000 OA
ATOM      9  N   UNL     1       4.415   3.945  17.978  0.00  0.00    +0.000 N 
ATOM     10  H   UNL     1       3.936   3.256  17.396  0.00  0.00    +0.000 HD
BRANCH   9  11
ATOM     11  C   UNL     1       3.952   3.841  19.380  0.00  0.00    +0.000 C 
ATOM     12  C   UNL     1       3.913   2.335  19.732  0.00  0.00    +0.000 C 
ATOM     13  O   UNL     1       3.200   1.642  18.692  0.00  0.00    +0.000 OA
ATOM     14  C   UNL     1       1.826   2.008  18.586  0.00  0.00    +0.000 C 
ATOM     15  C   UNL     1       1.584   3.521  18.547  0.00  0.00    +0.000 C 
ATOM     16  C   UNL     1       2.479   4.292  19.532  0.00  0.00    +0.000 C 
BRANCH  16  17
ATOM     17  C   UNL     1       2.366   5.801  19.513  0.00  0.00    +0.000 C 
ATOM     18  O   UNL     1       2.589   6.468  18.500  0.00  0.00    +0.000 OA
ATOM     19  N   UNL     1       2.166   6.420  20.721  0.00  0.00    +0.000 N 
ATOM     20  H   UNL     1       1.678   5.983  21.495  0.00  0.00    +0.000 HD
BRANCH  19  21
ATOM     21  O   UNL     1       2.044   7.831  20.643  0.00  0.00    +0.000 OA
ATOM     22  H   UNL     1       1.387   8.027  21.347  0.00  0.00    +0.000 HD
ENDBRANCH  19  21
ENDBRANCH  16  17
ENDBRANCH   9  11
ENDBRANCH   4   7
BRANCH   1  23
ATOM     23  O   UNL     1       8.941   8.535  19.027  0.00  0.00    +0.000 OA
BRANCH  23  24
ATOM     24  C   UNL     1       8.835   9.841  18.452  0.00  0.00    +0.000 C 
BRANCH  24  28
ATOM     25  C   UNL     1       8.862  12.240  22.860  0.00  0.00    +0.000 C 
ATOM     26  C   UNL     1       9.396  12.060  21.470  0.00  0.00    +0.000 A 
ATOM     27  C   UNL     1       8.967  11.011  20.667  0.00  0.00    +0.000 A 
ATOM     28  C   UNL     1       9.442  10.909  19.351  0.00  0.00    +0.000 A 
ATOM     29  C   UNL     1      10.405  11.856  18.902  0.00  0.00    +0.000 A 
ATOM     30  C   UNL     1      11.023  11.836  17.628  0.00  0.00    +0.000 A 
ATOM     31  C   UNL     1      11.925  12.823  17.237  0.00  0.00    +0.000 A 
ATOM     32  C   UNL     1      12.236  13.856  18.112  0.00  0.00    +0.000 A 
ATOM     33  C   UNL     1      11.655  13.875  19.378  0.00  0.00    +0.000 A 
ATOM     34  C   UNL     1      10.760  12.897  19.794  0.00  0.00    +0.000 A 
ATOM     35  N   UNL     1      10.264  12.997  21.036  0.00  0.00    +0.000 NA
ENDBRANCH  24  28
ENDBRANCH  23  24
ENDBRANCH   1  23
TORSDOF 7
ENDMDL
MODEL 3
REMARK VINA RESULT:      -9.7      1.119      2.461
REMARK  Name = 
REMARK  8 active torsions:
REMARK  status: ('A' for Active; 'I' for Inactive)
REMARK    1  A    between atoms: C_1  and  C_2
REMARK    2  A    between atoms: C_4  and  C_5
REMARK    3  A    between atoms: C_5  and  O_6
REMARK    4  A    between atoms: O_6  and  C_7
REMARK    5  A    between atoms: C_10  and  C_11
REMARK    6  A    between atoms: N_13  and  C_14
REMARK    7  A    between atoms: C_19  and  C_20
REMARK    8  A    between atoms: N_22  and  O_23
REMARK                            x       y       z     vdW  Elec       q    Type
REMARK                         _______ _______ _______ _____ _____    ______ ____
ROOT
ATOM      1  C   UNL     1       0.927   9.127  20.152  0.00  0.00    +0.000 A 
ATOM      2  C   UNL     1       1.323   7.965  20.792  0.00  0.00    +0.000 A 
ATOM      3  C   UNL     1       2.094   7.015  20.101  0.00  0.00    +0.000 A 
ATOM      4  C   UNL     1       2.497   7.188  18.757  0.00  0.00    +0.000 A 
ATOM      5  C   UNL     1       2.174   8.396  18.154  0.00  0.00    +0.000 A 
ATOM      6  C   UNL     1       1.404   9.358  18.855  0.00  0.00    +0.000 A 
ENDROOT
BRANCH   4   7
ATOM      7  C   UNL     1       3.158   6.003  18.130  0.00  0.00    +0.000 C 
ATOM      8  O   UNL     1       2.504   4.953  18.073  0.00  0.00    +0.000 OA
ATOM      9  N   UNL     1       4.368   5.919  17.509  0.00  0.00    +0.000 N 
ATOM     10  H   UNL     1       4.390   5.015  17.036  0.00  0.00    +0.000 HD
BRANCH   9  11
ATOM     11  C   UNL     1       5.695   6.570  17.427  0.00  0.00    +0.000 C 
ATOM     12  C   UNL     1       5.896   7.003  15.955  0.00  0.00    +0.000 C 
ATOM     13  O   UNL     1       5.598   5.880  15.106  0.00  0.00    +0.000 OA
ATOM     14  C   UNL     1       6.489   4.778  15.266  0.00  0.00    +0.000 C 
ATOM     15  C   UNL     1       6.709   4.361  16.725  0.00  0.00    +0.000 C 
ATOM     16  C   UNL     1       6.844   5.563  17.674  0.00  0.00    +0.000 C 
BRANCH  16  17
ATOM     17  C   UNL     1       6.990   5.252  19.148  0.00  0.00    +0.000 C 
ATOM     18  O   UNL     1       6.037   4.898  19.845  0.00  0.00    +0.000 OA
ATOM     19  N   UNL     1       8.201   5.544  19.723  0.00  0.00    +0.000 N 
ATOM     20  H   UNL     1       9.077   5.525  19.213  0.00  0.00    +0.000 HD
BRANCH  19  21
ATOM     21  O   UNL     1       8.291   5.211  21.099  0.00  0.00    +0.000 OA
ATOM     22  H   UNL     1       8.907   5.894  21.443  0.00  0.00    +0.000 HD
ENDBRANCH  19  21
ENDBRANCH  16  17
ENDBRANCH   9  11
ENDBRANCH   4   7
BRANCH   1  23
ATOM     23  O   UNL     1       0.065  10.077  20.655  0.00  0.00    +0.000 OA
BRANCH  23  24
ATOM     24  C   UNL     1       0.002  11.345  19.994  0.00  0.00    +0.000 C 
BRANCH  24  28
ATOM     25  C   UNL     1      -4.191  13.703  21.424  0.00  0.00    +0.000 C 
ATOM     26  C   UNL     1      -3.438  12.868  20.431  0.00  0.00    +0.000 A 
ATOM     27  C   UNL     1      -2.089  12.589  20.605  0.00  0.00    +0.000 A 
ATOM     28  C   UNL     1      -1.432  11.755  19.689  0.00  0.00    +0.000 A 
ATOM     29  C   UNL     1      -2.161  11.273  18.565  0.00  0.00    +0.000 A 
ATOM     30  C   UNL     1      -1.613  10.484  17.526  0.00  0.00    +0.000 A 
ATOM     31  C   UNL     1      -2.398  10.007  16.478  0.00  0.00    +0.000 A 
ATOM     32  C   UNL     1      -3.753  10.310  16.440  0.00  0.00    +0.000 A 
ATOM     33  C   UNL     1      -4.302  11.108  17.443  0.00  0.00    +0.000 A 
ATOM     34  C   UNL     1      -3.537  11.602  18.493  0.00  0.00    +0.000 A 
ATOM     35  N   UNL     1      -4.154  12.371  19.402  0.00  0.00    +0.000 NA
ENDBRANCH  24  28
ENDBRANCH  23  24
ENDBRANCH   1  23
TORSDOF 7
ENDMDL
MODEL 4
REMARK VINA RESULT:      -9.4      5.678      9.301
REMARK  Name = 
REMARK  8 active torsions:
REMARK  status: ('A' for Active; 'I' for Inactive)
REMARK    1  A    between atoms: C_1  and  C_2
REMARK    2  A    between atoms: C_4  and  C_5
REMARK    3  A    between atoms: C_5  and  O_6
REMARK    4  A    between atoms: O_6  and  C_7
REMARK    5  A    between atoms: C_10  and  C_11
REMARK    6  A    between atoms: N_13  and  C_14
REMARK    7  A    between atoms: C_19  and  C_20
REMARK    8  A    between atoms: N_22  and  O_23
REMARK                            x       y       z     vdW  Elec       q    Type
REMARK                         _______ _______ _______ _____ _____    ______ ____
ROOT
ATOM      1  C   UNL     1       7.804   8.231  17.818  0.00  0.00    +0.000 A 
ATOM      2  C   UNL     1       6.638   8.117  17.079  0.00  0.00    +0.000 A 
ATOM      3  C   UNL     1       5.967   6.884  17.020  0.00  0.00    +0.000 A 
ATOM      4  C   UNL     1       6.428   5.728  17.691  0.00  0.00    +0.000 A 
ATOM      5  C   UNL     1       7.545   5.876  18.503  0.00  0.00    +0.000 A 
ATOM      6  C   UNL     1       8.217   7.123  18.569  0.00  0.00    +0.000 A 
ENDROOT
BRANCH   4   7
ATOM      7  C   UNL     1       5.692   4.467  17.373  0.00  0.00    +0.000 C 
ATOM      8  O   UNL     1       5.759   4.048  16.210  0.00  0.00    +0.000 OA
ATOM      9  N   UNL     1       5.014   3.631  18.210  0.00  0.00    +0.000 N 
ATOM     10  H   UNL     1       4.820   2.782  17.677  0.00  0.00    +0.000 HD
BRANCH   9  11
ATOM     11  C   UNL     1       4.320   3.584  19.517  0.00  0.00    +0.000 C 
ATOM     12  C   UNL     1       4.282   2.101  19.955  0.00  0.00    +0.000 C 
ATOM     13  O   UNL     1       3.788   1.314  18.856  0.00  0.00    +0.000 OA
ATOM     14  C   UNL     1       2.440   1.602  18.495  0.00  0.00    +0.000 C 
ATOM     15  C   UNL     1       2.147   3.096  18.316  0.00  0.00    +0.000 C 
ATOM     16  C   UNL     1       2.826   3.967  19.386  0.00  0.00    +0.000 C 
BRANCH  16  17
ATOM     17  C   UNL     1       2.657   5.465  19.250  0.00  0.00    +0.000 C 
ATOM     18  O   UNL     1       2.826   6.054  18.180  0.00  0.00    +0.000 OA
ATOM     19  N   UNL     1       2.470   6.173  20.410  0.00  0.00    +0.000 N 
ATOM     20  H   UNL     1       2.021   5.784  21.232  0.00  0.00    +0.000 HD
BRANCH  19  21
ATOM     21  O   UNL     1       2.294   7.568  20.223  0.00  0.00    +0.000 OA
ATOM     22  H   UNL     1       1.325   7.677  20.340  0.00  0.00    +0.000 HD
ENDBRANCH  19  21
ENDBRANCH  16  17
ENDBRANCH   9  11
ENDBRANCH   4   7
BRANCH   1  23
ATOM     23  O   UNL     1       8.633   9.330  17.859  0.00  0.00    +0.000 OA
BRANCH  23  24
ATOM     24  C   UNL     1       9.075   9.792  19.140  0.00  0.00    +0.000 C 
BRANCH  24  28
ATOM     25  C   UNL     1      11.641  13.311  16.646  0.00  0.00    +0.000 C 
ATOM     26  C   UNL     1      10.883  12.865  17.861  0.00  0.00    +0.000 A 
ATOM     27  C   UNL     1      10.259  11.624  17.902  0.00  0.00    +0.000 A 
ATOM     28  C   UNL     1       9.611  11.215  19.076  0.00  0.00    +0.000 A 
ATOM     29  C   UNL     1       9.557  12.122  20.173  0.00  0.00    +0.000 A 
ATOM     30  C   UNL     1       8.880  11.875  21.392  0.00  0.00    +0.000 A 
ATOM     31  C   UNL     1       8.908  12.789  22.443  0.00  0.00    +0.000 A 
ATOM     32  C   UNL     1       9.612  13.978  22.301  0.00  0.00    +0.000 A 
ATOM     33  C   UNL     1      10.263  14.246  21.098  0.00  0.00    +0.000 A 
ATOM     34  C   UNL     1      10.242  13.354  20.034  0.00  0.00    +0.000 A 
ATOM     35  N   UNL     1      10.888  13.708  18.913  0.00  0.00    +0.000 NA
ENDBRANCH  24  28
ENDBRANCH  23  24
ENDBRANCH   1  23
TORSDOF 7
ENDMDL
MODEL 5
REMARK VINA RESULT:      -9.3      1.460      2.151
REMARK  Name = 
REMARK  8 active torsions:
REMARK  status: ('A' for Active; 'I' for Inactive)
REMARK    1  A    between atoms: C_1  and  C_2
REMARK    2  A    between atoms: C_4  and  C_5
REMARK    3  A    between atoms: C_5  and  O_6
REMARK    4  A    between atoms: O_6  and  C_7
REMARK    5  A    between atoms: C_10  and  C_11
REMARK    6  A    between atoms: N_13  and  C_14
REMARK    7  A    between atoms: C_19  and  C_20
REMARK    8  A    between atoms: N_22  and  O_23
REMARK                            x       y       z     vdW  Elec       q    Type
REMARK                         _______ _______ _______ _____ _____    ______ ____
ROOT
ATOM      1  C   UNL     1       1.395   8.600  20.211  0.00  0.00    +0.000 A 
ATOM      2  C   UNL     1       1.776   8.752  18.888  0.00  0.00    +0.000 A 
ATOM      3  C   UNL     1       2.343   7.668  18.196  0.00  0.00    +0.000 A 
ATOM      4  C   UNL     1       2.548   6.403  18.792  0.00  0.00    +0.000 A 
ATOM      5  C   UNL     1       2.078   6.234  20.088  0.00  0.00    +0.000 A 
ATOM      6  C   UNL     1       1.498   7.325  20.783  0.00  0.00    +0.000 A 
ENDROOT
BRANCH   4   7
ATOM      7  C   UNL     1       3.322   5.425  17.968  0.00  0.00    +0.000 C 
ATOM      8  O   UNL     1       2.796   4.327  17.747  0.00  0.00    +0.000 OA
ATOM      9  N   UNL     1       4.513   5.592  17.326  0.00  0.00    +0.000 N 
ATOM     10  H   UNL     1       4.626   4.786  16.710  0.00  0.00    +0.000 HD
BRANCH   9  11
ATOM     11  C   UNL     1       5.750   6.405  17.336  0.00  0.00    +0.000 C 
ATOM     12  C   UNL     1       5.981   6.892  15.886  0.00  0.00    +0.000 C 
ATOM     13  O   UNL     1       5.878   5.761  15.003  0.00  0.00    +0.000 OA
ATOM     14  C   UNL     1       6.888   4.775  15.201  0.00  0.00    +0.000 C 
ATOM     15  C   UNL     1       7.073   4.355  16.664  0.00  0.00    +0.000 C 
ATOM     16  C   UNL     1       7.000   5.544  17.637  0.00  0.00    +0.000 C 
BRANCH  16  17
ATOM     17  C   UNL     1       7.097   5.219  19.112  0.00  0.00    +0.000 C 
ATOM     18  O   UNL     1       6.143   4.776  19.755  0.00  0.00    +0.000 OA
ATOM     19  N   UNL     1       8.249   5.599  19.754  0.00  0.00    +0.000 N 
ATOM     20  H   UNL     1       9.148   5.662  19.289  0.00  0.00    +0.000 HD
BRANCH  19  21
ATOM     21  O   UNL     1       8.296   5.251  21.128  0.00  0.00    +0.000 OA
ATOM     22  H   UNL     1       7.614   4.548  21.192  0.00  0.00    +0.000 HD
ENDBRANCH  19  21
ENDBRANCH  16  17
ENDBRANCH   9  11
ENDBRANCH   4   7
BRANCH   1  23
ATOM     23  O   UNL     1       0.953   9.602  21.047  0.00  0.00    +0.000 OA
BRANCH  23  24
ATOM     24  C   UNL     1       0.851  10.926  20.515  0.00  0.00    +0.000 C 
BRANCH  24  28
ATOM     25  C   UNL     1      -2.937  11.344  17.250  0.00  0.00    +0.000 C 
ATOM     26  C   UNL     1      -2.377  11.536  18.627  0.00  0.00    +0.000 A 
ATOM     27  C   UNL     1      -1.112  11.067  18.958  0.00  0.00    +0.000 A 
ATOM     28  C   UNL     1      -0.595  11.317  20.237  0.00  0.00    +0.000 A 
ATOM     29  C   UNL     1      -1.419  11.991  21.183  0.00  0.00    +0.000 A 
ATOM     30  C   UNL     1      -1.059  12.249  22.528  0.00  0.00    +0.000 A 
ATOM     31  C   UNL     1      -1.897  12.957  23.386  0.00  0.00    +0.000 A 
ATOM     32  C   UNL     1      -3.121  13.423  22.923  0.00  0.00    +0.000 A 
ATOM     33  C   UNL     1      -3.500  13.155  21.608  0.00  0.00    +0.000 A 
ATOM     34  C   UNL     1      -2.684  12.444  20.737  0.00  0.00    +0.000 A 
ATOM     35  N   UNL     1      -3.143  12.226  19.495  0.00  0.00    +0.000 NA
ENDBRANCH  24  28
ENDBRANCH  23  24
ENDBRANCH   1  23
TORSDOF 7
ENDMDL
MODEL 6
REMARK VINA RESULT:      -9.2      3.492     10.460
REMARK  Name = 
REMARK  8 active torsions:
REMARK  status: ('A' for Active; 'I' for Inactive)
REMARK    1  A    between atoms: C_1  and  C_2
REMARK    2  A    between atoms: C_4  and  C_5
REMARK    3  A    between atoms: C_5  and  O_6
REMARK    4  A    between atoms: O_6  and  C_7
REMARK    5  A    between atoms: C_10  and  C_11
REMARK    6  A    between atoms: N_13  and  C_14
REMARK    7  A    between atoms: C_19  and  C_20
REMARK    8  A    between atoms: N_22  and  O_23
REMARK                            x       y       z     vdW  Elec       q    Type
REMARK                         _______ _______ _______ _____ _____    ______ ____
ROOT
ATOM      1  C   UNL     1       1.731   8.555  19.505  0.00  0.00    +0.000 A 
ATOM      2  C   UNL     1       1.519   7.982  20.748  0.00  0.00    +0.000 A 
ATOM      3  C   UNL     1       0.757   8.666  21.711  0.00  0.00    +0.000 A 
ATOM      4  C   UNL     1       0.181   9.934  21.472  0.00  0.00    +0.000 A 
ATOM      5  C   UNL     1       0.320  10.457  20.193  0.00  0.00    +0.000 A 
ATOM      6  C   UNL     1       1.082   9.763  19.219  0.00  0.00    +0.000 A 
ENDROOT
BRANCH   4   7
ATOM      7  C   UNL     1      -0.443  10.589  22.662  0.00  0.00    +0.000 C 
ATOM      8  O   UNL     1      -0.234  10.073  23.768  0.00  0.00    +0.000 OA
ATOM      9  N   UNL     1      -1.151  11.751  22.734  0.00  0.00    +0.000 N 
ATOM     10  H   UNL     1      -1.240  11.976  23.725  0.00  0.00    +0.000 HD
BRANCH   9  11
ATOM     11  C   UNL     1      -1.970  12.681  21.924  0.00  0.00    +0.000 C 
ATOM     12  C   UNL     1      -1.000  13.711  21.299  0.00  0.00    +0.000 C 
ATOM     13  O   UNL     1      -0.153  14.229  22.340  0.00  0.00    +0.000 OA
ATOM     14  C   UNL     1      -0.848  14.971  23.339  0.00  0.00    +0.000 C 
ATOM     15  C   UNL     1      -2.086  14.260  23.897  0.00  0.00    +0.000 C 
ATOM     16  C   UNL     1      -2.902  13.544  22.808  0.00  0.00    +0.000 C 
BRANCH  16  17
ATOM     17  C   UNL     1      -4.104  12.749  23.273  0.00  0.00    +0.000 C 
ATOM     18  O   UNL     1      -4.062  11.999  24.250  0.00  0.00    +0.000 OA
ATOM     19  N   UNL     1      -5.207  12.765  22.457  0.00  0.00    +0.000 N 
ATOM     20  H   UNL     1      -5.442  13.547  21.856  0.00  0.00    +0.000 HD
BRANCH  19  21
ATOM     21  O   UNL     1      -6.311  12.024  22.951  0.00  0.00    +0.000 OA
ATOM     22  H   UNL     1      -6.137  12.004  23.918  0.00  0.00    +0.000 HD
ENDBRANCH  19  21
ENDBRANCH  16  17
ENDBRANCH   9  11
ENDBRANCH   4   7
BRANCH   1  23
ATOM     23  O   UNL     1       2.559   8.068  18.518  0.00  0.00    +0.000 OA
BRANCH  23  24
ATOM     24  C   UNL     1       2.293   6.760  18.002  0.00  0.00    +0.000 C 
BRANCH  24  28
ATOM     25  C   UNL     1       6.865   4.692  17.936  0.00  0.00    +0.000 C 
ATOM     26  C   UNL     1       5.462   4.735  18.461  0.00  0.00    +0.000 A 
ATOM     27  C   UNL     1       4.588   5.748  18.089  0.00  0.00    +0.000 A 
ATOM     28  C   UNL     1       3.264   5.724  18.552  0.00  0.00    +0.000 A 
ATOM     29  C   UNL     1       2.878   4.687  19.449  0.00  0.00    +0.000 A 
ATOM     30  C   UNL     1       1.601   4.575  20.051  0.00  0.00    +0.000 A 
ATOM     31  C   UNL     1       1.276   3.507  20.884  0.00  0.00    +0.000 A 
ATOM     32  C   UNL     1       2.222   2.523  21.141  0.00  0.00    +0.000 A 
ATOM     33  C   UNL     1       3.492   2.633  20.576  0.00  0.00    +0.000 A 
ATOM     34  C   UNL     1       3.841   3.693  19.749  0.00  0.00    +0.000 A 
ATOM     35  N   UNL     1       5.091   3.716  19.264  0.00  0.00    +0.000 NA
ENDBRANCH  24  28
ENDBRANCH  23  24
ENDBRANCH   1  23
TORSDOF 7
ENDMDL
MODEL 7
REMARK VINA RESULT:      -9.1      1.193      1.902
REMARK  Name = 
REMARK  8 active torsions:
REMARK  status: ('A' for Active; 'I' for Inactive)
REMARK    1  A    between atoms: C_1  and  C_2
REMARK    2  A    between atoms: C_4  and  C_5
REMARK    3  A    between atoms: C_5  and  O_6
REMARK    4  A    between atoms: O_6  and  C_7
REMARK    5  A    between atoms: C_10  and  C_11
REMARK    6  A    between atoms: N_13  and  C_14
REMARK    7  A    between atoms: C_19  and  C_20
REMARK    8  A    between atoms: N_22  and  O_23
REMARK                            x       y       z     vdW  Elec       q    Type
REMARK                         _______ _______ _______ _____ _____    ______ ____
ROOT
ATOM      1  C   UNL     1       1.334   9.693  18.974  0.00  0.00    +0.000 A 
ATOM      2  C   UNL     1       1.877   9.244  17.781  0.00  0.00    +0.000 A 
ATOM      3  C   UNL     1       2.525   7.998  17.735  0.00  0.00    +0.000 A 
ATOM      4  C   UNL     1       2.653   7.159  18.865  0.00  0.00    +0.000 A 
ATOM      5  C   UNL     1       2.025   7.576  20.032  0.00  0.00    +0.000 A 
ATOM      6  C   UNL     1       1.364   8.829  20.076  0.00  0.00    +0.000 A 
ENDROOT
BRANCH   4   7
ATOM      7  C   UNL     1       3.523   5.959  18.676  0.00  0.00    +0.000 C 
ATOM      8  O   UNL     1       3.205   4.926  19.280  0.00  0.00    +0.000 OA
ATOM      9  N   UNL     1       4.591   5.791  17.846  0.00  0.00    +0.000 N 
ATOM     10  H   UNL     1       4.802   4.792  17.842  0.00  0.00    +0.000 HD
BRANCH   9  11
ATOM     11  C   UNL     1       5.639   6.536  17.112  0.00  0.00    +0.000 C 
ATOM     12  C   UNL     1       5.308   6.416  15.606  0.00  0.00    +0.000 C 
ATOM     13  O   UNL     1       5.072   5.030  15.300  0.00  0.00    +0.000 OA
ATOM     14  C   UNL     1       6.215   4.195  15.470  0.00  0.00    +0.000 C 
ATOM     15  C   UNL     1       6.929   4.380  16.814  0.00  0.00    +0.000 C 
ATOM     16  C   UNL     1       7.023   5.855  17.240  0.00  0.00    +0.000 C 
BRANCH  16  17
ATOM     17  C   UNL     1       7.646   6.134  18.590  0.00  0.00    +0.000 C 
ATOM     18  O   UNL     1       8.289   7.160  18.822  0.00  0.00    +0.000 OA
ATOM     19  N   UNL     1       7.613   5.114  19.507  0.00  0.00    +0.000 N 
ATOM     20  H   UNL     1       6.880   4.413  19.532  0.00  0.00    +0.000 HD
BRANCH  19  21
ATOM     21  O   UNL     1       8.190   5.436  20.762  0.00  0.00    +0.000 OA
ATOM     22  H   UNL     1       9.146   5.278  20.603  0.00  0.00    +0.000 HD
ENDBRANCH  19  21
ENDBRANCH  16  17
ENDBRANCH   9  11
ENDBRANCH   4   7
BRANCH   1  23
ATOM     23  O   UNL     1       0.792  10.939  19.200  0.00  0.00    +0.000 OA
BRANCH  23  24
ATOM     24  C   UNL     1       0.107  11.161  20.437  0.00  0.00    +0.000 C 
BRANCH  24  28
ATOM     25  C   UNL     1      -3.824  11.481  17.334  0.00  0.00    +0.000 C 
ATOM     26  C   UNL     1      -3.209  11.692  18.685  0.00  0.00    +0.000 A 
ATOM     27  C   UNL     1      -1.922  11.251  18.964  0.00  0.00    +0.000 A 
ATOM     28  C   UNL     1      -1.356  11.520  20.219  0.00  0.00    +0.000 A 
ATOM     29  C   UNL     1      -2.153  12.184  21.195  0.00  0.00    +0.000 A 
ATOM     30  C   UNL     1      -1.741  12.458  22.522  0.00  0.00    +0.000 A 
ATOM     31  C   UNL     1      -2.557  13.154  23.411  0.00  0.00    +0.000 A 
ATOM     32  C   UNL     1      -3.809  13.592  22.998  0.00  0.00    +0.000 A 
ATOM     33  C   UNL     1      -4.237  13.307  21.703  0.00  0.00    +0.000 A 
ATOM     34  C   UNL     1      -3.445  12.608  20.801  0.00  0.00    +0.000 A 
ATOM     35  N   UNL     1      -3.952  12.372  19.582  0.00  0.00    +0.000 NA
ENDBRANCH  24  28
ENDBRANCH  23  24
ENDBRANCH   1  23
TORSDOF 7
ENDMDL
MODEL 8
REMARK VINA RESULT:      -9.1      0.572      1.013
REMARK  Name = 
REMARK  8 active torsions:
REMARK  status: ('A' for Active; 'I' for Inactive)
REMARK    1  A    between atoms: C_1  and  C_2
REMARK    2  A    between atoms: C_4  and  C_5
REMARK    3  A    between atoms: C_5  and  O_6
REMARK    4  A    between atoms: O_6  and  C_7
REMARK    5  A    between atoms: C_10  and  C_11
REMARK    6  A    between atoms: N_13  and  C_14
REMARK    7  A    between atoms: C_19  and  C_20
REMARK    8  A    between atoms: N_22  and  O_23
REMARK                            x       y       z     vdW  Elec       q    Type
REMARK                         _______ _______ _______ _____ _____    ______ ____
ROOT
ATOM      1  C   UNL     1       1.182   9.752  18.732  0.00  0.00    +0.000 A 
ATOM      2  C   UNL     1       1.852   9.260  17.624  0.00  0.00    +0.000 A 
ATOM      3  C   UNL     1       2.556   8.048  17.716  0.00  0.00    +0.000 A 
ATOM      4  C   UNL     1       2.618   7.286  18.905  0.00  0.00    +0.000 A 
ATOM      5  C   UNL     1       1.868   7.740  19.982  0.00  0.00    +0.000 A 
ATOM      6  C   UNL     1       1.150   8.959  19.887  0.00  0.00    +0.000 A 
ENDROOT
BRANCH   4   7
ATOM      7  C   UNL     1       3.555   6.122  18.871  0.00  0.00    +0.000 C 
ATOM      8  O   UNL     1       3.288   5.158  19.601  0.00  0.00    +0.000 OA
ATOM      9  N   UNL     1       4.638   5.910  18.071  0.00  0.00    +0.000 N 
ATOM     10  H   UNL     1       4.903   4.932  18.195  0.00  0.00    +0.000 HD
BRANCH   9  11
ATOM     11  C   UNL     1       5.649   6.614  17.251  0.00  0.00    +0.000 C 
ATOM     12  C   UNL     1       5.183   6.520  15.779  0.00  0.00    +0.000 C 
ATOM     13  O   UNL     1       4.860   5.148  15.491  0.00  0.00    +0.000 OA
ATOM     14  C   UNL     1       5.975   4.262  15.557  0.00  0.00    +0.000 C 
ATOM     15  C   UNL     1       6.812   4.406  16.834  0.00  0.00    +0.000 C 
ATOM     16  C   UNL     1       7.008   5.872  17.255  0.00  0.00    +0.000 C 
BRANCH  16  17
ATOM     17  C   UNL     1       7.758   6.112  18.547  0.00  0.00    +0.000 C 
ATOM     18  O   UNL     1       8.279   7.197  18.816  0.00  0.00    +0.000 OA
ATOM     19  N   UNL     1       7.986   5.017  19.341  0.00  0.00    +0.000 N 
ATOM     20  H   UNL     1       7.367   4.215  19.372  0.00  0.00    +0.000 HD
BRANCH  19  21
ATOM     21  O   UNL     1       8.672   5.303  20.549  0.00  0.00    +0.000 OA
ATOM     22  H   UNL     1       7.938   5.523  21.163  0.00  0.00    +0.000 HD
ENDBRANCH  19  21
ENDBRANCH  16  17
ENDBRANCH   9  11
ENDBRANCH   4   7
BRANCH   1  23
ATOM     23  O   UNL     1       0.567  10.981  18.829  0.00  0.00    +0.000 OA
BRANCH  23  24
ATOM     24  C   UNL     1      -0.629  11.075  19.608  0.00  0.00    +0.000 C 
BRANCH  24  28
ATOM     25  C   UNL     1      -2.824   9.784  15.284  0.00  0.00    +0.000 C 
ATOM     26  C   UNL     1      -2.883  10.440  16.631  0.00  0.00    +0.000 A 
ATOM     27  C   UNL     1      -1.811  10.369  17.511  0.00  0.00    +0.000 A 
ATOM     28  C   UNL     1      -1.878  11.044  18.738  0.00  0.00    +0.000 A 
ATOM     29  C   UNL     1      -3.081  11.731  19.070  0.00  0.00    +0.000 A 
ATOM     30  C   UNL     1      -3.318  12.396  20.298  0.00  0.00    +0.000 A 
ATOM     31  C   UNL     1      -4.503  13.088  20.538  0.00  0.00    +0.000 A 
ATOM     32  C   UNL     1      -5.484  13.132  19.556  0.00  0.00    +0.000 A 
ATOM     33  C   UNL     1      -5.276  12.461  18.352  0.00  0.00    +0.000 A 
ATOM     34  C   UNL     1      -4.106  11.757  18.094  0.00  0.00    +0.000 A 
ATOM     35  N   UNL     1      -4.005  11.134  16.910  0.00  0.00    +0.000 NA
ENDBRANCH  24  28
ENDBRANCH  23  24
ENDBRANCH   1  23
TORSDOF 7
ENDMDL
MODEL 9
REMARK VINA RESULT:      -9.1      1.082      2.357
REMARK  Name = 
REMARK  8 active torsions:
REMARK  status: ('A' for Active; 'I' for Inactive)
REMARK    1  A    between atoms: C_1  and  C_2
REMARK    2  A    between atoms: C_4  and  C_5
REMARK    3  A    between atoms: C_5  and  O_6
REMARK    4  A    between atoms: O_6  and  C_7
REMARK    5  A    between atoms: C_10  and  C_11
REMARK    6  A    between atoms: N_13  and  C_14
REMARK    7  A    between atoms: C_19  and  C_20
REMARK    8  A    between atoms: N_22  and  O_23
REMARK                            x       y       z     vdW  Elec       q    Type
REMARK                         _______ _______ _______ _____ _____    ______ ____
ROOT
ATOM      1  C   UNL     1       1.065   8.989  19.838  0.00  0.00    +0.000 A 
ATOM      2  C   UNL     1       1.501   7.948  20.640  0.00  0.00    +0.000 A 
ATOM      3  C   UNL     1       2.368   6.976  20.111  0.00  0.00    +0.000 A 
ATOM      4  C   UNL     1       2.830   7.008  18.776  0.00  0.00    +0.000 A 
ATOM      5  C   UNL     1       2.461   8.105  18.008  0.00  0.00    +0.000 A 
ATOM      6  C   UNL     1       1.594   9.090  18.544  0.00  0.00    +0.000 A 
ENDROOT
BRANCH   4   7
ATOM      7  C   UNL     1       3.598   5.803  18.335  0.00  0.00    +0.000 C 
ATOM      8  O   UNL     1       3.236   4.706  18.778  0.00  0.00    +0.000 OA
ATOM      9  N   UNL     1       4.607   5.711  17.423  0.00  0.00    +0.000 N 
ATOM     10  H   UNL     1       4.743   4.716  17.240  0.00  0.00    +0.000 HD
BRANCH   9  11
ATOM     11  C   UNL     1       5.668   6.501  16.759  0.00  0.00    +0.000 C 
ATOM     12  C   UNL     1       5.438   6.375  15.235  0.00  0.00    +0.000 C 
ATOM     13  O   UNL     1       5.279   4.982  14.912  0.00  0.00    +0.000 OA
ATOM     14  C   UNL     1       6.441   4.193  15.152  0.00  0.00    +0.000 C 
ATOM     15  C   UNL     1       7.061   4.401  16.539  0.00  0.00    +0.000 C 
ATOM     16  C   UNL     1       7.068   5.876  16.973  0.00  0.00    +0.000 C 
BRANCH  16  17
ATOM     17  C   UNL     1       7.592   6.173  18.361  0.00  0.00    +0.000 C 
ATOM     18  O   UNL     1       8.193   7.215  18.631  0.00  0.00    +0.000 OA
ATOM     19  N   UNL     1       7.522   5.155  19.279  0.00  0.00    +0.000 N 
ATOM     20  H   UNL     1       6.806   4.437  19.257  0.00  0.00    +0.000 HD
BRANCH  19  21
ATOM     21  O   UNL     1       8.005   5.494  20.568  0.00  0.00    +0.000 OA
ATOM     22  H   UNL     1       7.601   4.801  21.135  0.00  0.00    +0.000 HD
ENDBRANCH  19  21
ENDBRANCH  16  17
ENDBRANCH   9  11
ENDBRANCH   4   7
BRANCH   1  23
ATOM     23  O   UNL     1       0.118   9.931  20.176  0.00  0.00    +0.000 OA
BRANCH  23  24
ATOM     24  C   UNL     1       0.104  11.163  19.448  0.00  0.00    +0.000 C 
BRANCH  24  28
ATOM     25  C   UNL     1      -2.544  14.619  21.944  0.00  0.00    +0.000 C 
ATOM     26  C   UNL     1      -2.452  13.561  20.885  0.00  0.00    +0.000 A 
ATOM     27  C   UNL     1      -1.242  12.947  20.589  0.00  0.00    +0.000 A 
ATOM     28  C   UNL     1      -1.204  11.919  19.635  0.00  0.00    +0.000 A 
ATOM     29  C   UNL     1      -2.407  11.583  18.951  0.00  0.00    +0.000 A 
ATOM     30  C   UNL     1      -2.505  10.620  17.918  0.00  0.00    +0.000 A 
ATOM     31  C   UNL     1      -3.726  10.308  17.323  0.00  0.00    +0.000 A 
ATOM     32  C   UNL     1      -4.881  10.955  17.742  0.00  0.00    +0.000 A 
ATOM     33  C   UNL     1      -4.795  11.925  18.740  0.00  0.00    +0.000 A 
ATOM     34  C   UNL     1      -3.588  12.258  19.343  0.00  0.00    +0.000 A 
ATOM     35  N   UNL     1      -3.608  13.213  20.285  0.00  0.00    +0.000 NA
ENDBRANCH  24  28
ENDBRANCH  23  24
ENDBRANCH   1  23
TORSDOF 7
ENDMDL
