MODEL 1
REMARK VINA RESULT:      -7.5      0.000      0.000
REMARK  Name = 
REMARK  6 active torsions:
REMARK  status: ('A' for Active; 'I' for Inactive)
REMARK    1  A    between atoms: C_1  and  C_2
REMARK    2  A    between atoms: C_4  and  C_5
REMARK    3  A    between atoms: C_5  and  N_6
REMARK    4  A    between atoms: N_6  and  S_7
REMARK    5  A    between atoms: S_7  and  C_10
REMARK    6  A    between atoms: C_16  and  C_17
REMARK                            x       y       z     vdW  Elec       q    Type
REMARK                         _______ _______ _______ _____ _____    ______ ____
ROOT
ATOM      1  S   UNL     1       3.963   3.552  18.565  0.00  0.00    +0.000 S 
ATOM      2  O   UNL     1       2.939   2.562  18.336  0.00  0.00    +0.000 OA
ATOM      3  O   UNL     1       5.091   3.302  19.438  0.00  0.00    +0.000 OA
ENDROOT
BRANCH   1   4
ATOM      4  C   UNL     1       3.149   5.030  19.138  0.00  0.00    +0.000 A 
ATOM      5  C   UNL     1       3.233   6.221  18.404  0.00  0.00    +0.000 A 
ATOM      6  C   UNL     1       2.575   7.369  18.858  0.00  0.00    +0.000 A 
ATOM      7  C   UNL     1       1.844   7.325  20.041  0.00  0.00    +0.000 A 
ATOM      8 BR   UNL     1       0.949   8.875  20.651  0.00  0.00    +0.000 Br
ATOM      9  C   UNL     1       1.764   6.147  20.783  0.00  0.00    +0.000 A 
ATOM     10  C   UNL     1       2.416   4.982  20.344  0.00  0.00    +0.000 A 
ATOM     11  C   UNL     1       2.303   3.731  21.172  0.00  0.00    +0.000 C 
ENDBRANCH   1   4
BRANCH   1  12
ATOM     12  N   UNL     1       4.586   3.903  17.041  0.00  0.00    +0.000 NA
ATOM     13  H   UNL     1       4.458   3.082  16.443  0.00  0.00    +0.000 HD
BRANCH  12  14
ATOM     14  C   UNL     1       5.955   4.436  17.044  0.00  0.00    +0.000 C 
BRANCH  14  18
ATOM     15  C   UNL     1       7.105   4.229  12.083  0.00  0.00    +0.000 C 
ATOM     16  C   UNL     1       6.994   4.517  13.528  0.00  0.00    +0.000 A 
ATOM     17  C   UNL     1       6.125   3.926  14.467  0.00  0.00    +0.000 A 
ATOM     18  C   UNL     1       6.439   4.541  15.652  0.00  0.00    +0.000 A 
ATOM     19  O   UNL     1       7.423   5.455  15.435  0.00  0.00    +0.000 OA
ATOM     20  N   UNL     1       7.777   5.440  14.099  0.00  0.00    +0.000 NA
ENDBRANCH  14  18
ENDBRANCH  12  14
ENDBRANCH   1  12
TORSDOF 4
ENDMDL
MODEL 2
REMARK VINA RESULT:      -7.4      1.737      2.254
REMARK  Name = 
REMARK  6 active torsions:
REMARK  status: ('A' for Active; 'I' for Inactive)
REMARK    1  A    between atoms: C_1  and  C_2
REMARK    2  A    between atoms: C_4  and  C_5
REMARK    3  A    between atoms: C_5  and  N_6
REMARK    4  A    between atoms: N_6  and  S_7
REMARK    5  A    between atoms: S_7  and  C_10
REMARK    6  A    between atoms: C_16  and  C_17
REMARK                            x       y       z     vdW  Elec       q    Type
REMARK                         _______ _______ _______ _____ _____    ______ ____
ROOT
ATOM      1  S   UNL     1       2.946   3.452  18.113  0.00  0.00    +0.000 S 
ATOM      2  O   UNL     1       1.740   2.852  17.596  0.00  0.00    +0.000 OA
ATOM      3  O   UNL     1       3.880   2.712  18.934  0.00  0.00    +0.000 OA
ENDROOT
BRANCH   1   4
ATOM      4  C   UNL     1       2.464   4.911  19.015  0.00  0.00    +0.000 A 
ATOM      5  C   UNL     1       2.793   6.187  18.537  0.00  0.00    +0.000 A 
ATOM      6  C   UNL     1       2.394   7.323  19.248  0.00  0.00    +0.000 A 
ATOM      7  C   UNL     1       1.678   7.182  20.433  0.00  0.00    +0.000 A 
ATOM      8 BR   UNL     1       1.134   8.719  21.391  0.00  0.00    +0.000 Br
ATOM      9  C   UNL     1       1.357   5.916  20.922  0.00  0.00    +0.000 A 
ATOM     10  C   UNL     1       1.746   4.762  20.222  0.00  0.00    +0.000 A 
ATOM     11  C   UNL     1       1.378   3.414  20.781  0.00  0.00    +0.000 C 
ENDBRANCH   1   4
BRANCH   1  12
ATOM     12  N   UNL     1       3.792   3.980  16.756  0.00  0.00    +0.000 NA
ATOM     13  H   UNL     1       3.254   3.727  15.922  0.00  0.00    +0.000 HD
BRANCH  12  14
ATOM     14  C   UNL     1       5.201   3.568  16.711  0.00  0.00    +0.000 C 
BRANCH  14  18
ATOM     15  C   UNL     1       7.861   7.761  17.861  0.00  0.00    +0.000 C 
ATOM     16  C   UNL     1       7.246   6.565  17.250  0.00  0.00    +0.000 A 
ATOM     17  C   UNL     1       6.304   5.684  17.822  0.00  0.00    +0.000 A 
ATOM     18  C   UNL     1       6.061   4.763  16.836  0.00  0.00    +0.000 A 
ATOM     19  O   UNL     1       6.821   5.061  15.746  0.00  0.00    +0.000 OA
ATOM     20  N   UNL     1       7.565   6.197  16.004  0.00  0.00    +0.000 NA
ENDBRANCH  14  18
ENDBRANCH  12  14
ENDBRANCH   1  12
TORSDOF 4
ENDMDL
MODEL 3
REMARK VINA RESULT:      -7.1      2.016      2.602
REMARK  Name = 
REMARK  6 active torsions:
REMARK  status: ('A' for Active; 'I' for Inactive)
REMARK    1  A    between atoms: C_1  and  C_2
REMARK    2  A    between atoms: C_4  and  C_5
REMARK    3  A    between atoms: C_5  and  N_6
REMARK    4  A    between atoms: N_6  and  S_7
REMARK    5  A    between atoms: S_7  and  C_10
REMARK    6  A    between atoms: C_16  and  C_17
REMARK                            x       y       z     vdW  Elec       q    Type
REMARK                         _______ _______ _______ _____ _____    ______ ____
ROOT
ATOM      1  S   UNL     1       3.782   3.488  18.283  0.00  0.00    +0.000 S 
ATOM      2  O   UNL     1       2.720   2.642  17.794  0.00  0.00    +0.000 OA
ATOM      3  O   UNL     1       4.817   2.988  19.164  0.00  0.00    +0.000 OA
ENDROOT
BRANCH   1   4
ATOM      4  C   UNL     1       3.017   4.887  19.079  0.00  0.00    +0.000 A 
ATOM      5  C   UNL     1       3.155   6.175  18.545  0.00  0.00    +0.000 A 
ATOM      6  C   UNL     1       2.536   7.261  19.172  0.00  0.00    +0.000 A 
ATOM      7  C   UNL     1       1.790   7.059  20.330  0.00  0.00    +0.000 A 
ATOM      8 BR   UNL     1       0.947   8.526  21.174  0.00  0.00    +0.000 Br
ATOM      9  C   UNL     1       1.657   5.781  20.874  0.00  0.00    +0.000 A 
ATOM     10  C   UNL     1       2.269   4.676  20.259  0.00  0.00    +0.000 A 
ATOM     11  C   UNL     1       2.100   3.315  20.876  0.00  0.00    +0.000 C 
ENDBRANCH   1   4
BRANCH   1  12
ATOM     12  N   UNL     1       4.548   4.076  16.904  0.00  0.00    +0.000 NA
ATOM     13  H   UNL     1       4.057   3.713  16.083  0.00  0.00    +0.000 HD
BRANCH  12  14
ATOM     14  C   UNL     1       6.002   3.871  16.874  0.00  0.00    +0.000 C 
BRANCH  14  18
ATOM     15  C   UNL     1       8.047   8.431  17.875  0.00  0.00    +0.000 C 
ATOM     16  C   UNL     1       7.589   7.027  17.862  0.00  0.00    +0.000 A 
ATOM     17  C   UNL     1       6.793   6.382  16.893  0.00  0.00    +0.000 A 
ATOM     18  C   UNL     1       6.675   5.096  17.354  0.00  0.00    +0.000 A 
ATOM     19  O   UNL     1       7.344   4.979  18.534  0.00  0.00    +0.000 OA
ATOM     20  N   UNL     1       7.923   6.193  18.855  0.00  0.00    +0.000 NA
ENDBRANCH  14  18
ENDBRANCH  12  14
ENDBRANCH   1  12
TORSDOF 4
ENDMDL
MODEL 4
REMARK VINA RESULT:      -7.0      2.824      3.588
REMARK  Name = 
REMARK  6 active torsions:
REMARK  status: ('A' for Active; 'I' for Inactive)
REMARK    1  A    between atoms: C_1  and  C_2
REMARK    2  A    between atoms: C_4  and  C_5
REMARK    3  A    between atoms: C_5  and  N_6
REMARK    4  A    between atoms: N_6  and  S_7
REMARK    5  A    between atoms: S_7  and  C_10
REMARK    6  A    between atoms: C_16  and  C_17
REMARK                            x       y       z     vdW  Elec       q    Type
REMARK                         _______ _______ _______ _____ _____    ______ ____
ROOT
ATOM      1  S   UNL     1       5.731   5.922  16.922  0.00  0.00    +0.000 S 
ATOM      2  O   UNL     1       6.399   6.402  18.108  0.00  0.00    +0.000 OA
ATOM      3  O   UNL     1       5.268   6.820  15.886  0.00  0.00    +0.000 OA
ENDROOT
BRANCH   1   4
ATOM      4  C   UNL     1       4.340   4.946  17.459  0.00  0.00    +0.000 A 
ATOM      5  C   UNL     1       4.379   3.547  17.383  0.00  0.00    +0.000 A 
ATOM      6  C   UNL     1       3.286   2.794  17.823  0.00  0.00    +0.000 A 
ATOM      7  C   UNL     1       2.159   3.437  18.328  0.00  0.00    +0.000 A 
ATOM      8 BR   UNL     1       0.684   2.419  18.928  0.00  0.00    +0.000 Br
ATOM      9  C   UNL     1       2.109   4.830  18.396  0.00  0.00    +0.000 A 
ATOM     10  C   UNL     1       3.197   5.605  17.961  0.00  0.00    +0.000 A 
ATOM     11  C   UNL     1       3.103   7.104  18.054  0.00  0.00    +0.000 C 
ENDBRANCH   1   4
BRANCH   1  12
ATOM     12  N   UNL     1       6.820   4.858  16.204  0.00  0.00    +0.000 NA
ATOM     13  H   UNL     1       7.480   4.540  16.919  0.00  0.00    +0.000 HD
BRANCH  12  14
ATOM     14  C   UNL     1       7.457   5.363  14.981  0.00  0.00    +0.000 C 
BRANCH  14  18
ATOM     15  C   UNL     1       5.192   2.437  11.475  0.00  0.00    +0.000 C 
ATOM     16  C   UNL     1       6.041   3.365  12.250  0.00  0.00    +0.000 A 
ATOM     17  C   UNL     1       5.922   3.722  13.609  0.00  0.00    +0.000 A 
ATOM     18  C   UNL     1       6.958   4.596  13.821  0.00  0.00    +0.000 A 
ATOM     19  O   UNL     1       7.645   4.767  12.659  0.00  0.00    +0.000 OA
ATOM     20  N   UNL     1       7.071   3.991  11.669  0.00  0.00    +0.000 NA
ENDBRANCH  14  18
ENDBRANCH  12  14
ENDBRANCH   1  12
TORSDOF 4
ENDMDL
MODEL 5
REMARK VINA RESULT:      -6.9      2.861      3.922
REMARK  Name = 
REMARK  6 active torsions:
REMARK  status: ('A' for Active; 'I' for Inactive)
REMARK    1  A    between atoms: C_1  and  C_2
REMARK    2  A    between atoms: C_4  and  C_5
REMARK    3  A    between atoms: C_5  and  N_6
REMARK    4  A    between atoms: N_6  and  S_7
REMARK    5  A    between atoms: S_7  and  C_10
REMARK    6  A    between atoms: C_16  and  C_17
REMARK                            x       y       z     vdW  Elec       q    Type
REMARK                         _______ _______ _______ _____ _____    ______ ____
ROOT
ATOM      1  S   UNL     1       6.586   4.741  16.339  0.00  0.00    +0.000 S 
ATOM      2  O   UNL     1       7.737   4.340  17.111  0.00  0.00    +0.000 OA
ATOM      3  O   UNL     1       6.483   6.055  15.741  0.00  0.00    +0.000 OA
ENDROOT
BRANCH   1   4
ATOM      4  C   UNL     1       5.151   4.497  17.367  0.00  0.00    +0.000 A 
ATOM      5  C   UNL     1       3.993   3.903  16.846  0.00  0.00    +0.000 A 
ATOM      6  C   UNL     1       2.880   3.703  17.669  0.00  0.00    +0.000 A 
ATOM      7  C   UNL     1       2.924   4.102  19.002  0.00  0.00    +0.000 A 
ATOM      8 BR   UNL     1       1.421   3.827  20.116  0.00  0.00    +0.000 Br
ATOM      9  C   UNL     1       4.069   4.704  19.525  0.00  0.00    +0.000 A 
ATOM     10  C   UNL     1       5.198   4.912  18.716  0.00  0.00    +0.000 A 
ATOM     11  C   UNL     1       6.414   5.562  19.319  0.00  0.00    +0.000 C 
ENDBRANCH   1   4
BRANCH   1  12
ATOM     12  N   UNL     1       6.481   3.618  15.088  0.00  0.00    +0.000 NA
ATOM     13  H   UNL     1       6.980   2.771  15.373  0.00  0.00    +0.000 HD
BRANCH  12  14
ATOM     14  C   UNL     1       6.872   4.131  13.768  0.00  0.00    +0.000 C 
BRANCH  14  18
ATOM     15  C   UNL     1       3.182   3.020  10.432  0.00  0.00    +0.000 C 
ATOM     16  C   UNL     1       4.384   3.073  11.290  0.00  0.00    +0.000 A 
ATOM     17  C   UNL     1       4.736   4.063  12.231  0.00  0.00    +0.000 A 
ATOM     18  C   UNL     1       5.927   3.625  12.751  0.00  0.00    +0.000 A 
ATOM     19  O   UNL     1       6.276   2.455  12.150  0.00  0.00    +0.000 OA
ATOM     20  N   UNL     1       5.304   2.104  11.231  0.00  0.00    +0.000 NA
ENDBRANCH  14  18
ENDBRANCH  12  14
ENDBRANCH   1  12
TORSDOF 4
ENDMDL
MODEL 6
REMARK VINA RESULT:      -6.9      1.177      1.364
REMARK  Name = 
REMARK  6 active torsions:
REMARK  status: ('A' for Active; 'I' for Inactive)
REMARK    1  A    between atoms: C_1  and  C_2
REMARK    2  A    between atoms: C_4  and  C_5
REMARK    3  A    between atoms: C_5  and  N_6
REMARK    4  A    between atoms: N_6  and  S_7
REMARK    5  A    between atoms: S_7  and  C_10
REMARK    6  A    between atoms: C_16  and  C_17
REMARK                            x       y       z     vdW  Elec       q    Type
REMARK                         _______ _______ _______ _____ _____    ______ ____
ROOT
ATOM      1  S   UNL     1       5.045   4.114  18.925  0.00  0.00    +0.000 S 
ATOM      2  O   UNL     1       4.139   2.991  18.930  0.00  0.00    +0.000 OA
ATOM      3  O   UNL     1       5.959   4.367  20.019  0.00  0.00    +0.000 OA
ENDROOT
BRANCH   1   4
ATOM      4  C   UNL     1       4.064   5.582  18.684  0.00  0.00    +0.000 A 
ATOM      5  C   UNL     1       4.376   6.489  17.662  0.00  0.00    +0.000 A 
ATOM      6  C   UNL     1       3.588   7.629  17.475  0.00  0.00    +0.000 A 
ATOM      7  C   UNL     1       2.499   7.862  18.311  0.00  0.00    +0.000 A 
ATOM      8 BR   UNL     1       1.429   9.400  18.054  0.00  0.00    +0.000 Br
ATOM      9  C   UNL     1       2.189   6.971  19.338  0.00  0.00    +0.000 A 
ATOM     10  C   UNL     1       2.967   5.818  19.541  0.00  0.00    +0.000 A 
ATOM     11  C   UNL     1       2.597   4.881  20.658  0.00  0.00    +0.000 C 
ENDBRANCH   1   4
BRANCH   1  12
ATOM     12  N   UNL     1       5.977   3.922  17.536  0.00  0.00    +0.000 NA
ATOM     13  H   UNL     1       6.613   4.720  17.462  0.00  0.00    +0.000 HD
BRANCH  12  14
ATOM     14  C   UNL     1       5.208   3.651  16.314  0.00  0.00    +0.000 C 
BRANCH  14  18
ATOM     15  C   UNL     1       7.433   4.747  11.861  0.00  0.00    +0.000 C 
ATOM     16  C   UNL     1       6.989   4.648  13.266  0.00  0.00    +0.000 A 
ATOM     17  C   UNL     1       5.972   3.831  13.801  0.00  0.00    +0.000 A 
ATOM     18  C   UNL     1       5.980   4.116  15.142  0.00  0.00    +0.000 A 
ATOM     19  O   UNL     1       6.930   5.057  15.395  0.00  0.00    +0.000 OA
ATOM     20  N   UNL     1       7.569   5.392  14.216  0.00  0.00    +0.000 NA
ENDBRANCH  14  18
ENDBRANCH  12  14
ENDBRANCH   1  12
TORSDOF 4
ENDMDL
MODEL 7
REMARK VINA RESULT:      -6.9      1.732      2.127
REMARK  Name = 
REMARK  6 active torsions:
REMARK  status: ('A' for Active; 'I' for Inactive)
REMARK    1  A    between atoms: C_1  and  C_2
REMARK    2  A    between atoms: C_4  and  C_5
REMARK    3  A    between atoms: C_5  and  N_6
REMARK    4  A    between atoms: N_6  and  S_7
REMARK    5  A    between atoms: S_7  and  C_10
REMARK    6  A    between atoms: C_16  and  C_17
REMARK                            x       y       z     vdW  Elec       q    Type
REMARK                         _______ _______ _______ _____ _____    ______ ____
ROOT
ATOM      1  S   UNL     1       3.260   5.776  18.634  0.00  0.00    +0.000 S 
ATOM      2  O   UNL     1       2.210   4.794  18.513  0.00  0.00    +0.000 OA
ATOM      3  O   UNL     1       4.277   5.690  19.661  0.00  0.00    +0.000 OA
ENDROOT
BRANCH   1   4
ATOM      4  C   UNL     1       2.477   7.371  18.776  0.00  0.00    +0.000 A 
ATOM      5  C   UNL     1       2.584   8.312  17.743  0.00  0.00    +0.000 A 
ATOM      6  C   UNL     1       1.950   9.553  17.861  0.00  0.00    +0.000 A 
ATOM      7  C   UNL     1       1.222   9.852  19.009  0.00  0.00    +0.000 A 
ATOM      8 BR   UNL     1       0.360  11.527  19.167  0.00  0.00    +0.000 Br
ATOM      9  C   UNL     1       1.120   8.924  20.046  0.00  0.00    +0.000 A 
ATOM     10  C   UNL     1       1.747   7.671  19.946  0.00  0.00    +0.000 A 
ATOM     11  C   UNL     1       1.611   6.698  21.086  0.00  0.00    +0.000 C 
ENDBRANCH   1   4
BRANCH   1  12
ATOM     12  N   UNL     1       4.054   5.758  17.149  0.00  0.00    +0.000 NA
ATOM     13  H   UNL     1       3.587   5.080  16.542  0.00  0.00    +0.000 HD
BRANCH  12  14
ATOM     14  C   UNL     1       5.511   5.585  17.234  0.00  0.00    +0.000 C 
BRANCH  14  18
ATOM     15  C   UNL     1       6.639   3.764  12.609  0.00  0.00    +0.000 C 
ATOM     16  C   UNL     1       6.591   4.443  13.920  0.00  0.00    +0.000 A 
ATOM     17  C   UNL     1       5.571   4.385  14.891  0.00  0.00    +0.000 A 
ATOM     18  C   UNL     1       6.029   5.180  15.911  0.00  0.00    +0.000 A 
ATOM     19  O   UNL     1       7.240   5.696  15.567  0.00  0.00    +0.000 OA
ATOM     20  N   UNL     1       7.598   5.231  14.315  0.00  0.00    +0.000 NA
ENDBRANCH  14  18
ENDBRANCH  12  14
ENDBRANCH   1  12
TORSDOF 4
ENDMDL
MODEL 8
REMARK VINA RESULT:      -6.8      2.484      2.969
REMARK  Name = 
REMARK  6 active torsions:
REMARK  status: ('A' for Active; 'I' for Inactive)
REMARK    1  A    between atoms: C_1  and  C_2
REMARK    2  A    between atoms: C_4  and  C_5
REMARK    3  A    between atoms: C_5  and  N_6
REMARK    4  A    between atoms: N_6  and  S_7
REMARK    5  A    between atoms: S_7  and  C_10
REMARK    6  A    between atoms: C_16  and  C_17
REMARK                            x       y       z     vdW  Elec       q    Type
REMARK                         _______ _______ _______ _____ _____    ______ ____
ROOT
ATOM      1  S   UNL     1       2.714   2.908  18.123  0.00  0.00    +0.000 S 
ATOM      2  O   UNL     1       2.332   3.063  16.740  0.00  0.00    +0.000 OA
ATOM      3  O   UNL     1       2.204   1.830  18.944  0.00  0.00    +0.000 OA
ENDROOT
BRANCH   1   4
ATOM      4  C   UNL     1       2.342   4.443  18.948  0.00  0.00    +0.000 A 
ATOM      5  C   UNL     1       2.506   5.667  18.285  0.00  0.00    +0.000 A 
ATOM      6  C   UNL     1       2.195   6.863  18.940  0.00  0.00    +0.000 A 
ATOM      7  C   UNL     1       1.729   6.834  20.251  0.00  0.00    +0.000 A 
ATOM      8 BR   UNL     1       1.302   8.450  21.134  0.00  0.00    +0.000 Br
ATOM      9  C   UNL     1       1.573   5.620  20.921  0.00  0.00    +0.000 A 
ATOM     10  C   UNL     1       1.878   4.408  20.281  0.00  0.00    +0.000 A 
ATOM     11  C   UNL     1       1.694   3.120  21.038  0.00  0.00    +0.000 C 
ENDBRANCH   1   4
BRANCH   1  12
ATOM     12  N   UNL     1       4.391   2.764  18.104  0.00  0.00    +0.000 NA
ATOM     13  H   UNL     1       4.739   2.922  19.053  0.00  0.00    +0.000 HD
BRANCH  12  14
ATOM     14  C   UNL     1       5.065   3.569  17.076  0.00  0.00    +0.000 C 
BRANCH  14  18
ATOM     15  C   UNL     1       8.255   7.233  18.616  0.00  0.00    +0.000 C 
ATOM     16  C   UNL     1       7.320   6.098  18.480  0.00  0.00    +0.000 A 
ATOM     17  C   UNL     1       6.712   5.609  17.305  0.00  0.00    +0.000 A 
ATOM     18  C   UNL     1       5.957   4.547  17.731  0.00  0.00    +0.000 A 
ATOM     19  O   UNL     1       6.088   4.416  19.080  0.00  0.00    +0.000 OA
ATOM     20  N   UNL     1       6.949   5.389  19.553  0.00  0.00    +0.000 NA
ENDBRANCH  14  18
ENDBRANCH  12  14
ENDBRANCH   1  12
TORSDOF 4
ENDMDL
MODEL 9
REMARK VINA RESULT:      -6.8      2.881      3.988
REMARK  Name = 
REMARK  6 active torsions:
REMARK  status: ('A' for Active; 'I' for Inactive)
REMARK    1  A    between atoms: C_1  and  C_2
REMARK    2  A    between atoms: C_4  and  C_5
REMARK    3  A    between atoms: C_5  and  N_6
REMARK    4  A    between atoms: N_6  and  S_7
REMARK    5  A    between atoms: S_7  and  C_10
REMARK    6  A    between atoms: C_16  and  C_17
REMARK                            x       y       z     vdW  Elec       q    Type
REMARK                         _______ _______ _______ _____ _____    ______ ____
ROOT
ATOM      1  S   UNL     1       5.819   5.167  16.094  0.00  0.00    +0.000 S 
ATOM      2  O   UNL     1       6.914   5.459  16.988  0.00  0.00    +0.000 OA
ATOM      3  O   UNL     1       5.316   6.143  15.151  0.00  0.00    +0.000 OA
ENDROOT
BRANCH   1   4
ATOM      4  C   UNL     1       4.451   4.623  17.097  0.00  0.00    +0.000 A 
ATOM      5  C   UNL     1       4.186   3.256  17.264  0.00  0.00    +0.000 A 
ATOM      6  C   UNL     1       3.119   2.844  18.067  0.00  0.00    +0.000 A 
ATOM      7  C   UNL     1       2.317   3.794  18.693  0.00  0.00    +0.000 A 
ATOM      8 BR   UNL     1       0.877   3.237  19.785  0.00  0.00    +0.000 Br
ATOM      9  C   UNL     1       2.566   5.156  18.524  0.00  0.00    +0.000 A 
ATOM     10  C   UNL     1       3.635   5.591  17.723  0.00  0.00    +0.000 A 
ATOM     11  C   UNL     1       3.872   7.069  17.568  0.00  0.00    +0.000 C 
ENDBRANCH   1   4
BRANCH   1  12
ATOM     12  N   UNL     1       6.325   3.831  15.201  0.00  0.00    +0.000 NA
ATOM     13  H   UNL     1       6.946   3.268  15.788  0.00  0.00    +0.000 HD
BRANCH  12  14
ATOM     14  C   UNL     1       6.873   4.150  13.876  0.00  0.00    +0.000 C 
BRANCH  14  18
ATOM     15  C   UNL     1       3.268   3.030  10.453  0.00  0.00    +0.000 C 
ATOM     16  C   UNL     1       4.449   3.088  11.337  0.00  0.00    +0.000 A 
ATOM     17  C   UNL     1       4.773   4.074  12.292  0.00  0.00    +0.000 A 
ATOM     18  C   UNL     1       5.955   3.643  12.836  0.00  0.00    +0.000 A 
ATOM     19  O   UNL     1       6.328   2.480  12.234  0.00  0.00    +0.000 OA
ATOM     20  N   UNL     1       5.380   2.127  11.292  0.00  0.00    +0.000 NA
ENDBRANCH  14  18
ENDBRANCH  12  14
ENDBRANCH   1  12
TORSDOF 4
ENDMDL
