MODEL 1
REMARK VINA RESULT:      -7.3      0.000      0.000
REMARK  Name = 
REMARK  6 active torsions:
REMARK  status: ('A' for Active; 'I' for Inactive)
REMARK    1  A    between atoms: C_1  and  N_2
REMARK    2  A    between atoms: N_2  and  C_3
REMARK    3  A    between atoms: N_2  and  C_4
REMARK    4  A    between atoms: C_7  and  N_8
REMARK    5  A    between atoms: C_12  and  C_13
REMARK    6  A    between atoms: N_14  and  N_15
REMARK                            x       y       z     vdW  Elec       q    Type
REMARK                         _______ _______ _______ _____ _____    ______ ____
ROOT
ATOM      1  N   UNL     1       2.349   4.068  19.051  0.00  0.00    +0.000 N 
ATOM      2  C   UNL     1       1.539   3.074  19.566  0.00  0.00    +0.000 A 
ATOM      3  C   UNL     1       1.885   1.870  18.996  0.00  0.00    +0.000 A 
ATOM      4  C   UNL     1       2.978   2.118  18.146  0.00  0.00    +0.000 A 
ATOM      5  C   UNL     1       3.300   3.465  18.232  0.00  0.00    +0.000 A 
ENDROOT
BRANCH   1   9
ATOM      6  C   UNL     1       1.644   8.216  19.804  0.00  0.00    +0.000 A 
ATOM      7  C   UNL     1       1.429   7.232  20.782  0.00  0.00    +0.000 A 
ATOM      8  C   UNL     1       1.664   5.873  20.541  0.00  0.00    +0.000 A 
ATOM      9  C   UNL     1       2.164   5.455  19.308  0.00  0.00    +0.000 A 
ATOM     10  C   UNL     1       2.419   6.410  18.324  0.00  0.00    +0.000 A 
ATOM     11  C   UNL     1       2.163   7.764  18.579  0.00  0.00    +0.000 A 
BRANCH   6  13
ATOM     12  C   UNL     1       0.869  10.002  21.329  0.00  0.00    +0.000 C 
ATOM     13  N   UNL     1       1.370   9.564  20.031  0.00  0.00    +0.000 N 
ATOM     14  C   UNL     1       1.112  10.437  18.890  0.00  0.00    +0.000 C 
ENDBRANCH   6  13
ENDBRANCH   1   9
BRANCH   5  15
ATOM     15  C   UNL     1       4.460   4.104  17.656  0.00  0.00    +0.000 C 
ATOM     16  N   UNL     1       4.634   4.089  16.377  0.00  0.00    +0.000 NA
BRANCH  16  17
ATOM     17  N   UNL     1       5.762   4.682  15.892  0.00  0.00    +0.000 N 
ATOM     18  C   UNL     1       6.635   5.594  16.429  0.00  0.00    +0.000 A 
ATOM     19  N   UNL     1       7.600   5.865  15.578  0.00  0.00    +0.000 NA
ATOM     20  N   UNL     1       7.377   5.116  14.449  0.00  0.00    +0.000 NA
ATOM     21  C   UNL     1       6.285   4.416  14.652  0.00  0.00    +0.000 A 
ENDBRANCH  16  17
ENDBRANCH   5  15
TORSDOF 4
ENDMDL
MODEL 2
REMARK VINA RESULT:      -7.2      1.431      1.738
REMARK  Name = 
REMARK  6 active torsions:
REMARK  status: ('A' for Active; 'I' for Inactive)
REMARK    1  A    between atoms: C_1  and  N_2
REMARK    2  A    between atoms: N_2  and  C_3
REMARK    3  A    between atoms: N_2  and  C_4
REMARK    4  A    between atoms: C_7  and  N_8
REMARK    5  A    between atoms: C_12  and  C_13
REMARK    6  A    between atoms: N_14  and  N_15
REMARK                            x       y       z     vdW  Elec       q    Type
REMARK                         _______ _______ _______ _____ _____    ______ ____
ROOT
ATOM      1  N   UNL     1       2.454   5.433  20.113  0.00  0.00    +0.000 N 
ATOM      2  C   UNL     1       1.705   4.602  20.924  0.00  0.00    +0.000 A 
ATOM      3  C   UNL     1       2.221   3.328  20.866  0.00  0.00    +0.000 A 
ATOM      4  C   UNL     1       3.358   3.384  20.040  0.00  0.00    +0.000 A 
ATOM      5  C   UNL     1       3.533   4.698  19.629  0.00  0.00    +0.000 A 
ENDROOT
BRANCH   1   9
ATOM      6  C   UNL     1       1.267   9.442  19.229  0.00  0.00    +0.000 A 
ATOM      7  C   UNL     1       1.155   8.897  20.519  0.00  0.00    +0.000 A 
ATOM      8  C   UNL     1       1.549   7.586  20.813  0.00  0.00    +0.000 A 
ATOM      9  C   UNL     1       2.108   6.782  19.821  0.00  0.00    +0.000 A 
ATOM     10  C   UNL     1       2.261   7.302  18.536  0.00  0.00    +0.000 A 
ATOM     11  C   UNL     1       1.848   8.611  18.256  0.00  0.00    +0.000 A 
BRANCH   6  13
ATOM     12  C   UNL     1      -0.539  10.967  18.500  0.00  0.00    +0.000 C 
ATOM     13  N   UNL     1       0.836  10.734  18.927  0.00  0.00    +0.000 N 
ATOM     14  C   UNL     1       1.826  11.744  18.564  0.00  0.00    +0.000 C 
ENDBRANCH   6  13
ENDBRANCH   1   9
BRANCH   5  15
ATOM     15  C   UNL     1       4.671   5.224  18.912  0.00  0.00    +0.000 C 
ATOM     16  N   UNL     1       4.803   4.985  17.650  0.00  0.00    +0.000 NA
BRANCH  16  17
ATOM     17  N   UNL     1       5.912   5.481  17.032  0.00  0.00    +0.000 N 
ATOM     18  C   UNL     1       6.689   6.587  17.266  0.00  0.00    +0.000 A 
ATOM     19  N   UNL     1       7.679   6.648  16.402  0.00  0.00    +0.000 NA
ATOM     20  N   UNL     1       7.572   5.557  15.575  0.00  0.00    +0.000 NA
ATOM     21  C   UNL     1       6.521   4.872  15.963  0.00  0.00    +0.000 A 
ENDBRANCH  16  17
ENDBRANCH   5  15
TORSDOF 4
ENDMDL
MODEL 3
REMARK VINA RESULT:      -7.2      0.394      1.360
REMARK  Name = 
REMARK  6 active torsions:
REMARK  status: ('A' for Active; 'I' for Inactive)
REMARK    1  A    between atoms: C_1  and  N_2
REMARK    2  A    between atoms: N_2  and  C_3
REMARK    3  A    between atoms: N_2  and  C_4
REMARK    4  A    between atoms: C_7  and  N_8
REMARK    5  A    between atoms: C_12  and  C_13
REMARK    6  A    between atoms: N_14  and  N_15
REMARK                            x       y       z     vdW  Elec       q    Type
REMARK                         _______ _______ _______ _____ _____    ______ ____
ROOT
ATOM      1  N   UNL     1       2.569   3.967  19.116  0.00  0.00    +0.000 N 
ATOM      2  C   UNL     1       1.843   2.963  19.729  0.00  0.00    +0.000 A 
ATOM      3  C   UNL     1       2.307   1.742  19.296  0.00  0.00    +0.000 A 
ATOM      4  C   UNL     1       3.389   1.997  18.433  0.00  0.00    +0.000 A 
ATOM      5  C   UNL     1       3.585   3.369  18.375  0.00  0.00    +0.000 A 
ENDROOT
BRANCH   1   9
ATOM      6  C   UNL     1       1.772   8.154  19.432  0.00  0.00    +0.000 A 
ATOM      7  C   UNL     1       2.144   7.555  18.218  0.00  0.00    +0.000 A 
ATOM      8  C   UNL     1       2.400   6.182  18.110  0.00  0.00    +0.000 A 
ATOM      9  C   UNL     1       2.254   5.351  19.220  0.00  0.00    +0.000 A 
ATOM     10  C   UNL     1       1.855   5.910  20.434  0.00  0.00    +0.000 A 
ATOM     11  C   UNL     1       1.618   7.287  20.527  0.00  0.00    +0.000 A 
BRANCH   6  13
ATOM     12  C   UNL     1       0.812  10.058  20.684  0.00  0.00    +0.000 C 
ATOM     13  N   UNL     1       1.558   9.527  19.549  0.00  0.00    +0.000 N 
ATOM     14  C   UNL     1       1.631  10.360  18.352  0.00  0.00    +0.000 C 
ENDBRANCH   6  13
ENDBRANCH   1   9
BRANCH   5  15
ATOM     15  C   UNL     1       4.692   4.048  17.743  0.00  0.00    +0.000 C 
ATOM     16  N   UNL     1       4.869   3.941  16.468  0.00  0.00    +0.000 NA
BRANCH  16  17
ATOM     17  N   UNL     1       5.948   4.578  15.931  0.00  0.00    +0.000 N 
ATOM     18  C   UNL     1       6.612   4.434  14.739  0.00  0.00    +0.000 A 
ATOM     19  N   UNL     1       7.602   5.295  14.655  0.00  0.00    +0.000 NA
ATOM     20  N   UNL     1       7.601   6.038  15.810  0.00  0.00    +0.000 NA
ATOM     21  C   UNL     1       6.612   5.603  16.555  0.00  0.00    +0.000 A 
ENDBRANCH  16  17
ENDBRANCH   5  15
TORSDOF 4
ENDMDL
MODEL 4
REMARK VINA RESULT:      -7.2      1.297      1.985
REMARK  Name = 
REMARK  6 active torsions:
REMARK  status: ('A' for Active; 'I' for Inactive)
REMARK    1  A    between atoms: C_1  and  N_2
REMARK    2  A    between atoms: N_2  and  C_3
REMARK    3  A    between atoms: N_2  and  C_4
REMARK    4  A    between atoms: C_7  and  N_8
REMARK    5  A    between atoms: C_12  and  C_13
REMARK    6  A    between atoms: N_14  and  N_15
REMARK                            x       y       z     vdW  Elec       q    Type
REMARK                         _______ _______ _______ _____ _____    ______ ____
ROOT
ATOM      1  N   UNL     1       2.669   4.965  20.130  0.00  0.00    +0.000 N 
ATOM      2  C   UNL     1       2.010   4.148  21.029  0.00  0.00    +0.000 A 
ATOM      3  C   UNL     1       2.554   2.885  20.974  0.00  0.00    +0.000 A 
ATOM      4  C   UNL     1       3.620   2.938  20.057  0.00  0.00    +0.000 A 
ATOM      5  C   UNL     1       3.726   4.239  19.586  0.00  0.00    +0.000 A 
ENDROOT
BRANCH   1   9
ATOM      6  C   UNL     1       1.594   8.996  19.204  0.00  0.00    +0.000 A 
ATOM      7  C   UNL     1       2.142   8.130  18.244  0.00  0.00    +0.000 A 
ATOM      8  C   UNL     1       2.489   6.807  18.542  0.00  0.00    +0.000 A 
ATOM      9  C   UNL     1       2.263   6.293  19.818  0.00  0.00    +0.000 A 
ATOM     10  C   UNL     1       1.692   7.117  20.788  0.00  0.00    +0.000 A 
ATOM     11  C   UNL     1       1.364   8.443  20.475  0.00  0.00    +0.000 A 
BRANCH   6  13
ATOM     12  C   UNL     1       2.117  11.087  17.990  0.00  0.00    +0.000 C 
ATOM     13  N   UNL     1       1.287  10.326  18.918  0.00  0.00    +0.000 N 
ATOM     14  C   UNL     1       0.480  11.087  19.867  0.00  0.00    +0.000 C 
ENDBRANCH   6  13
ENDBRANCH   1   9
BRANCH   5  15
ATOM     15  C   UNL     1       4.787   4.765  18.761  0.00  0.00    +0.000 C 
ATOM     16  N   UNL     1       4.902   4.377  17.535  0.00  0.00    +0.000 NA
BRANCH  16  17
ATOM     17  N   UNL     1       5.941   4.883  16.813  0.00  0.00    +0.000 N 
ATOM     18  C   UNL     1       6.630   4.415  15.723  0.00  0.00    +0.000 A 
ATOM     19  N   UNL     1       7.559   5.271  15.361  0.00  0.00    +0.000 NA
ATOM     20  N   UNL     1       7.491   6.342  16.218  0.00  0.00    +0.000 NA
ATOM     21  C   UNL     1       6.524   6.098  17.072  0.00  0.00    +0.000 A 
ENDBRANCH  16  17
ENDBRANCH   5  15
TORSDOF 4
ENDMDL
MODEL 5
REMARK VINA RESULT:      -7.2      1.475      1.916
REMARK  Name = 
REMARK  6 active torsions:
REMARK  status: ('A' for Active; 'I' for Inactive)
REMARK    1  A    between atoms: C_1  and  N_2
REMARK    2  A    between atoms: N_2  and  C_3
REMARK    3  A    between atoms: N_2  and  C_4
REMARK    4  A    between atoms: C_7  and  N_8
REMARK    5  A    between atoms: C_12  and  C_13
REMARK    6  A    between atoms: N_14  and  N_15
REMARK                            x       y       z     vdW  Elec       q    Type
REMARK                         _______ _______ _______ _____ _____    ______ ____
ROOT
ATOM      1  N   UNL     1       2.585   5.069  20.096  0.00  0.00    +0.000 N 
ATOM      2  C   UNL     1       2.022   4.416  21.176  0.00  0.00    +0.000 A 
ATOM      3  C   UNL     1       2.412   3.097  21.159  0.00  0.00    +0.000 A 
ATOM      4  C   UNL     1       3.289   2.943  20.070  0.00  0.00    +0.000 A 
ATOM      5  C   UNL     1       3.441   4.177  19.455  0.00  0.00    +0.000 A 
ENDROOT
BRANCH   1   9
ATOM      6  C   UNL     1       1.490   9.044  18.969  0.00  0.00    +0.000 A 
ATOM      7  C   UNL     1       1.333   8.570  20.282  0.00  0.00    +0.000 A 
ATOM      8  C   UNL     1       1.697   7.270  20.656  0.00  0.00    +0.000 A 
ATOM      9  C   UNL     1       2.269   6.406  19.724  0.00  0.00    +0.000 A 
ATOM     10  C   UNL     1       2.468   6.855  18.418  0.00  0.00    +0.000 A 
ATOM     11  C   UNL     1       2.085   8.154  18.058  0.00  0.00    +0.000 A 
BRANCH   6  13
ATOM     12  C   UNL     1       2.088  11.338  18.266  0.00  0.00    +0.000 C 
ATOM     13  N   UNL     1       1.090  10.324  18.587  0.00  0.00    +0.000 N 
ATOM     14  C   UNL     1      -0.238  10.795  18.969  0.00  0.00    +0.000 C 
ENDBRANCH   6  13
ENDBRANCH   1   9
BRANCH   5  15
ATOM     15  C   UNL     1       4.381   4.499  18.407  0.00  0.00    +0.000 C 
ATOM     16  N   UNL     1       5.478   5.117  18.694  0.00  0.00    +0.000 NA
BRANCH  16  17
ATOM     17  N   UNL     1       6.313   5.422  17.661  0.00  0.00    +0.000 N 
ATOM     18  C   UNL     1       6.744   4.706  16.573  0.00  0.00    +0.000 A 
ATOM     19  N   UNL     1       7.546   5.434  15.829  0.00  0.00    +0.000 NA
ATOM     20  N   UNL     1       7.652   6.668  16.423  0.00  0.00    +0.000 NA
ATOM     21  C   UNL     1       6.912   6.646  17.506  0.00  0.00    +0.000 A 
ENDBRANCH  16  17
ENDBRANCH   5  15
TORSDOF 4
ENDMDL
MODEL 6
REMARK VINA RESULT:      -7.1      0.675      1.020
REMARK  Name = 
REMARK  6 active torsions:
REMARK  status: ('A' for Active; 'I' for Inactive)
REMARK    1  A    between atoms: C_1  and  N_2
REMARK    2  A    between atoms: N_2  and  C_3
REMARK    3  A    between atoms: N_2  and  C_4
REMARK    4  A    between atoms: C_7  and  N_8
REMARK    5  A    between atoms: C_12  and  C_13
REMARK    6  A    between atoms: N_14  and  N_15
REMARK                            x       y       z     vdW  Elec       q    Type
REMARK                         _______ _______ _______ _____ _____    ______ ____
ROOT
ATOM      1  N   UNL     1       2.485   4.428  19.611  0.00  0.00    +0.000 N 
ATOM      2  C   UNL     1       1.714   3.487  20.266  0.00  0.00    +0.000 A 
ATOM      3  C   UNL     1       2.135   2.228  19.906  0.00  0.00    +0.000 A 
ATOM      4  C   UNL     1       3.237   2.395  19.047  0.00  0.00    +0.000 A 
ATOM      5  C   UNL     1       3.487   3.753  18.918  0.00  0.00    +0.000 A 
ENDROOT
BRANCH   1   9
ATOM      6  C   UNL     1       1.550   8.598  19.671  0.00  0.00    +0.000 A 
ATOM      7  C   UNL     1       1.397   7.782  20.803  0.00  0.00    +0.000 A 
ATOM      8  C   UNL     1       1.709   6.417  20.789  0.00  0.00    +0.000 A 
ATOM      9  C   UNL     1       2.223   5.827  19.635  0.00  0.00    +0.000 A 
ATOM     10  C   UNL     1       2.416   6.615  18.501  0.00  0.00    +0.000 A 
ATOM     11  C   UNL     1       2.085   7.976  18.530  0.00  0.00    +0.000 A 
BRANCH   6  13
ATOM     12  C   UNL     1       0.867  10.616  20.926  0.00  0.00    +0.000 C 
ATOM     13  N   UNL     1       1.201   9.948  19.673  0.00  0.00    +0.000 N 
ATOM     14  C   UNL     1       0.699  10.553  18.443  0.00  0.00    +0.000 C 
ENDBRANCH   6  13
ENDBRANCH   1   9
BRANCH   5  15
ATOM     15  C   UNL     1       4.627   4.353  18.266  0.00  0.00    +0.000 C 
ATOM     16  N   UNL     1       4.745   4.284  16.982  0.00  0.00    +0.000 NA
BRANCH  16  17
ATOM     17  N   UNL     1       5.857   4.841  16.425  0.00  0.00    +0.000 N 
ATOM     18  C   UNL     1       6.670   4.455  15.389  0.00  0.00    +0.000 A 
ATOM     19  N   UNL     1       7.629   5.334  15.202  0.00  0.00    +0.000 NA
ATOM     20  N   UNL     1       7.455   6.337  16.124  0.00  0.00    +0.000 NA
ATOM     21  C   UNL     1       6.397   6.032  16.839  0.00  0.00    +0.000 A 
ENDBRANCH  16  17
ENDBRANCH   5  15
TORSDOF 4
ENDMDL
MODEL 7
REMARK VINA RESULT:      -7.1      1.331      1.793
REMARK  Name = 
REMARK  6 active torsions:
REMARK  status: ('A' for Active; 'I' for Inactive)
REMARK    1  A    between atoms: C_1  and  N_2
REMARK    2  A    between atoms: N_2  and  C_3
REMARK    3  A    between atoms: N_2  and  C_4
REMARK    4  A    between atoms: C_7  and  N_8
REMARK    5  A    between atoms: C_12  and  C_13
REMARK    6  A    between atoms: N_14  and  N_15
REMARK                            x       y       z     vdW  Elec       q    Type
REMARK                         _______ _______ _______ _____ _____    ______ ____
ROOT
ATOM      1  N   UNL     1       2.622   5.199  20.140  0.00  0.00    +0.000 N 
ATOM      2  C   UNL     1       2.048   4.352  21.070  0.00  0.00    +0.000 A 
ATOM      3  C   UNL     1       2.610   3.102  20.949  0.00  0.00    +0.000 A 
ATOM      4  C   UNL     1       3.601   3.192  19.955  0.00  0.00    +0.000 A 
ATOM      5  C   UNL     1       3.647   4.503  19.504  0.00  0.00    +0.000 A 
ENDROOT
BRANCH   1   9
ATOM      6  C   UNL     1       1.405   9.227  19.395  0.00  0.00    +0.000 A 
ATOM      7  C   UNL     1       2.005   8.433  18.404  0.00  0.00    +0.000 A 
ATOM      8  C   UNL     1       2.400   7.111  18.643  0.00  0.00    +0.000 A 
ATOM      9  C   UNL     1       2.169   6.523  19.887  0.00  0.00    +0.000 A 
ATOM     10  C   UNL     1       1.547   7.275  20.884  0.00  0.00    +0.000 A 
ATOM     11  C   UNL     1       1.172   8.601  20.631  0.00  0.00    +0.000 A 
BRANCH   6  13
ATOM     12  C   UNL     1      -0.336  10.982  19.325  0.00  0.00    +0.000 C 
ATOM     13  N   UNL     1       1.050  10.556  19.169  0.00  0.00    +0.000 N 
ATOM     14  C   UNL     1       1.910  11.387  18.330  0.00  0.00    +0.000 C 
ENDBRANCH   6  13
ENDBRANCH   1   9
BRANCH   5  15
ATOM     15  C   UNL     1       4.633   5.065  18.611  0.00  0.00    +0.000 C 
ATOM     16  N   UNL     1       5.142   4.337  17.674  0.00  0.00    +0.000 NA
BRANCH  16  17
ATOM     17  N   UNL     1       6.090   4.911  16.881  0.00  0.00    +0.000 N 
ATOM     18  C   UNL     1       6.861   6.038  17.022  0.00  0.00    +0.000 A 
ATOM     19  N   UNL     1       7.658   6.185  15.987  0.00  0.00    +0.000 NA
ATOM     20  N   UNL     1       7.426   5.133  15.135  0.00  0.00    +0.000 NA
ATOM     21  C   UNL     1       6.496   4.384  15.681  0.00  0.00    +0.000 A 
ENDBRANCH  16  17
ENDBRANCH   5  15
TORSDOF 4
ENDMDL
MODEL 8
REMARK VINA RESULT:      -6.9      1.078      1.367
REMARK  Name = 
REMARK  6 active torsions:
REMARK  status: ('A' for Active; 'I' for Inactive)
REMARK    1  A    between atoms: C_1  and  N_2
REMARK    2  A    between atoms: N_2  and  C_3
REMARK    3  A    between atoms: N_2  and  C_4
REMARK    4  A    between atoms: C_7  and  N_8
REMARK    5  A    between atoms: C_12  and  C_13
REMARK    6  A    between atoms: N_14  and  N_15
REMARK                            x       y       z     vdW  Elec       q    Type
REMARK                         _______ _______ _______ _____ _____    ______ ____
ROOT
ATOM      1  N   UNL     1       2.317   4.675  19.895  0.00  0.00    +0.000 N 
ATOM      2  C   UNL     1       1.468   3.904  20.667  0.00  0.00    +0.000 A 
ATOM      3  C   UNL     1       1.815   2.579  20.533  0.00  0.00    +0.000 A 
ATOM      4  C   UNL     1       2.947   2.534  19.699  0.00  0.00    +0.000 A 
ATOM      5  C   UNL     1       3.290   3.835  19.359  0.00  0.00    +0.000 A 
ENDROOT
BRANCH   1   9
ATOM      6  C   UNL     1       1.658   8.846  19.239  0.00  0.00    +0.000 A 
ATOM      7  C   UNL     1       1.422   8.240  20.483  0.00  0.00    +0.000 A 
ATOM      8  C   UNL     1       1.643   6.875  20.703  0.00  0.00    +0.000 A 
ATOM      9  C   UNL     1       2.147   6.072  19.681  0.00  0.00    +0.000 A 
ATOM     10  C   UNL     1       2.422   6.649  18.442  0.00  0.00    +0.000 A 
ATOM     11  C   UNL     1       2.181   8.014  18.235  0.00  0.00    +0.000 A 
BRANCH   6  13
ATOM     12  C   UNL     1       2.087  10.902  17.932  0.00  0.00    +0.000 C 
ATOM     13  N   UNL     1       1.399  10.197  19.008  0.00  0.00    +0.000 N 
ATOM     14  C   UNL     1       0.850  11.009  20.091  0.00  0.00    +0.000 C 
ENDBRANCH   6  13
ENDBRANCH   1   9
BRANCH   5  15
ATOM     15  C   UNL     1       4.484   4.249  18.661  0.00  0.00    +0.000 C 
ATOM     16  N   UNL     1       4.608   4.005  17.399  0.00  0.00    +0.000 NA
BRANCH  16  17
ATOM     17  N   UNL     1       5.770   4.391  16.798  0.00  0.00    +0.000 N 
ATOM     18  C   UNL     1       7.076   4.393  17.218  0.00  0.00    +0.000 A 
ATOM     19  N   UNL     1       7.864   4.853  16.272  0.00  0.00    +0.000 NA
ATOM     20  N   UNL     1       7.076   5.160  15.191  0.00  0.00    +0.000 NA
ATOM     21  C   UNL     1       5.836   4.878  15.517  0.00  0.00    +0.000 A 
ENDBRANCH  16  17
ENDBRANCH   5  15
TORSDOF 4
ENDMDL
MODEL 9
REMARK VINA RESULT:      -6.9      1.649      5.968
REMARK  Name = 
REMARK  6 active torsions:
REMARK  status: ('A' for Active; 'I' for Inactive)
REMARK    1  A    between atoms: C_1  and  N_2
REMARK    2  A    between atoms: N_2  and  C_3
REMARK    3  A    between atoms: N_2  and  C_4
REMARK    4  A    between atoms: C_7  and  N_8
REMARK    5  A    between atoms: C_12  and  C_13
REMARK    6  A    between atoms: N_14  and  N_15
REMARK                            x       y       z     vdW  Elec       q    Type
REMARK                         _______ _______ _______ _____ _____    ______ ____
ROOT
ATOM      1  N   UNL     1       3.307   3.614  19.708  0.00  0.00    +0.000 N 
ATOM      2  C   UNL     1       3.295   2.503  20.529  0.00  0.00    +0.000 A 
ATOM      3  C   UNL     1       2.511   2.762  21.629  0.00  0.00    +0.000 A 
ATOM      4  C   UNL     1       1.975   4.051  21.455  0.00  0.00    +0.000 A 
ATOM      5  C   UNL     1       2.420   4.547  20.238  0.00  0.00    +0.000 A 
ENDROOT
BRANCH   1   9
ATOM      6  C   UNL     1       5.780   4.158  16.265  0.00  0.00    +0.000 A 
ATOM      7  C   UNL     1       6.234   4.443  17.563  0.00  0.00    +0.000 A 
ATOM      8  C   UNL     1       5.429   4.260  18.694  0.00  0.00    +0.000 A 
ATOM      9  C   UNL     1       4.139   3.745  18.561  0.00  0.00    +0.000 A 
ATOM     10  C   UNL     1       3.668   3.423  17.289  0.00  0.00    +0.000 A 
ATOM     11  C   UNL     1       4.483   3.626  16.167  0.00  0.00    +0.000 A 
BRANCH   6  13
ATOM     12  C   UNL     1       7.533   5.473  15.118  0.00  0.00    +0.000 C 
ATOM     13  N   UNL     1       6.568   4.380  15.136  0.00  0.00    +0.000 N 
ATOM     14  C   UNL     1       6.113   3.873  13.844  0.00  0.00    +0.000 C 
ENDBRANCH   6  13
ENDBRANCH   1   9
BRANCH   5  15
ATOM     15  C   UNL     1       1.974   5.762  19.596  0.00  0.00    +0.000 C 
ATOM     16  N   UNL     1       2.671   6.842  19.709  0.00  0.00    +0.000 NA
BRANCH  16  17
ATOM     17  N   UNL     1       2.186   7.966  19.108  0.00  0.00    +0.000 N 
ATOM     18  C   UNL     1       1.331   8.951  19.532  0.00  0.00    +0.000 A 
ATOM     19  N   UNL     1       1.164   9.854  18.593  0.00  0.00    +0.000 NA
ATOM     20  N   UNL     1       1.927   9.476  17.516  0.00  0.00    +0.000 NA
ATOM     21  C   UNL     1       2.530   8.355  17.838  0.00  0.00    +0.000 A 
ENDBRANCH  16  17
ENDBRANCH   5  15
TORSDOF 4
ENDMDL
