MODEL 1
REMARK VINA RESULT:      -7.7      0.000      0.000
REMARK  Name = 
REMARK  7 active torsions:
REMARK  status: ('A' for Active; 'I' for Inactive)
REMARK    1  A    between atoms: C_1  and  C_2
REMARK    2  A    between atoms: C_2  and  O_3
REMARK    3  A    between atoms: O_3  and  C_4
REMARK    4  A    between atoms: C_4  and  C_5
REMARK    5  A    between atoms: N_7  and  C_8
REMARK    6  A    between atoms: N_14  and  S_15
REMARK    7  A    between atoms: S_15  and  C_18
REMARK                            x       y       z     vdW  Elec       q    Type
REMARK                         _______ _______ _______ _____ _____    ______ ____
ROOT
ATOM      1  C   UNL     1       6.104   3.865  15.026  0.00  0.00    +0.000 A 
ATOM      2  C   UNL     1       7.223   4.454  15.609  0.00  0.00    +0.000 A 
ATOM      3  C   UNL     1       7.097   5.215  16.767  0.00  0.00    +0.000 A 
ATOM      4  C   UNL     1       5.850   5.372  17.386  0.00  0.00    +0.000 A 
ATOM      5  C   UNL     1       4.710   4.758  16.833  0.00  0.00    +0.000 A 
ATOM      6  C   UNL     1       4.848   4.045  15.629  0.00  0.00    +0.000 A 
ATOM      7  N   UNL     1       3.422   4.948  17.475  0.00  0.00    +0.000 N 
ATOM      8  C   UNL     1       3.308   6.038  18.476  0.00  0.00    +0.000 C 
ATOM      9  C   UNL     1       4.515   6.067  19.394  0.00  0.00    +0.000 C 
ATOM     10  C   UNL     1       5.779   6.279  18.583  0.00  0.00    +0.000 C 
ENDROOT
BRANCH   1  13
ATOM     11  C   UNL     1       6.629   3.591  12.599  0.00  0.00    +0.000 C 
ATOM     12  O   UNL     1       7.167   4.676  12.387  0.00  0.00    +0.000 OA
ATOM     13  N   UNL     1       6.173   3.127  13.825  0.00  0.00    +0.000 N 
ATOM     14  H   UNL     1       5.887   2.154  13.862  0.00  0.00    +0.000 HD
BRANCH  11  15
ATOM     15  C   UNL     1       6.474   2.574  11.472  0.00  0.00    +0.000 C 
BRANCH  15  16
ATOM     16  O   UNL     1       5.108   2.225  11.285  0.00  0.00    +0.000 OA
BRANCH  16  18
ATOM     17  C   UNL     1       3.290   3.372  10.242  0.00  0.00    +0.000 C 
ATOM     18  C   UNL     1       4.257   3.362  11.408  0.00  0.00    +0.000 C 
ENDBRANCH  16  18
ENDBRANCH  15  16
ENDBRANCH  11  15
ENDBRANCH   1  13
BRANCH   7  19
ATOM     19  S   UNL     1       2.325   3.644  17.621  0.00  0.00    +0.000 S 
ATOM     20  O   UNL     1       1.008   4.100  17.209  0.00  0.00    +0.000 OA
ATOM     21  O   UNL     1       2.882   2.444  17.031  0.00  0.00    +0.000 OA
BRANCH  19  22
ATOM     22  C   UNL     1       2.104   3.275  19.362  0.00  0.00    +0.000 A 
ATOM     23  C   UNL     1       1.008   3.397  20.199  0.00  0.00    +0.000 A 
ATOM     24  C   UNL     1       1.267   2.909  21.514  0.00  0.00    +0.000 A 
ATOM     25  C   UNL     1       2.553   2.433  21.640  0.00  0.00    +0.000 A 
ATOM     26  S   UNL     1       3.444   2.600  20.191  0.00  0.00    +0.000 S 
ENDBRANCH  19  22
ENDBRANCH   7  19
TORSDOF 6
ENDMDL
MODEL 2
REMARK VINA RESULT:      -7.6      1.403      1.944
REMARK  Name = 
REMARK  7 active torsions:
REMARK  status: ('A' for Active; 'I' for Inactive)
REMARK    1  A    between atoms: C_1  and  C_2
REMARK    2  A    between atoms: C_2  and  O_3
REMARK    3  A    between atoms: O_3  and  C_4
REMARK    4  A    between atoms: C_4  and  C_5
REMARK    5  A    between atoms: N_7  and  C_8
REMARK    6  A    between atoms: N_14  and  S_15
REMARK    7  A    between atoms: S_15  and  C_18
REMARK                            x       y       z     vdW  Elec       q    Type
REMARK                         _______ _______ _______ _____ _____    ______ ____
ROOT
ATOM      1  C   UNL     1       5.754   4.118  14.600  0.00  0.00    +0.000 A 
ATOM      2  C   UNL     1       6.929   4.861  14.520  0.00  0.00    +0.000 A 
ATOM      3  C   UNL     1       7.459   5.464  15.656  0.00  0.00    +0.000 A 
ATOM      4  C   UNL     1       6.844   5.303  16.904  0.00  0.00    +0.000 A 
ATOM      5  C   UNL     1       5.674   4.529  17.014  0.00  0.00    +0.000 A 
ATOM      6  C   UNL     1       5.119   3.980  15.845  0.00  0.00    +0.000 A 
ATOM      7  N   UNL     1       5.036   4.389  18.311  0.00  0.00    +0.000 N 
ATOM      8  C   UNL     1       5.448   5.330  19.382  0.00  0.00    +0.000 C 
ATOM      9  C   UNL     1       6.953   5.514  19.403  0.00  0.00    +0.000 C 
ATOM     10  C   UNL     1       7.427   6.056  18.068  0.00  0.00    +0.000 C 
ENDROOT
BRANCH   1  13
ATOM     11  C   UNL     1       5.740   3.340  12.226  0.00  0.00    +0.000 C 
ATOM     12  O   UNL     1       6.921   3.531  11.946  0.00  0.00    +0.000 OA
ATOM     13  N   UNL     1       5.150   3.530  13.468  0.00  0.00    +0.000 N 
ATOM     14  H   UNL     1       4.200   3.188  13.574  0.00  0.00    +0.000 HD
BRANCH  11  15
ATOM     15  C   UNL     1       4.782   2.774  11.182  0.00  0.00    +0.000 C 
BRANCH  15  16
ATOM     16  O   UNL     1       3.661   3.631  11.000  0.00  0.00    +0.000 OA
BRANCH  16  18
ATOM     17  C   UNL     1       2.481   4.838   9.309  0.00  0.00    +0.000 C 
ATOM     18  C   UNL     1       3.127   3.519   9.683  0.00  0.00    +0.000 C 
ENDBRANCH  16  18
ENDBRANCH  15  16
ENDBRANCH  11  15
ENDBRANCH   1  13
BRANCH   7  19
ATOM     19  S   UNL     1       4.398   2.882  18.807  0.00  0.00    +0.000 S 
ATOM     20  O   UNL     1       3.947   2.162  17.628  0.00  0.00    +0.000 OA
ATOM     21  O   UNL     1       5.296   2.233  19.740  0.00  0.00    +0.000 OA
BRANCH  19  22
ATOM     22  C   UNL     1       2.879   3.174  19.714  0.00  0.00    +0.000 A 
ATOM     23  C   UNL     1       2.458   2.759  20.966  0.00  0.00    +0.000 A 
ATOM     24  C   UNL     1       1.186   3.296  21.321  0.00  0.00    +0.000 A 
ATOM     25  C   UNL     1       0.674   4.101  20.328  0.00  0.00    +0.000 A 
ATOM     26  S   UNL     1       1.711   4.184  18.972  0.00  0.00    +0.000 S 
ENDBRANCH  19  22
ENDBRANCH   7  19
TORSDOF 6
ENDMDL
MODEL 3
REMARK VINA RESULT:      -7.4      3.496      7.233
REMARK  Name = 
REMARK  7 active torsions:
REMARK  status: ('A' for Active; 'I' for Inactive)
REMARK    1  A    between atoms: C_1  and  C_2
REMARK    2  A    between atoms: C_2  and  O_3
REMARK    3  A    between atoms: O_3  and  C_4
REMARK    4  A    between atoms: C_4  and  C_5
REMARK    5  A    between atoms: N_7  and  C_8
REMARK    6  A    between atoms: N_14  and  S_15
REMARK    7  A    between atoms: S_15  and  C_18
REMARK                            x       y       z     vdW  Elec       q    Type
REMARK                         _______ _______ _______ _____ _____    ______ ____
ROOT
ATOM      1  C   UNL     1       2.664   7.173  19.050  0.00  0.00    +0.000 A 
ATOM      2  C   UNL     1       3.116   8.141  18.157  0.00  0.00    +0.000 A 
ATOM      3  C   UNL     1       3.943   7.789  17.095  0.00  0.00    +0.000 A 
ATOM      4  C   UNL     1       4.305   6.452  16.885  0.00  0.00    +0.000 A 
ATOM      5  C   UNL     1       3.834   5.452  17.756  0.00  0.00    +0.000 A 
ATOM      6  C   UNL     1       3.050   5.836  18.858  0.00  0.00    +0.000 A 
ATOM      7  N   UNL     1       4.236   4.074  17.537  0.00  0.00    +0.000 N 
ATOM      8  C   UNL     1       5.379   3.831  16.621  0.00  0.00    +0.000 C 
ATOM      9  C   UNL     1       5.281   4.696  15.380  0.00  0.00    +0.000 C 
ATOM     10  C   UNL     1       5.272   6.162  15.769  0.00  0.00    +0.000 C 
ENDROOT
BRANCH   1  13
ATOM     11  C   UNL     1       1.180   8.676  20.384  0.00  0.00    +0.000 C 
ATOM     12  O   UNL     1       1.049   9.594  19.578  0.00  0.00    +0.000 OA
ATOM     13  N   UNL     1       1.865   7.487  20.171  0.00  0.00    +0.000 N 
ATOM     14  H   UNL     1       1.758   6.770  20.880  0.00  0.00    +0.000 HD
BRANCH  11  15
ATOM     15  C   UNL     1       0.495   8.742  21.746  0.00  0.00    +0.000 C 
BRANCH  15  16
ATOM     16  O   UNL     1      -0.514   9.743  21.763  0.00  0.00    +0.000 OA
BRANCH  16  18
ATOM     17  C   UNL     1      -1.427  11.573  22.999  0.00  0.00    +0.000 C 
ATOM     18  C   UNL     1      -0.758  10.216  23.085  0.00  0.00    +0.000 C 
ENDBRANCH  16  18
ENDBRANCH  15  16
ENDBRANCH  11  15
ENDBRANCH   1  13
BRANCH   7  19
ATOM     19  S   UNL     1       3.110   2.801  17.726  0.00  0.00    +0.000 S 
ATOM     20  O   UNL     1       1.940   3.096  16.915  0.00  0.00    +0.000 OA
ATOM     21  O   UNL     1       3.768   1.518  17.590  0.00  0.00    +0.000 OA
BRANCH  19  22
ATOM     22  C   UNL     1       2.470   2.846  19.401  0.00  0.00    +0.000 A 
ATOM     23  C   UNL     1       1.185   2.993  19.893  0.00  0.00    +0.000 A 
ATOM     24  C   UNL     1       1.130   2.897  21.315  0.00  0.00    +0.000 A 
ATOM     25  C   UNL     1       2.375   2.683  21.863  0.00  0.00    +0.000 A 
ATOM     26  S   UNL     1       3.599   2.626  20.671  0.00  0.00    +0.000 S 
ENDBRANCH  19  22
ENDBRANCH   7  19
TORSDOF 6
ENDMDL
MODEL 4
REMARK VINA RESULT:      -7.4      3.867      7.591
REMARK  Name = 
REMARK  7 active torsions:
REMARK  status: ('A' for Active; 'I' for Inactive)
REMARK    1  A    between atoms: C_1  and  C_2
REMARK    2  A    between atoms: C_2  and  O_3
REMARK    3  A    between atoms: O_3  and  C_4
REMARK    4  A    between atoms: C_4  and  C_5
REMARK    5  A    between atoms: N_7  and  C_8
REMARK    6  A    between atoms: N_14  and  S_15
REMARK    7  A    between atoms: S_15  and  C_18
REMARK                            x       y       z     vdW  Elec       q    Type
REMARK                         _______ _______ _______ _____ _____    ______ ____
ROOT
ATOM      1  C   UNL     1       2.060   7.336  19.480  0.00  0.00    +0.000 A 
ATOM      2  C   UNL     1       1.745   6.575  20.602  0.00  0.00    +0.000 A 
ATOM      3  C   UNL     1       2.046   5.217  20.639  0.00  0.00    +0.000 A 
ATOM      4  C   UNL     1       2.702   4.601  19.566  0.00  0.00    +0.000 A 
ATOM      5  C   UNL     1       3.059   5.358  18.434  0.00  0.00    +0.000 A 
ATOM      6  C   UNL     1       2.691   6.714  18.390  0.00  0.00    +0.000 A 
ATOM      7  N   UNL     1       3.720   4.700  17.321  0.00  0.00    +0.000 N 
ATOM      8  C   UNL     1       3.687   3.217  17.284  0.00  0.00    +0.000 C 
ATOM      9  C   UNL     1       3.957   2.627  18.655  0.00  0.00    +0.000 C 
ATOM     10  C   UNL     1       2.914   3.113  19.643  0.00  0.00    +0.000 C 
ENDROOT
BRANCH   1  13
ATOM     11  C   UNL     1       0.832   9.398  20.173  0.00  0.00    +0.000 C 
ATOM     12  O   UNL     1       0.275   8.970  21.182  0.00  0.00    +0.000 OA
ATOM     13  N   UNL     1       1.731   8.705  19.374  0.00  0.00    +0.000 N 
ATOM     14  H   UNL     1       2.213   9.244  18.664  0.00  0.00    +0.000 HD
BRANCH  11  15
ATOM     15  C   UNL     1       0.620  10.843  19.730  0.00  0.00    +0.000 C 
BRANCH  15  16
ATOM     16  O   UNL     1      -0.023  10.899  18.463  0.00  0.00    +0.000 OA
BRANCH  16  18
ATOM     17  C   UNL     1      -1.844  10.025  17.188  0.00  0.00    +0.000 C 
ATOM     18  C   UNL     1      -1.388  10.497  18.553  0.00  0.00    +0.000 C 
ENDBRANCH  16  18
ENDBRANCH  15  16
ENDBRANCH  11  15
ENDBRANCH   1  13
BRANCH   7  19
ATOM     19  S   UNL     1       5.011   5.468  16.502  0.00  0.00    +0.000 S 
ATOM     20  O   UNL     1       5.638   4.498  15.620  0.00  0.00    +0.000 OA
ATOM     21  O   UNL     1       4.585   6.746  15.970  0.00  0.00    +0.000 OA
BRANCH  19  22
ATOM     22  C   UNL     1       6.302   5.839  17.690  0.00  0.00    +0.000 A 
ATOM     23  C   UNL     1       6.746   5.160  18.811  0.00  0.00    +0.000 A 
ATOM     24  C   UNL     1       7.864   5.795  19.428  0.00  0.00    +0.000 A 
ATOM     25  C   UNL     1       8.237   6.940  18.760  0.00  0.00    +0.000 A 
ATOM     26  S   UNL     1       7.227   7.255  17.416  0.00  0.00    +0.000 S 
ENDBRANCH  19  22
ENDBRANCH   7  19
TORSDOF 6
ENDMDL
MODEL 5
REMARK VINA RESULT:      -7.3      0.864      1.226
REMARK  Name = 
REMARK  7 active torsions:
REMARK  status: ('A' for Active; 'I' for Inactive)
REMARK    1  A    between atoms: C_1  and  C_2
REMARK    2  A    between atoms: C_2  and  O_3
REMARK    3  A    between atoms: O_3  and  C_4
REMARK    4  A    between atoms: C_4  and  C_5
REMARK    5  A    between atoms: N_7  and  C_8
REMARK    6  A    between atoms: N_14  and  S_15
REMARK    7  A    between atoms: S_15  and  C_18
REMARK                            x       y       z     vdW  Elec       q    Type
REMARK                         _______ _______ _______ _____ _____    ______ ____
ROOT
ATOM      1  C   UNL     1       6.131   4.028  14.914  0.00  0.00    +0.000 A 
ATOM      2  C   UNL     1       7.279   4.559  15.496  0.00  0.00    +0.000 A 
ATOM      3  C   UNL     1       7.205   5.228  16.714  0.00  0.00    +0.000 A 
ATOM      4  C   UNL     1       5.985   5.347  17.391  0.00  0.00    +0.000 A 
ATOM      5  C   UNL     1       4.818   4.789  16.837  0.00  0.00    +0.000 A 
ATOM      6  C   UNL     1       4.902   4.172  15.576  0.00  0.00    +0.000 A 
ATOM      7  N   UNL     1       3.557   4.940  17.541  0.00  0.00    +0.000 N 
ATOM      8  C   UNL     1       3.495   5.949  18.628  0.00  0.00    +0.000 C 
ATOM      9  C   UNL     1       4.735   5.895  19.498  0.00  0.00    +0.000 C 
ATOM     10  C   UNL     1       5.970   6.159  18.658  0.00  0.00    +0.000 C 
ENDROOT
BRANCH   1  13
ATOM     11  C   UNL     1       6.771   3.845  12.505  0.00  0.00    +0.000 C 
ATOM     12  O   UNL     1       7.520   4.816  12.423  0.00  0.00    +0.000 OA
ATOM     13  N   UNL     1       6.147   3.385  13.657  0.00  0.00    +0.000 N 
ATOM     14  H   UNL     1       5.678   2.488  13.590  0.00  0.00    +0.000 HD
BRANCH  11  15
ATOM     15  C   UNL     1       6.508   2.968  11.284  0.00  0.00    +0.000 C 
BRANCH  15  16
ATOM     16  O   UNL     1       5.814   1.782  11.649  0.00  0.00    +0.000 OA
BRANCH  16  18
ATOM     17  C   UNL     1       6.085  -0.587  11.496  0.00  0.00    +0.000 C 
ATOM     18  C   UNL     1       6.077   0.722  10.732  0.00  0.00    +0.000 C 
ENDBRANCH  16  18
ENDBRANCH  15  16
ENDBRANCH  11  15
ENDBRANCH   1  13
BRANCH   7  19
ATOM     19  S   UNL     1       2.451   3.638  17.628  0.00  0.00    +0.000 S 
ATOM     20  O   UNL     1       1.158   4.099  17.151  0.00  0.00    +0.000 OA
ATOM     21  O   UNL     1       3.034   2.439  17.063  0.00  0.00    +0.000 OA
BRANCH  19  22
ATOM     22  C   UNL     1       2.142   3.264  19.354  0.00  0.00    +0.000 A 
ATOM     23  C   UNL     1       1.006   3.387  20.135  0.00  0.00    +0.000 A 
ATOM     24  C   UNL     1       1.196   2.894  21.460  0.00  0.00    +0.000 A 
ATOM     25  C   UNL     1       2.473   2.413  21.649  0.00  0.00    +0.000 A 
ATOM     26  S   UNL     1       3.436   2.581  20.246  0.00  0.00    +0.000 S 
ENDBRANCH  19  22
ENDBRANCH   7  19
TORSDOF 6
ENDMDL
MODEL 6
REMARK VINA RESULT:      -7.3      3.923      7.441
REMARK  Name = 
REMARK  7 active torsions:
REMARK  status: ('A' for Active; 'I' for Inactive)
REMARK    1  A    between atoms: C_1  and  C_2
REMARK    2  A    between atoms: C_2  and  O_3
REMARK    3  A    between atoms: O_3  and  C_4
REMARK    4  A    between atoms: C_4  and  C_5
REMARK    5  A    between atoms: N_7  and  C_8
REMARK    6  A    between atoms: N_14  and  S_15
REMARK    7  A    between atoms: S_15  and  C_18
REMARK                            x       y       z     vdW  Elec       q    Type
REMARK                         _______ _______ _______ _____ _____    ______ ____
ROOT
ATOM      1  C   UNL     1       2.041   7.338  19.541  0.00  0.00    +0.000 A 
ATOM      2  C   UNL     1       1.700   6.558  20.643  0.00  0.00    +0.000 A 
ATOM      3  C   UNL     1       1.965   5.192  20.647  0.00  0.00    +0.000 A 
ATOM      4  C   UNL     1       2.611   4.586  19.563  0.00  0.00    +0.000 A 
ATOM      5  C   UNL     1       2.995   5.361  18.453  0.00  0.00    +0.000 A 
ATOM      6  C   UNL     1       2.663   6.727  18.440  0.00  0.00    +0.000 A 
ATOM      7  N   UNL     1       3.645   4.714  17.327  0.00  0.00    +0.000 N 
ATOM      8  C   UNL     1       3.574   3.234  17.252  0.00  0.00    +0.000 C 
ATOM      9  C   UNL     1       3.820   2.603  18.610  0.00  0.00    +0.000 C 
ATOM     10  C   UNL     1       2.785   3.092  19.604  0.00  0.00    +0.000 C 
ENDROOT
BRANCH   1  13
ATOM     11  C   UNL     1       1.816   9.514  18.333  0.00  0.00    +0.000 C 
ATOM     12  O   UNL     1       2.016   9.126  17.184  0.00  0.00    +0.000 OA
ATOM     13  N   UNL     1       1.748   8.717  19.468  0.00  0.00    +0.000 N 
ATOM     14  H   UNL     1       1.432   9.169  20.319  0.00  0.00    +0.000 HD
BRANCH  11  15
ATOM     15  C   UNL     1       1.540  10.988  18.613  0.00  0.00    +0.000 C 
BRANCH  15  16
ATOM     16  O   UNL     1       2.524  11.816  18.005  0.00  0.00    +0.000 OA
BRANCH  16  18
ATOM     17  C   UNL     1       2.328  13.354  19.823  0.00  0.00    +0.000 C 
ATOM     18  C   UNL     1       2.313  13.191  18.317  0.00  0.00    +0.000 C 
ENDBRANCH  16  18
ENDBRANCH  15  16
ENDBRANCH  11  15
ENDBRANCH   1  13
BRANCH   7  19
ATOM     19  S   UNL     1       4.961   5.468  16.534  0.00  0.00    +0.000 S 
ATOM     20  O   UNL     1       5.589   4.494  15.657  0.00  0.00    +0.000 OA
ATOM     21  O   UNL     1       4.562   6.755  16.003  0.00  0.00    +0.000 OA
BRANCH  19  22
ATOM     22  C   UNL     1       6.237   5.813  17.746  0.00  0.00    +0.000 A 
ATOM     23  C   UNL     1       6.590   5.173  18.921  0.00  0.00    +0.000 A 
ATOM     24  C   UNL     1       7.733   5.759  19.541  0.00  0.00    +0.000 A 
ATOM     25  C   UNL     1       8.214   6.830  18.821  0.00  0.00    +0.000 A 
ATOM     26  S   UNL     1       7.277   7.137  17.425  0.00  0.00    +0.000 S 
ENDBRANCH  19  22
ENDBRANCH   7  19
TORSDOF 6
ENDMDL
MODEL 7
REMARK VINA RESULT:      -7.2      3.848      7.768
REMARK  Name = 
REMARK  7 active torsions:
REMARK  status: ('A' for Active; 'I' for Inactive)
REMARK    1  A    between atoms: C_1  and  C_2
REMARK    2  A    between atoms: C_2  and  O_3
REMARK    3  A    between atoms: O_3  and  C_4
REMARK    4  A    between atoms: C_4  and  C_5
REMARK    5  A    between atoms: N_7  and  C_8
REMARK    6  A    between atoms: N_14  and  S_15
REMARK    7  A    between atoms: S_15  and  C_18
REMARK                            x       y       z     vdW  Elec       q    Type
REMARK                         _______ _______ _______ _____ _____    ______ ____
ROOT
ATOM      1  C   UNL     1       2.034   7.250  19.787  0.00  0.00    +0.000 A 
ATOM      2  C   UNL     1       1.713   6.376  20.822  0.00  0.00    +0.000 A 
ATOM      3  C   UNL     1       1.968   5.014  20.698  0.00  0.00    +0.000 A 
ATOM      4  C   UNL     1       2.584   4.505  19.549  0.00  0.00    +0.000 A 
ATOM      5  C   UNL     1       2.948   5.374  18.504  0.00  0.00    +0.000 A 
ATOM      6  C   UNL     1       2.626   6.738  18.622  0.00  0.00    +0.000 A 
ATOM      7  N   UNL     1       3.567   4.828  17.309  0.00  0.00    +0.000 N 
ATOM      8  C   UNL     1       3.483   3.360  17.104  0.00  0.00    +0.000 C 
ATOM      9  C   UNL     1       3.756   2.609  18.393  0.00  0.00    +0.000 C 
ATOM     10  C   UNL     1       2.748   3.012  19.451  0.00  0.00    +0.000 C 
ENDROOT
BRANCH   1  13
ATOM     11  C   UNL     1       1.343   9.433  18.786  0.00  0.00    +0.000 C 
ATOM     12  O   UNL     1       1.039   9.049  17.659  0.00  0.00    +0.000 OA
ATOM     13  N   UNL     1       1.750   8.632  19.845  0.00  0.00    +0.000 N 
ATOM     14  H   UNL     1       1.823   9.083  20.751  0.00  0.00    +0.000 HD
BRANCH  11  15
ATOM     15  C   UNL     1       1.223  10.908  19.157  0.00  0.00    +0.000 C 
BRANCH  15  16
ATOM     16  O   UNL     1      -0.012  11.171  19.812  0.00  0.00    +0.000 OA
BRANCH  16  18
ATOM     17  C   UNL     1      -0.297  10.709  22.139  0.00  0.00    +0.000 C 
ATOM     18  C   UNL     1       0.193  11.713  21.114  0.00  0.00    +0.000 C 
ENDBRANCH  16  18
ENDBRANCH  15  16
ENDBRANCH  11  15
ENDBRANCH   1  13
BRANCH   7  19
ATOM     19  S   UNL     1       4.870   5.642  16.556  0.00  0.00    +0.000 S 
ATOM     20  O   UNL     1       5.482   4.741  15.594  0.00  0.00    +0.000 OA
ATOM     21  O   UNL     1       4.463   6.967  16.136  0.00  0.00    +0.000 OA
BRANCH  19  22
ATOM     22  C   UNL     1       6.167   5.891  17.769  0.00  0.00    +0.000 A 
ATOM     23  C   UNL     1       6.487   5.208  18.930  0.00  0.00    +0.000 A 
ATOM     24  C   UNL     1       7.663   5.716  19.557  0.00  0.00    +0.000 A 
ATOM     25  C   UNL     1       8.202   6.772  18.857  0.00  0.00    +0.000 A 
ATOM     26  S   UNL     1       7.279   7.160  17.470  0.00  0.00    +0.000 S 
ENDBRANCH  19  22
ENDBRANCH   7  19
TORSDOF 6
ENDMDL
MODEL 8
REMARK VINA RESULT:      -7.2      5.360      9.103
REMARK  Name = 
REMARK  7 active torsions:
REMARK  status: ('A' for Active; 'I' for Inactive)
REMARK    1  A    between atoms: C_1  and  C_2
REMARK    2  A    between atoms: C_2  and  O_3
REMARK    3  A    between atoms: O_3  and  C_4
REMARK    4  A    between atoms: C_4  and  C_5
REMARK    5  A    between atoms: N_7  and  C_8
REMARK    6  A    between atoms: N_14  and  S_15
REMARK    7  A    between atoms: S_15  and  C_18
REMARK                            x       y       z     vdW  Elec       q    Type
REMARK                         _______ _______ _______ _____ _____    ______ ____
ROOT
ATOM      1  C   UNL     1       0.593   9.252  20.158  0.00  0.00    +0.000 A 
ATOM      2  C   UNL     1       0.858   9.928  18.970  0.00  0.00    +0.000 A 
ATOM      3  C   UNL     1       1.792   9.427  18.069  0.00  0.00    +0.000 A 
ATOM      4  C   UNL     1       2.452   8.217  18.322  0.00  0.00    +0.000 A 
ATOM      5  C   UNL     1       2.174   7.501  19.501  0.00  0.00    +0.000 A 
ATOM      6  C   UNL     1       1.274   8.055  20.428  0.00  0.00    +0.000 A 
ATOM      7  N   UNL     1       2.882   6.260  19.759  0.00  0.00    +0.000 N 
ATOM      8  C   UNL     1       4.092   5.978  18.947  0.00  0.00    +0.000 C 
ATOM      9  C   UNL     1       3.863   6.317  17.486  0.00  0.00    +0.000 C 
ATOM     10  C   UNL     1       3.510   7.785  17.343  0.00  0.00    +0.000 C 
ENDROOT
BRANCH   1  13
ATOM     11  C   UNL     1      -0.153  10.901  21.881  0.00  0.00    +0.000 C 
ATOM     12  O   UNL     1       0.725  11.750  21.738  0.00  0.00    +0.000 OA
ATOM     13  N   UNL     1      -0.308   9.746  21.126  0.00  0.00    +0.000 N 
ATOM     14  H   UNL     1      -1.165   9.224  21.272  0.00  0.00    +0.000 HD
BRANCH  11  15
ATOM     15  C   UNL     1      -1.255  11.098  22.918  0.00  0.00    +0.000 C 
BRANCH  15  16
ATOM     16  O   UNL     1      -2.242  12.007  22.448  0.00  0.00    +0.000 OA
BRANCH  16  18
ATOM     17  C   UNL     1      -3.879  12.503  24.116  0.00  0.00    +0.000 C 
ATOM     18  C   UNL     1      -2.595  12.957  23.451  0.00  0.00    +0.000 C 
ENDBRANCH  16  18
ENDBRANCH  15  16
ENDBRANCH  11  15
ENDBRANCH   1  13
BRANCH   7  19
ATOM     19  S   UNL     1       2.059   4.911  20.416  0.00  0.00    +0.000 S 
ATOM     20  O   UNL     1       2.669   4.576  21.691  0.00  0.00    +0.000 OA
ATOM     21  O   UNL     1       0.626   5.105  20.339  0.00  0.00    +0.000 OA
BRANCH  19  22
ATOM     22  C   UNL     1       2.413   3.475  19.401  0.00  0.00    +0.000 A 
ATOM     23  C   UNL     1       1.844   3.013  18.228  0.00  0.00    +0.000 A 
ATOM     24  C   UNL     1       2.500   1.851  17.722  0.00  0.00    +0.000 A 
ATOM     25  C   UNL     1       3.546   1.462  18.529  0.00  0.00    +0.000 A 
ATOM     26  S   UNL     1       3.716   2.476  19.894  0.00  0.00    +0.000 S 
ENDBRANCH  19  22
ENDBRANCH   7  19
TORSDOF 6
ENDMDL
MODEL 9
REMARK VINA RESULT:      -7.1      3.839      7.775
REMARK  Name = 
REMARK  7 active torsions:
REMARK  status: ('A' for Active; 'I' for Inactive)
REMARK    1  A    between atoms: C_1  and  C_2
REMARK    2  A    between atoms: C_2  and  O_3
REMARK    3  A    between atoms: O_3  and  C_4
REMARK    4  A    between atoms: C_4  and  C_5
REMARK    5  A    between atoms: N_7  and  C_8
REMARK    6  A    between atoms: N_14  and  S_15
REMARK    7  A    between atoms: S_15  and  C_18
REMARK                            x       y       z     vdW  Elec       q    Type
REMARK                         _______ _______ _______ _____ _____    ______ ____
ROOT
ATOM      1  C   UNL     1       2.009   7.134  19.937  0.00  0.00    +0.000 A 
ATOM      2  C   UNL     1       1.703   6.212  20.935  0.00  0.00    +0.000 A 
ATOM      3  C   UNL     1       1.954   4.857  20.742  0.00  0.00    +0.000 A 
ATOM      4  C   UNL     1       2.551   4.402  19.560  0.00  0.00    +0.000 A 
ATOM      5  C   UNL     1       2.900   5.320  18.552  0.00  0.00    +0.000 A 
ATOM      6  C   UNL     1       2.581   6.676  18.740  0.00  0.00    +0.000 A 
ATOM      7  N   UNL     1       3.499   4.830  17.324  0.00  0.00    +0.000 N 
ATOM      8  C   UNL     1       3.410   3.373  17.050  0.00  0.00    +0.000 C 
ATOM      9  C   UNL     1       3.702   2.562  18.298  0.00  0.00    +0.000 C 
ATOM     10  C   UNL     1       2.711   2.915  19.390  0.00  0.00    +0.000 C 
ENDROOT
BRANCH   1  13
ATOM     11  C   UNL     1       0.631   9.071  20.707  0.00  0.00    +0.000 C 
ATOM     12  O   UNL     1      -0.202   8.468  21.380  0.00  0.00    +0.000 OA
ATOM     13  N   UNL     1       1.728   8.511  20.065  0.00  0.00    +0.000 N 
ATOM     14  H   UNL     1       2.402   9.160  19.673  0.00  0.00    +0.000 HD
BRANCH  11  15
ATOM     15  C   UNL     1       0.563  10.589  20.574  0.00  0.00    +0.000 C 
BRANCH  15  16
ATOM     16  O   UNL     1       0.145  10.969  19.269  0.00  0.00    +0.000 OA
BRANCH  16  18
ATOM     17  C   UNL     1       2.164  11.817  18.314  0.00  0.00    +0.000 C 
ATOM     18  C   UNL     1       0.788  12.168  18.843  0.00  0.00    +0.000 C 
ENDBRANCH  16  18
ENDBRANCH  15  16
ENDBRANCH  11  15
ENDBRANCH   1  13
BRANCH   7  19
ATOM     19  S   UNL     1       4.791   5.678  16.589  0.00  0.00    +0.000 S 
ATOM     20  O   UNL     1       5.391   4.821  15.581  0.00  0.00    +0.000 OA
ATOM     21  O   UNL     1       4.378   7.020  16.232  0.00  0.00    +0.000 OA
BRANCH  19  22
ATOM     22  C   UNL     1       6.104   5.876  17.794  0.00  0.00    +0.000 A 
ATOM     23  C   UNL     1       6.397   5.188  18.959  0.00  0.00    +0.000 A 
ATOM     24  C   UNL     1       7.598   5.646  19.577  0.00  0.00    +0.000 A 
ATOM     25  C   UNL     1       8.182   6.671  18.866  0.00  0.00    +0.000 A 
ATOM     26  S   UNL     1       7.271   7.090  17.481  0.00  0.00    +0.000 S 
ENDBRANCH  19  22
ENDBRANCH   7  19
TORSDOF 6
ENDMDL
