MODEL 1
REMARK VINA RESULT:      -7.5      0.000      0.000
REMARK  Name = 
REMARK  11 active torsions:
REMARK  status: ('A' for Active; 'I' for Inactive)
REMARK    1  A    between atoms: C_1  and  C_2
REMARK    2  A    between atoms: C_2  and  S_3
REMARK    3  A    between atoms: S_3  and  C_4
REMARK    4  A    between atoms: C_4  and  C_28
REMARK    5  A    between atoms: N_5  and  O_6
REMARK    6  A    between atoms: O_6  and  C_7
REMARK    7  A    between atoms: C_7  and  C_8
REMARK    8  A    between atoms: C_11  and  N_12
REMARK    9  A    between atoms: C_16  and  C_18
REMARK   10  A    between atoms: C_28  and  C_29
REMARK   11  A    between atoms: C_28  and  C_30
REMARK                            x       y       z     vdW  Elec       q    Type
REMARK                         _______ _______ _______ _____ _____    ______ ____
ROOT
ATOM      1  C   UNL     1       2.796   5.381  19.441  0.00  0.00    +0.000 A 
ATOM      2  C   UNL     1       1.969   5.391  20.570  0.00  0.00    +0.000 A 
ATOM      3  C   UNL     1       1.307   6.550  20.974  0.00  0.00    +0.000 A 
ATOM      4  C   UNL     1       1.467   7.735  20.263  0.00  0.00    +0.000 A 
ATOM      5  C   UNL     1       2.283   7.740  19.126  0.00  0.00    +0.000 A 
ATOM      6  C   UNL     1       2.958   6.579  18.726  0.00  0.00    +0.000 A 
ENDROOT
BRANCH   4   7
ATOM      7  N   UNL     1       0.841   8.935  20.634  0.00  0.00    +0.000 N 
ATOM      8  C   UNL     1       1.063   9.683  21.762  0.00  0.00    +0.000 C 
ATOM      9  O   UNL     1       1.876   9.455  22.654  0.00  0.00    +0.000 OA
ATOM     10  N   UNL     1       0.277  10.808  21.882  0.00  0.00    +0.000 N 
ATOM     11  C   UNL     1      -0.756  11.222  21.057  0.00  0.00    +0.000 C 
ATOM     12  O   UNL     1      -0.981  10.681  19.975  0.00  0.00    +0.000 OA
ATOM     13  H   UNL     1       0.198   9.348  19.962  0.00  0.00    +0.000 HD
ATOM     14  H   UNL     1       0.471  11.311  22.739  0.00  0.00    +0.000 HD
BRANCH  11  15
ATOM     15  C   UNL     1      -1.585  12.361  21.517  0.00  0.00    +0.000 A 
ATOM     16  C   UNL     1      -1.709  13.548  20.794  0.00  0.00    +0.000 A 
ATOM     17  F   UNL     1      -1.098  13.695  19.607  0.00  0.00    +0.000 F 
ATOM     18  C   UNL     1      -2.463  14.618  21.276  0.00  0.00    +0.000 A 
ATOM     19  C   UNL     1      -3.112  14.515  22.501  0.00  0.00    +0.000 A 
ATOM     20  C   UNL     1      -3.014  13.332  23.230  0.00  0.00    +0.000 A 
ATOM     21  C   UNL     1      -2.259  12.266  22.740  0.00  0.00    +0.000 A 
ATOM     22  F   UNL     1      -2.197  11.161  23.492  0.00  0.00    +0.000 F 
ENDBRANCH  11  15
ENDBRANCH   4   7
BRANCH   1  23
ATOM     23  C   UNL     1       3.544   4.132  19.044  0.00  0.00    +0.000 C 
BRANCH  23  24
ATOM     24  O   UNL     1       4.958   4.363  18.964  0.00  0.00    +0.000 OA
BRANCH  24  26
ATOM     25  C   UNL     1       6.317   5.102  17.340  0.00  0.00    +0.000 C 
ATOM     26  N   UNL     1       5.409   4.224  17.637  0.00  0.00    +0.000 NA
BRANCH  25  27
ATOM     27  C   UNL     1       6.910   6.187  18.243  0.00  0.00    +0.000 C 
ATOM     28  C   UNL     1       7.992   5.649  19.179  0.00  0.00    +0.000 C 
ATOM     29  C   UNL     1       7.406   7.384  17.434  0.00  0.00    +0.000 C 
ENDBRANCH  25  27
BRANCH  25  30
ATOM     30  S   UNL     1       7.039   5.020  15.728  0.00  0.00    +0.000 S 
BRANCH  30  32
ATOM     31  C   UNL     1       6.208   3.800  13.434  0.00  0.00    +0.000 C 
ATOM     32  C   UNL     1       5.680   4.271  14.784  0.00  0.00    +0.000 C 
ENDBRANCH  30  32
ENDBRANCH  25  30
ENDBRANCH  24  26
ENDBRANCH  23  24
ENDBRANCH   1  23
TORSDOF 8
ENDMDL
MODEL 2
REMARK VINA RESULT:      -7.4      1.710      2.291
REMARK  Name = 
REMARK  11 active torsions:
REMARK  status: ('A' for Active; 'I' for Inactive)
REMARK    1  A    between atoms: C_1  and  C_2
REMARK    2  A    between atoms: C_2  and  S_3
REMARK    3  A    between atoms: S_3  and  C_4
REMARK    4  A    between atoms: C_4  and  C_28
REMARK    5  A    between atoms: N_5  and  O_6
REMARK    6  A    between atoms: O_6  and  C_7
REMARK    7  A    between atoms: C_7  and  C_8
REMARK    8  A    between atoms: C_11  and  N_12
REMARK    9  A    between atoms: C_16  and  C_18
REMARK   10  A    between atoms: C_28  and  C_29
REMARK   11  A    between atoms: C_28  and  C_30
REMARK                            x       y       z     vdW  Elec       q    Type
REMARK                         _______ _______ _______ _____ _____    ______ ____
ROOT
ATOM      1  C   UNL     1       2.278   7.542  18.909  0.00  0.00    +0.000 A 
ATOM      2  C   UNL     1       1.821   8.699  18.267  0.00  0.00    +0.000 A 
ATOM      3  C   UNL     1       1.090   9.668  18.953  0.00  0.00    +0.000 A 
ATOM      4  C   UNL     1       0.785   9.496  20.299  0.00  0.00    +0.000 A 
ATOM      5  C   UNL     1       1.242   8.349  20.959  0.00  0.00    +0.000 A 
ATOM      6  C   UNL     1       1.966   7.370  20.267  0.00  0.00    +0.000 A 
ENDROOT
BRANCH   4   7
ATOM      7  N   UNL     1       0.037  10.429  21.035  0.00  0.00    +0.000 N 
ATOM      8  C   UNL     1      -0.072  10.529  22.398  0.00  0.00    +0.000 C 
ATOM      9  O   UNL     1       0.489   9.832  23.239  0.00  0.00    +0.000 OA
ATOM     10  N   UNL     1      -0.905  11.530  22.847  0.00  0.00    +0.000 N 
ATOM     11  C   UNL     1      -1.704  12.378  22.098  0.00  0.00    +0.000 C 
ATOM     12  O   UNL     1      -1.618  12.438  20.871  0.00  0.00    +0.000 OA
ATOM     13  H   UNL     1      -0.425  11.169  20.510  0.00  0.00    +0.000 HD
ATOM     14  H   UNL     1      -0.961  11.547  23.858  0.00  0.00    +0.000 HD
BRANCH  11  15
ATOM     15  C   UNL     1      -2.669  13.234  22.829  0.00  0.00    +0.000 A 
ATOM     16  C   UNL     1      -4.046  13.171  22.618  0.00  0.00    +0.000 A 
ATOM     17  F   UNL     1      -4.569  12.286  21.754  0.00  0.00    +0.000 F 
ATOM     18  C   UNL     1      -4.924  14.022  23.291  0.00  0.00    +0.000 A 
ATOM     19  C   UNL     1      -4.431  14.957  24.194  0.00  0.00    +0.000 A 
ATOM     20  C   UNL     1      -3.060  15.024  24.430  0.00  0.00    +0.000 A 
ATOM     21  C   UNL     1      -2.189  14.168  23.754  0.00  0.00    +0.000 A 
ATOM     22  F   UNL     1      -0.883  14.289  24.017  0.00  0.00    +0.000 F 
ENDBRANCH  11  15
ENDBRANCH   4   7
BRANCH   1  23
ATOM     23  C   UNL     1       3.026   6.479  18.142  0.00  0.00    +0.000 C 
BRANCH  23  24
ATOM     24  O   UNL     1       4.230   6.996  17.556  0.00  0.00    +0.000 OA
BRANCH  24  26
ATOM     25  C   UNL     1       6.133   5.898  17.108  0.00  0.00    +0.000 C 
ATOM     26  N   UNL     1       4.878   6.003  16.796  0.00  0.00    +0.000 NA
BRANCH  25  27
ATOM     27  C   UNL     1       6.912   6.687  18.163  0.00  0.00    +0.000 C 
ATOM     28  C   UNL     1       7.763   5.791  19.062  0.00  0.00    +0.000 C 
ATOM     29  C   UNL     1       7.740   7.806  17.533  0.00  0.00    +0.000 C 
ENDBRANCH  25  27
BRANCH  25  30
ATOM     30  S   UNL     1       7.077   4.646  16.291  0.00  0.00    +0.000 S 
BRANCH  30  32
ATOM     31  C   UNL     1       6.079   3.903  13.863  0.00  0.00    +0.000 C 
ATOM     32  C   UNL     1       6.774   5.072  14.551  0.00  0.00    +0.000 C 
ENDBRANCH  30  32
ENDBRANCH  25  30
ENDBRANCH  24  26
ENDBRANCH  23  24
ENDBRANCH   1  23
TORSDOF 8
ENDMDL
MODEL 3
REMARK VINA RESULT:      -7.3      1.639      1.996
REMARK  Name = 
REMARK  11 active torsions:
REMARK  status: ('A' for Active; 'I' for Inactive)
REMARK    1  A    between atoms: C_1  and  C_2
REMARK    2  A    between atoms: C_2  and  S_3
REMARK    3  A    between atoms: S_3  and  C_4
REMARK    4  A    between atoms: C_4  and  C_28
REMARK    5  A    between atoms: N_5  and  O_6
REMARK    6  A    between atoms: O_6  and  C_7
REMARK    7  A    between atoms: C_7  and  C_8
REMARK    8  A    between atoms: C_11  and  N_12
REMARK    9  A    between atoms: C_16  and  C_18
REMARK   10  A    between atoms: C_28  and  C_29
REMARK   11  A    between atoms: C_28  and  C_30
REMARK                            x       y       z     vdW  Elec       q    Type
REMARK                         _______ _______ _______ _____ _____    ______ ____
ROOT
ATOM      1  C   UNL     1       2.324   7.209  19.062  0.00  0.00    +0.000 A 
ATOM      2  C   UNL     1       1.909   6.960  20.375  0.00  0.00    +0.000 A 
ATOM      3  C   UNL     1       1.158   7.894  21.088  0.00  0.00    +0.000 A 
ATOM      4  C   UNL     1       0.815   9.110  20.508  0.00  0.00    +0.000 A 
ATOM      5  C   UNL     1       1.214   9.373  19.192  0.00  0.00    +0.000 A 
ATOM      6  C   UNL     1       1.978   8.439  18.479  0.00  0.00    +0.000 A 
ENDROOT
BRANCH   4   7
ATOM      7  N   UNL     1       0.078  10.095  21.184  0.00  0.00    +0.000 N 
ATOM      8  C   UNL     1      -0.249  10.131  22.515  0.00  0.00    +0.000 C 
ATOM      9  O   UNL     1       0.066   9.315  23.378  0.00  0.00    +0.000 OA
ATOM     10  N   UNL     1      -1.012  11.211  22.902  0.00  0.00    +0.000 N 
ATOM     11  C   UNL     1      -1.555  12.204  22.104  0.00  0.00    +0.000 C 
ATOM     12  O   UNL     1      -1.253  12.321  20.916  0.00  0.00    +0.000 OA
ATOM     13  H   UNL     1      -0.189  10.921  20.652  0.00  0.00    +0.000 HD
ATOM     14  H   UNL     1      -1.237  11.177  23.888  0.00  0.00    +0.000 HD
BRANCH  11  15
ATOM     15  C   UNL     1      -2.513  13.143  22.735  0.00  0.00    +0.000 A 
ATOM     16  C   UNL     1      -2.130  14.089  23.685  0.00  0.00    +0.000 A 
ATOM     17  F   UNL     1      -0.843  14.216  24.049  0.00  0.00    +0.000 F 
ATOM     18  C   UNL     1      -3.064  14.929  24.293  0.00  0.00    +0.000 A 
ATOM     19  C   UNL     1      -4.409  14.834  23.952  0.00  0.00    +0.000 A 
ATOM     20  C   UNL     1      -4.808  13.907  22.993  0.00  0.00    +0.000 A 
ATOM     21  C   UNL     1      -3.867  13.072  22.389  0.00  0.00    +0.000 A 
ATOM     22  F   UNL     1      -4.316  12.196  21.483  0.00  0.00    +0.000 F 
ENDBRANCH  11  15
ENDBRANCH   4   7
BRANCH   1  23
ATOM     23  C   UNL     1       3.177   6.210  18.319  0.00  0.00    +0.000 C 
BRANCH  23  24
ATOM     24  O   UNL     1       4.204   6.855  17.552  0.00  0.00    +0.000 OA
BRANCH  24  26
ATOM     25  C   UNL     1       6.143   5.851  17.039  0.00  0.00    +0.000 C 
ATOM     26  N   UNL     1       4.881   5.920  16.745  0.00  0.00    +0.000 NA
BRANCH  25  27
ATOM     27  C   UNL     1       6.903   6.626  18.119  0.00  0.00    +0.000 C 
ATOM     28  C   UNL     1       7.753   5.720  19.008  0.00  0.00    +0.000 C 
ATOM     29  C   UNL     1       7.727   7.765  17.520  0.00  0.00    +0.000 C 
ENDBRANCH  25  27
BRANCH  25  30
ATOM     30  S   UNL     1       7.125   4.672  16.161  0.00  0.00    +0.000 S 
BRANCH  30  32
ATOM     31  C   UNL     1       6.015   3.875  13.800  0.00  0.00    +0.000 C 
ATOM     32  C   UNL     1       6.692   5.078  14.444  0.00  0.00    +0.000 C 
ENDBRANCH  30  32
ENDBRANCH  25  30
ENDBRANCH  24  26
ENDBRANCH  23  24
ENDBRANCH   1  23
TORSDOF 8
ENDMDL
MODEL 4
REMARK VINA RESULT:      -7.3      2.460      3.366
REMARK  Name = 
REMARK  11 active torsions:
REMARK  status: ('A' for Active; 'I' for Inactive)
REMARK    1  A    between atoms: C_1  and  C_2
REMARK    2  A    between atoms: C_2  and  S_3
REMARK    3  A    between atoms: S_3  and  C_4
REMARK    4  A    between atoms: C_4  and  C_28
REMARK    5  A    between atoms: N_5  and  O_6
REMARK    6  A    between atoms: O_6  and  C_7
REMARK    7  A    between atoms: C_7  and  C_8
REMARK    8  A    between atoms: C_11  and  N_12
REMARK    9  A    between atoms: C_16  and  C_18
REMARK   10  A    between atoms: C_28  and  C_29
REMARK   11  A    between atoms: C_28  and  C_30
REMARK                            x       y       z     vdW  Elec       q    Type
REMARK                         _______ _______ _______ _____ _____    ______ ____
ROOT
ATOM      1  C   UNL     1       2.357   5.694  18.855  0.00  0.00    +0.000 A 
ATOM      2  C   UNL     1       2.031   6.136  20.142  0.00  0.00    +0.000 A 
ATOM      3  C   UNL     1       1.735   7.475  20.397  0.00  0.00    +0.000 A 
ATOM      4  C   UNL     1       1.773   8.410  19.368  0.00  0.00    +0.000 A 
ATOM      5  C   UNL     1       2.088   7.984  18.072  0.00  0.00    +0.000 A 
ATOM      6  C   UNL     1       2.396   6.641  17.819  0.00  0.00    +0.000 A 
ENDROOT
BRANCH   4   7
ATOM      7  N   UNL     1       1.503   9.773  19.569  0.00  0.00    +0.000 N 
ATOM      8  C   UNL     1       0.434  10.329  20.223  0.00  0.00    +0.000 C 
ATOM      9  O   UNL     1      -0.483   9.733  20.782  0.00  0.00    +0.000 OA
ATOM     10  N   UNL     1       0.410  11.706  20.243  0.00  0.00    +0.000 N 
ATOM     11  C   UNL     1       1.278  12.585  19.616  0.00  0.00    +0.000 C 
ATOM     12  O   UNL     1       2.318  12.202  19.081  0.00  0.00    +0.000 OA
ATOM     13  H   UNL     1       2.214  10.436  19.264  0.00  0.00    +0.000 HD
ATOM     14  H   UNL     1      -0.408  12.061  20.722  0.00  0.00    +0.000 HD
BRANCH  11  15
ATOM     15  C   UNL     1       0.917  14.023  19.619  0.00  0.00    +0.000 A 
ATOM     16  C   UNL     1       1.500  14.947  20.487  0.00  0.00    +0.000 A 
ATOM     17  F   UNL     1       2.460  14.569  21.349  0.00  0.00    +0.000 F 
ATOM     18  C   UNL     1       1.107  16.285  20.496  0.00  0.00    +0.000 A 
ATOM     19  C   UNL     1       0.116  16.724  19.624  0.00  0.00    +0.000 A 
ATOM     20  C   UNL     1      -0.466  15.820  18.739  0.00  0.00    +0.000 A 
ATOM     21  C   UNL     1      -0.066  14.483  18.736  0.00  0.00    +0.000 A 
ATOM     22  F   UNL     1      -0.670  13.663  17.868  0.00  0.00    +0.000 F 
ENDBRANCH  11  15
ENDBRANCH   4   7
BRANCH   1  23
ATOM     23  C   UNL     1       2.722   4.251  18.604  0.00  0.00    +0.000 C 
BRANCH  23  24
ATOM     24  O   UNL     1       3.657   4.121  17.523  0.00  0.00    +0.000 OA
BRANCH  24  26
ATOM     25  C   UNL     1       5.820   4.519  17.086  0.00  0.00    +0.000 C 
ATOM     26  N   UNL     1       4.980   4.156  18.006  0.00  0.00    +0.000 NA
BRANCH  25  27
ATOM     27  C   UNL     1       5.523   4.900  15.634  0.00  0.00    +0.000 C 
ATOM     28  C   UNL     1       5.166   6.377  15.472  0.00  0.00    +0.000 C 
ATOM     29  C   UNL     1       6.657   4.486  14.699  0.00  0.00    +0.000 C 
ENDBRANCH  25  27
BRANCH  25  30
ATOM     30  S   UNL     1       7.520   4.680  17.548  0.00  0.00    +0.000 S 
BRANCH  30  32
ATOM     31  C   UNL     1       7.686   7.397  17.729  0.00  0.00    +0.000 C 
ATOM     32  C   UNL     1       7.449   6.165  18.592  0.00  0.00    +0.000 C 
ENDBRANCH  30  32
ENDBRANCH  25  30
ENDBRANCH  24  26
ENDBRANCH  23  24
ENDBRANCH   1  23
TORSDOF 8
ENDMDL
MODEL 5
REMARK VINA RESULT:      -7.2      1.833      2.874
REMARK  Name = 
REMARK  11 active torsions:
REMARK  status: ('A' for Active; 'I' for Inactive)
REMARK    1  A    between atoms: C_1  and  C_2
REMARK    2  A    between atoms: C_2  and  S_3
REMARK    3  A    between atoms: S_3  and  C_4
REMARK    4  A    between atoms: C_4  and  C_28
REMARK    5  A    between atoms: N_5  and  O_6
REMARK    6  A    between atoms: O_6  and  C_7
REMARK    7  A    between atoms: C_7  and  C_8
REMARK    8  A    between atoms: C_11  and  N_12
REMARK    9  A    between atoms: C_16  and  C_18
REMARK   10  A    between atoms: C_28  and  C_29
REMARK   11  A    between atoms: C_28  and  C_30
REMARK                            x       y       z     vdW  Elec       q    Type
REMARK                         _______ _______ _______ _____ _____    ______ ____
ROOT
ATOM      1  C   UNL     1       2.477   7.820  18.363  0.00  0.00    +0.000 A 
ATOM      2  C   UNL     1       2.018   9.020  17.806  0.00  0.00    +0.000 A 
ATOM      3  C   UNL     1       1.235   9.908  18.542  0.00  0.00    +0.000 A 
ATOM      4  C   UNL     1       0.878   9.610  19.853  0.00  0.00    +0.000 A 
ATOM      5  C   UNL     1       1.336   8.419  20.428  0.00  0.00    +0.000 A 
ATOM      6  C   UNL     1       2.114   7.521  19.685  0.00  0.00    +0.000 A 
ENDROOT
BRANCH   4   7
ATOM      7  N   UNL     1       0.077  10.457  20.634  0.00  0.00    +0.000 N 
ATOM      8  C   UNL     1      -1.000  11.203  20.228  0.00  0.00    +0.000 C 
ATOM      9  O   UNL     1      -1.484  11.251  19.101  0.00  0.00    +0.000 OA
ATOM     10  N   UNL     1      -1.584  11.971  21.211  0.00  0.00    +0.000 N 
ATOM     11  C   UNL     1      -1.168  12.146  22.520  0.00  0.00    +0.000 C 
ATOM     12  O   UNL     1      -0.274  11.460  23.016  0.00  0.00    +0.000 OA
ATOM     13  H   UNL     1       0.259  10.472  21.636  0.00  0.00    +0.000 HD
ATOM     14  H   UNL     1      -2.361  12.513  20.852  0.00  0.00    +0.000 HD
BRANCH  11  15
ATOM     15  C   UNL     1      -1.851  13.189  23.323  0.00  0.00    +0.000 A 
ATOM     16  C   UNL     1      -3.116  13.006  23.882  0.00  0.00    +0.000 A 
ATOM     17  F   UNL     1      -3.765  11.838  23.745  0.00  0.00    +0.000 F 
ATOM     18  C   UNL     1      -3.750  14.024  24.595  0.00  0.00    +0.000 A 
ATOM     19  C   UNL     1      -3.119  15.252  24.763  0.00  0.00    +0.000 A 
ATOM     20  C   UNL     1      -1.849  15.448  24.226  0.00  0.00    +0.000 A 
ATOM     21  C   UNL     1      -1.221  14.424  23.515  0.00  0.00    +0.000 A 
ATOM     22  F   UNL     1      -0.006  14.679  23.016  0.00  0.00    +0.000 F 
ENDBRANCH  11  15
ENDBRANCH   4   7
BRANCH   1  23
ATOM     23  C   UNL     1       3.284   6.846  17.538  0.00  0.00    +0.000 C 
BRANCH  23  24
ATOM     24  O   UNL     1       4.586   7.364  17.230  0.00  0.00    +0.000 OA
BRANCH  24  26
ATOM     25  C   UNL     1       6.122   5.734  17.110  0.00  0.00    +0.000 C 
ATOM     26  N   UNL     1       5.299   6.461  16.418  0.00  0.00    +0.000 NA
BRANCH  25  27
ATOM     27  C   UNL     1       6.357   5.756  18.623  0.00  0.00    +0.000 C 
ATOM     28  C   UNL     1       5.599   4.650  19.355  0.00  0.00    +0.000 C 
ATOM     29  C   UNL     1       7.846   5.742  18.961  0.00  0.00    +0.000 C 
ENDBRANCH  25  27
BRANCH  25  30
ATOM     30  S   UNL     1       7.047   4.498  16.248  0.00  0.00    +0.000 S 
BRANCH  30  32
ATOM     31  C   UNL     1       6.158   3.948  13.728  0.00  0.00    +0.000 C 
ATOM     32  C   UNL     1       5.756   3.784  15.188  0.00  0.00    +0.000 C 
ENDBRANCH  30  32
ENDBRANCH  25  30
ENDBRANCH  24  26
ENDBRANCH  23  24
ENDBRANCH   1  23
TORSDOF 8
ENDMDL
MODEL 6
REMARK VINA RESULT:      -7.2      2.802      3.916
REMARK  Name = 
REMARK  11 active torsions:
REMARK  status: ('A' for Active; 'I' for Inactive)
REMARK    1  A    between atoms: C_1  and  C_2
REMARK    2  A    between atoms: C_2  and  S_3
REMARK    3  A    between atoms: S_3  and  C_4
REMARK    4  A    between atoms: C_4  and  C_28
REMARK    5  A    between atoms: N_5  and  O_6
REMARK    6  A    between atoms: O_6  and  C_7
REMARK    7  A    between atoms: C_7  and  C_8
REMARK    8  A    between atoms: C_11  and  N_12
REMARK    9  A    between atoms: C_16  and  C_18
REMARK   10  A    between atoms: C_28  and  C_29
REMARK   11  A    between atoms: C_28  and  C_30
REMARK                            x       y       z     vdW  Elec       q    Type
REMARK                         _______ _______ _______ _____ _____    ______ ____
ROOT
ATOM      1  C   UNL     1       2.230   7.725  19.195  0.00  0.00    +0.000 A 
ATOM      2  C   UNL     1       1.771   8.789  18.410  0.00  0.00    +0.000 A 
ATOM      3  C   UNL     1       0.892   9.743  18.923  0.00  0.00    +0.000 A 
ATOM      4  C   UNL     1       0.437   9.646  20.233  0.00  0.00    +0.000 A 
ATOM      5  C   UNL     1       0.892   8.593  21.036  0.00  0.00    +0.000 A 
ATOM      6  C   UNL     1       1.767   7.628  20.518  0.00  0.00    +0.000 A 
ENDROOT
BRANCH   4   7
ATOM      7  N   UNL     1      -0.462  10.565  20.796  0.00  0.00    +0.000 N 
ATOM      8  C   UNL     1      -1.052  11.642  20.186  0.00  0.00    +0.000 C 
ATOM      9  O   UNL     1      -0.924  11.992  19.016  0.00  0.00    +0.000 OA
ATOM     10  N   UNL     1      -1.876  12.394  20.994  0.00  0.00    +0.000 N 
ATOM     11  C   UNL     1      -2.108  12.248  22.351  0.00  0.00    +0.000 C 
ATOM     12  O   UNL     1      -1.705  11.268  22.978  0.00  0.00    +0.000 OA
ATOM     13  H   UNL     1      -0.780  10.380  21.746  0.00  0.00    +0.000 HD
ATOM     14  H   UNL     1      -2.270  13.184  20.497  0.00  0.00    +0.000 HD
BRANCH  11  15
ATOM     15  C   UNL     1      -2.878  13.315  23.034  0.00  0.00    +0.000 A 
ATOM     16  C   UNL     1      -2.289  14.240  23.897  0.00  0.00    +0.000 A 
ATOM     17  F   UNL     1      -0.964  14.224  24.120  0.00  0.00    +0.000 F 
ATOM     18  C   UNL     1      -3.049  15.204  24.558  0.00  0.00    +0.000 A 
ATOM     19  C   UNL     1      -4.425  15.259  24.361  0.00  0.00    +0.000 A 
ATOM     20  C   UNL     1      -5.029  14.356  23.491  0.00  0.00    +0.000 A 
ATOM     21  C   UNL     1      -4.261  13.394  22.833  0.00  0.00    +0.000 A 
ATOM     22  F   UNL     1      -4.902  12.549  22.018  0.00  0.00    +0.000 F 
ENDBRANCH  11  15
ENDBRANCH   4   7
BRANCH   1  23
ATOM     23  C   UNL     1       3.143   6.674  18.612  0.00  0.00    +0.000 C 
BRANCH  23  24
ATOM     24  O   UNL     1       3.801   5.915  19.638  0.00  0.00    +0.000 OA
BRANCH  24  26
ATOM     25  C   UNL     1       3.428   3.706  19.738  0.00  0.00    +0.000 C 
ATOM     26  N   UNL     1       4.136   4.631  19.166  0.00  0.00    +0.000 NA
BRANCH  25  27
ATOM     27  C   UNL     1       2.329   3.874  20.791  0.00  0.00    +0.000 C 
ATOM     28  C   UNL     1       0.950   4.096  20.173  0.00  0.00    +0.000 C 
ATOM     29  C   UNL     1       2.323   2.718  21.788  0.00  0.00    +0.000 C 
ENDBRANCH  25  27
BRANCH  25  30
ATOM     30  S   UNL     1       3.679   2.038  19.207  0.00  0.00    +0.000 S 
BRANCH  30  32
ATOM     31  C   UNL     1       2.592   3.254  17.021  0.00  0.00    +0.000 C 
ATOM     32  C   UNL     1       2.527   1.950  17.806  0.00  0.00    +0.000 C 
ENDBRANCH  30  32
ENDBRANCH  25  30
ENDBRANCH  24  26
ENDBRANCH  23  24
ENDBRANCH   1  23
TORSDOF 8
ENDMDL
MODEL 7
REMARK VINA RESULT:      -7.1      4.811     11.051
REMARK  Name = 
REMARK  11 active torsions:
REMARK  status: ('A' for Active; 'I' for Inactive)
REMARK    1  A    between atoms: C_1  and  C_2
REMARK    2  A    between atoms: C_2  and  S_3
REMARK    3  A    between atoms: S_3  and  C_4
REMARK    4  A    between atoms: C_4  and  C_28
REMARK    5  A    between atoms: N_5  and  O_6
REMARK    6  A    between atoms: O_6  and  C_7
REMARK    7  A    between atoms: C_7  and  C_8
REMARK    8  A    between atoms: C_11  and  N_12
REMARK    9  A    between atoms: C_16  and  C_18
REMARK   10  A    between atoms: C_28  and  C_29
REMARK   11  A    between atoms: C_28  and  C_30
REMARK                            x       y       z     vdW  Elec       q    Type
REMARK                         _______ _______ _______ _____ _____    ______ ____
ROOT
ATOM      1  C   UNL     1      -1.382  12.277  20.847  0.00  0.00    +0.000 A 
ATOM      2  C   UNL     1      -1.752  11.585  19.688  0.00  0.00    +0.000 A 
ATOM      3  C   UNL     1      -0.941  10.586  19.150  0.00  0.00    +0.000 A 
ATOM      4  C   UNL     1       0.270  10.264  19.752  0.00  0.00    +0.000 A 
ATOM      5  C   UNL     1       0.651  10.939  20.917  0.00  0.00    +0.000 A 
ATOM      6  C   UNL     1      -0.157  11.951  21.452  0.00  0.00    +0.000 A 
ENDROOT
BRANCH   4   7
ATOM      7  N   UNL     1       1.134   9.282  19.244  0.00  0.00    +0.000 N 
ATOM      8  C   UNL     1       1.900   9.343  18.108  0.00  0.00    +0.000 C 
ATOM      9  O   UNL     1       1.993  10.288  17.329  0.00  0.00    +0.000 OA
ATOM     10  N   UNL     1       2.636   8.212  17.835  0.00  0.00    +0.000 N 
ATOM     11  C   UNL     1       2.629   7.004  18.513  0.00  0.00    +0.000 C 
ATOM     12  O   UNL     1       2.054   6.866  19.592  0.00  0.00    +0.000 OA
ATOM     13  H   UNL     1       1.276   8.449  19.815  0.00  0.00    +0.000 HD
ATOM     14  H   UNL     1       3.167   8.307  16.978  0.00  0.00    +0.000 HD
BRANCH  11  15
ATOM     15  C   UNL     1       3.359   5.869  17.897  0.00  0.00    +0.000 A 
ATOM     16  C   UNL     1       2.775   4.619  17.686  0.00  0.00    +0.000 A 
ATOM     17  F   UNL     1       1.488   4.400  18.004  0.00  0.00    +0.000 F 
ATOM     18  C   UNL     1       3.502   3.559  17.144  0.00  0.00    +0.000 A 
ATOM     19  C   UNL     1       4.838   3.737  16.801  0.00  0.00    +0.000 A 
ATOM     20  C   UNL     1       5.434   4.981  16.988  0.00  0.00    +0.000 A 
ATOM     21  C   UNL     1       4.698   6.037  17.529  0.00  0.00    +0.000 A 
ATOM     22  F   UNL     1       5.331   7.204  17.694  0.00  0.00    +0.000 F 
ENDBRANCH  11  15
ENDBRANCH   4   7
BRANCH   1  23
ATOM     23  C   UNL     1      -2.246  13.389  21.391  0.00  0.00    +0.000 C 
BRANCH  23  24
ATOM     24  O   UNL     1      -3.410  13.601  20.578  0.00  0.00    +0.000 OA
BRANCH  24  26
ATOM     25  C   UNL     1      -5.437  12.657  20.413  0.00  0.00    +0.000 C 
ATOM     26  N   UNL     1      -4.567  13.148  21.241  0.00  0.00    +0.000 NA
BRANCH  25  27
ATOM     27  C   UNL     1      -5.320  12.520  18.893  0.00  0.00    +0.000 C 
ATOM     28  C   UNL     1      -5.289  11.064  18.431  0.00  0.00    +0.000 C 
ATOM     29  C   UNL     1      -6.402  13.320  18.170  0.00  0.00    +0.000 C 
ENDBRANCH  25  27
BRANCH  25  30
ATOM     30  S   UNL     1      -6.922  11.979  21.093  0.00  0.00    +0.000 S 
BRANCH  30  32
ATOM     31  C   UNL     1      -7.347  12.402  23.754  0.00  0.00    +0.000 C 
ATOM     32  C   UNL     1      -7.251  13.158  22.435  0.00  0.00    +0.000 C 
ENDBRANCH  30  32
ENDBRANCH  25  30
ENDBRANCH  24  26
ENDBRANCH  23  24
ENDBRANCH   1  23
TORSDOF 8
ENDMDL
MODEL 8
REMARK VINA RESULT:      -7.1      4.818     11.177
REMARK  Name = 
REMARK  11 active torsions:
REMARK  status: ('A' for Active; 'I' for Inactive)
REMARK    1  A    between atoms: C_1  and  C_2
REMARK    2  A    between atoms: C_2  and  S_3
REMARK    3  A    between atoms: S_3  and  C_4
REMARK    4  A    between atoms: C_4  and  C_28
REMARK    5  A    between atoms: N_5  and  O_6
REMARK    6  A    between atoms: O_6  and  C_7
REMARK    7  A    between atoms: C_7  and  C_8
REMARK    8  A    between atoms: C_11  and  N_12
REMARK    9  A    between atoms: C_16  and  C_18
REMARK   10  A    between atoms: C_28  and  C_29
REMARK   11  A    between atoms: C_28  and  C_30
REMARK                            x       y       z     vdW  Elec       q    Type
REMARK                         _______ _______ _______ _____ _____    ______ ____
ROOT
ATOM      1  C   UNL     1      -0.890  12.714  20.029  0.00  0.00    +0.000 A 
ATOM      2  C   UNL     1       0.421  12.566  20.497  0.00  0.00    +0.000 A 
ATOM      3  C   UNL     1       1.161  11.414  20.231  0.00  0.00    +0.000 A 
ATOM      4  C   UNL     1       0.600  10.373  19.498  0.00  0.00    +0.000 A 
ATOM      5  C   UNL     1      -0.706  10.508  19.015  0.00  0.00    +0.000 A 
ATOM      6  C   UNL     1      -1.454  11.660  19.292  0.00  0.00    +0.000 A 
ENDROOT
BRANCH   4   7
ATOM      7  N   UNL     1       1.291   9.184  19.216  0.00  0.00    +0.000 N 
ATOM      8  C   UNL     1       2.043   8.894  18.107  0.00  0.00    +0.000 C 
ATOM      9  O   UNL     1       2.277   9.636  17.156  0.00  0.00    +0.000 OA
ATOM     10  N   UNL     1       2.586   7.629  18.081  0.00  0.00    +0.000 N 
ATOM     11  C   UNL     1       2.395   6.598  18.987  0.00  0.00    +0.000 C 
ATOM     12  O   UNL     1       1.817   6.773  20.060  0.00  0.00    +0.000 OA
ATOM     13  H   UNL     1       1.305   8.472  19.944  0.00  0.00    +0.000 HD
ATOM     14  H   UNL     1       3.116   7.464  17.234  0.00  0.00    +0.000 HD
BRANCH  11  15
ATOM     15  C   UNL     1       2.927   5.262  18.626  0.00  0.00    +0.000 A 
ATOM     16  C   UNL     1       4.176   4.806  19.048  0.00  0.00    +0.000 A 
ATOM     17  F   UNL     1       4.949   5.561  19.847  0.00  0.00    +0.000 F 
ATOM     18  C   UNL     1       4.666   3.560  18.655  0.00  0.00    +0.000 A 
ATOM     19  C   UNL     1       3.904   2.744  17.827  0.00  0.00    +0.000 A 
ATOM     20  C   UNL     1       2.648   3.174  17.409  0.00  0.00    +0.000 A 
ATOM     21  C   UNL     1       2.164   4.421  17.808  0.00  0.00    +0.000 A 
ATOM     22  F   UNL     1       0.954   4.781  17.365  0.00  0.00    +0.000 F 
ENDBRANCH  11  15
ENDBRANCH   4   7
BRANCH   1  23
ATOM     23  C   UNL     1      -1.695  13.945  20.367  0.00  0.00    +0.000 C 
BRANCH  23  24
ATOM     24  O   UNL     1      -2.766  13.646  21.273  0.00  0.00    +0.000 OA
BRANCH  24  26
ATOM     25  C   UNL     1      -3.798  14.397  23.117  0.00  0.00    +0.000 C 
ATOM     26  N   UNL     1      -2.973  14.714  22.167  0.00  0.00    +0.000 NA
BRANCH  25  27
ATOM     27  C   UNL     1      -4.501  13.057  23.347  0.00  0.00    +0.000 C 
ATOM     28  C   UNL     1      -4.064  12.375  24.643  0.00  0.00    +0.000 C 
ATOM     29  C   UNL     1      -6.020  13.197  23.267  0.00  0.00    +0.000 C 
ENDBRANCH  25  27
BRANCH  25  30
ATOM     30  S   UNL     1      -4.113  15.609  24.366  0.00  0.00    +0.000 S 
BRANCH  30  32
ATOM     31  C   UNL     1      -1.907  15.435  25.960  0.00  0.00    +0.000 C 
ATOM     32  C   UNL     1      -2.424  16.170  24.730  0.00  0.00    +0.000 C 
ENDBRANCH  30  32
ENDBRANCH  25  30
ENDBRANCH  24  26
ENDBRANCH  23  24
ENDBRANCH   1  23
TORSDOF 8
ENDMDL
MODEL 9
REMARK VINA RESULT:      -7.1      4.849     11.407
REMARK  Name = 
REMARK  11 active torsions:
REMARK  status: ('A' for Active; 'I' for Inactive)
REMARK    1  A    between atoms: C_1  and  C_2
REMARK    2  A    between atoms: C_2  and  S_3
REMARK    3  A    between atoms: S_3  and  C_4
REMARK    4  A    between atoms: C_4  and  C_28
REMARK    5  A    between atoms: N_5  and  O_6
REMARK    6  A    between atoms: O_6  and  C_7
REMARK    7  A    between atoms: C_7  and  C_8
REMARK    8  A    between atoms: C_11  and  N_12
REMARK    9  A    between atoms: C_16  and  C_18
REMARK   10  A    between atoms: C_28  and  C_29
REMARK   11  A    between atoms: C_28  and  C_30
REMARK                            x       y       z     vdW  Elec       q    Type
REMARK                         _______ _______ _______ _____ _____    ______ ____
ROOT
ATOM      1  C   UNL     1      -1.119  12.518  20.536  0.00  0.00    +0.000 A 
ATOM      2  C   UNL     1       0.020  12.174  21.272  0.00  0.00    +0.000 A 
ATOM      3  C   UNL     1       0.795  11.065  20.935  0.00  0.00    +0.000 A 
ATOM      4  C   UNL     1       0.439  10.262  19.856  0.00  0.00    +0.000 A 
ATOM      5  C   UNL     1      -0.692  10.596  19.102  0.00  0.00    +0.000 A 
ATOM      6  C   UNL     1      -1.477  11.704  19.449  0.00  0.00    +0.000 A 
ENDROOT
BRANCH   4   7
ATOM      7  N   UNL     1       1.170   9.123  19.482  0.00  0.00    +0.000 N 
ATOM      8  C   UNL     1       1.872   8.920  18.321  0.00  0.00    +0.000 C 
ATOM      9  O   UNL     1       2.014   9.713  17.394  0.00  0.00    +0.000 OA
ATOM     10  N   UNL     1       2.474   7.687  18.209  0.00  0.00    +0.000 N 
ATOM     11  C   UNL     1       2.386   6.610  19.075  0.00  0.00    +0.000 C 
ATOM     12  O   UNL     1       1.862   6.709  20.185  0.00  0.00    +0.000 OA
ATOM     13  H   UNL     1       1.261   8.382  20.175  0.00  0.00    +0.000 HD
ATOM     14  H   UNL     1       2.962   7.586  17.327  0.00  0.00    +0.000 HD
BRANCH  11  15
ATOM     15  C   UNL     1       2.961   5.320  18.625  0.00  0.00    +0.000 A 
ATOM     16  C   UNL     1       4.235   4.889  18.997  0.00  0.00    +0.000 A 
ATOM     17  F   UNL     1       4.994   5.624  19.827  0.00  0.00    +0.000 F 
ATOM     18  C   UNL     1       4.765   3.689  18.521  0.00  0.00    +0.000 A 
ATOM     19  C   UNL     1       4.019   2.894  17.658  0.00  0.00    +0.000 A 
ATOM     20  C   UNL     1       2.739   3.299  17.288  0.00  0.00    +0.000 A 
ATOM     21  C   UNL     1       2.216   4.500  17.770  0.00  0.00    +0.000 A 
ATOM     22  F   UNL     1       0.984   4.838  17.370  0.00  0.00    +0.000 F 
ENDBRANCH  11  15
ENDBRANCH   4   7
BRANCH   1  23
ATOM     23  C   UNL     1      -1.975  13.693  20.942  0.00  0.00    +0.000 C 
BRANCH  23  24
ATOM     24  O   UNL     1      -3.230  13.269  21.494  0.00  0.00    +0.000 OA
BRANCH  24  26
ATOM     25  C   UNL     1      -4.939  14.136  22.659  0.00  0.00    +0.000 C 
ATOM     26  N   UNL     1      -4.068  14.376  21.727  0.00  0.00    +0.000 NA
BRANCH  25  27
ATOM     27  C   UNL     1      -5.113  12.855  23.479  0.00  0.00    +0.000 C 
ATOM     28  C   UNL     1      -4.074  12.721  24.593  0.00  0.00    +0.000 C 
ATOM     29  C   UNL     1      -6.537  12.718  24.014  0.00  0.00    +0.000 C 
ENDBRANCH  25  27
BRANCH  25  30
ATOM     30  S   UNL     1      -6.027  15.451  23.122  0.00  0.00    +0.000 S 
BRANCH  30  32
ATOM     31  C   UNL     1      -4.258  17.417  23.790  0.00  0.00    +0.000 C 
ATOM     32  C   UNL     1      -5.042  16.268  24.411  0.00  0.00    +0.000 C 
ENDBRANCH  30  32
ENDBRANCH  25  30
ENDBRANCH  24  26
ENDBRANCH  23  24
ENDBRANCH   1  23
TORSDOF 8
ENDMDL
