MODEL 1
REMARK VINA RESULT:      -7.8      0.000      0.000
REMARK  Name = 
REMARK  10 active torsions:
REMARK  status: ('A' for Active; 'I' for Inactive)
REMARK    1  A    between atoms: C_1  and  C_2
REMARK    2  A    between atoms: C_2  and  O_3
REMARK    3  A    between atoms: O_3  and  C_4
REMARK    4  A    between atoms: C_4  and  C_6
REMARK    5  A    between atoms: N_10  and  C_11
REMARK    6  A    between atoms: C_11  and  C_12
REMARK    7  A    between atoms: N_14  and  C_15
REMARK    8  A    between atoms: C_16  and  C_17
REMARK    9  A    between atoms: C_17  and  O_19
REMARK   10  A    between atoms: O_19  and  C_20
REMARK                            x       y       z     vdW  Elec       q    Type
REMARK                         _______ _______ _______ _____ _____    ______ ____
ROOT
ATOM      1  C   UNL     1       3.859   6.707  17.046  0.00  0.00    +0.000 C 
ATOM      2  O   UNL     1       4.100   7.733  16.401  0.00  0.00    +0.000 OA
ATOM      3  N   UNL     1       4.554   5.515  16.903  0.00  0.00    +0.000 N 
ATOM      4  H   UNL     1       4.001   4.669  17.006  0.00  0.00    +0.000 HD
ENDROOT
BRANCH   3   5
ATOM      5  C   UNL     1       5.654   5.431  16.055  0.00  0.00    +0.000 A 
ATOM      6  C   UNL     1       6.886   5.978  16.361  0.00  0.00    +0.000 A 
ATOM      7  N   UNL     1       7.730   5.660  15.323  0.00  0.00    +0.000 N 
ATOM      8  C   UNL     1       7.069   4.971  14.337  0.00  0.00    +0.000 A 
ATOM      9  C   UNL     1       7.546   4.482  13.116  0.00  0.00    +0.000 A 
ATOM     10  C   UNL     1       6.631   3.835  12.280  0.00  0.00    +0.000 A 
ATOM     11  C   UNL     1       5.300   3.697  12.659  0.00  0.00    +0.000 A 
ATOM     12 CL   UNL     1       4.192   2.930  11.584  0.00  0.00    +0.000 Cl
ATOM     13  C   UNL     1       4.841   4.178  13.890  0.00  0.00    +0.000 A 
ATOM     14  C   UNL     1       5.749   4.818  14.762  0.00  0.00    +0.000 A 
ATOM     15  H   UNL     1       8.712   5.901  15.301  0.00  0.00    +0.000 HD
BRANCH   6  16
ATOM     16  C   UNL     1       7.307   6.673  17.551  0.00  0.00    +0.000 C 
ATOM     17  O   UNL     1       7.363   6.178  18.670  0.00  0.00    +0.000 OA
BRANCH  16  18
ATOM     18  O   UNL     1       7.629   7.954  17.232  0.00  0.00    +0.000 OA
ATOM     19  C   UNL     1       8.374   8.641  18.238  0.00  0.00    +0.000 C 
ENDBRANCH  16  18
ENDBRANCH   6  16
ENDBRANCH   3   5
BRANCH   1  20
ATOM     20  C   UNL     1       2.737   6.658  18.095  0.00  0.00    +0.000 C 
BRANCH  20  25
ATOM     21  C   UNL     1       1.873   3.952  20.703  0.00  0.00    +0.000 C 
ATOM     22  C   UNL     1       0.757   3.294  19.897  0.00  0.00    +0.000 C 
ATOM     23  C   UNL     1       1.136   3.225  18.425  0.00  0.00    +0.000 C 
ATOM     24  C   UNL     1       1.404   4.627  17.892  0.00  0.00    +0.000 C 
ATOM     25  N   UNL     1       2.493   5.291  18.625  0.00  0.00    +0.000 NA
ATOM     26  C   UNL     1       2.300   5.291  20.084  0.00  0.00    +0.000 C 
BRANCH  21  27
ATOM     27  C   UNL     1       2.953   2.934  21.011  0.00  0.00    +0.000 C 
ATOM     28  O   UNL     1       2.907   2.228  22.014  0.00  0.00    +0.000 OA
BRANCH  27  29
ATOM     29  O   UNL     1       3.986   2.941  20.132  0.00  0.00    +0.000 OA
BRANCH  29  31
ATOM     30  C   UNL     1       3.881   1.753  18.073  0.00  0.00    +0.000 C 
ATOM     31  C   UNL     1       4.272   1.665  19.538  0.00  0.00    +0.000 C 
ENDBRANCH  29  31
ENDBRANCH  27  29
ENDBRANCH  21  27
ENDBRANCH  20  25
ENDBRANCH   1  20
TORSDOF 8
ENDMDL
MODEL 2
REMARK VINA RESULT:      -7.6      4.063      5.943
REMARK  Name = 
REMARK  10 active torsions:
REMARK  status: ('A' for Active; 'I' for Inactive)
REMARK    1  A    between atoms: C_1  and  C_2
REMARK    2  A    between atoms: C_2  and  O_3
REMARK    3  A    between atoms: O_3  and  C_4
REMARK    4  A    between atoms: C_4  and  C_6
REMARK    5  A    between atoms: N_10  and  C_11
REMARK    6  A    between atoms: C_11  and  C_12
REMARK    7  A    between atoms: N_14  and  C_15
REMARK    8  A    between atoms: C_16  and  C_17
REMARK    9  A    between atoms: C_17  and  O_19
REMARK   10  A    between atoms: O_19  and  C_20
REMARK                            x       y       z     vdW  Elec       q    Type
REMARK                         _______ _______ _______ _____ _____    ______ ____
ROOT
ATOM      1  C   UNL     1       2.817   7.787  18.136  0.00  0.00    +0.000 C 
ATOM      2  O   UNL     1       2.606   7.386  19.285  0.00  0.00    +0.000 OA
ATOM      3  N   UNL     1       3.598   7.116  17.206  0.00  0.00    +0.000 N 
ATOM      4  H   UNL     1       4.143   7.704  16.584  0.00  0.00    +0.000 HD
ENDROOT
BRANCH   3   5
ATOM      5  C   UNL     1       4.137   5.867  17.500  0.00  0.00    +0.000 A 
ATOM      6  C   UNL     1       5.479   5.570  17.350  0.00  0.00    +0.000 A 
ATOM      7  N   UNL     1       5.648   4.273  17.776  0.00  0.00    +0.000 N 
ATOM      8  C   UNL     1       4.452   3.712  18.146  0.00  0.00    +0.000 A 
ATOM      9  C   UNL     1       4.179   2.422  18.615  0.00  0.00    +0.000 A 
ATOM     10  C   UNL     1       2.845   2.106  18.891  0.00  0.00    +0.000 A 
ATOM     11  C   UNL     1       1.839   3.047  18.696  0.00  0.00    +0.000 A 
ATOM     12 CL   UNL     1       0.202   2.608  19.008  0.00  0.00    +0.000 Cl
ATOM     13  C   UNL     1       2.129   4.338  18.241  0.00  0.00    +0.000 A 
ATOM     14  C   UNL     1       3.472   4.689  17.974  0.00  0.00    +0.000 A 
ATOM     15  H   UNL     1       6.543   3.806  17.815  0.00  0.00    +0.000 HD
BRANCH   6  16
ATOM     16  C   UNL     1       6.562   6.423  16.930  0.00  0.00    +0.000 C 
ATOM     17  O   UNL     1       7.393   6.134  16.078  0.00  0.00    +0.000 OA
BRANCH  16  18
ATOM     18  O   UNL     1       6.509   7.590  17.625  0.00  0.00    +0.000 OA
ATOM     19  C   UNL     1       7.748   8.296  17.684  0.00  0.00    +0.000 C 
ENDBRANCH  16  18
ENDBRANCH   6  16
ENDBRANCH   3   5
BRANCH   1  20
ATOM     20  C   UNL     1       2.216   9.103  17.618  0.00  0.00    +0.000 C 
BRANCH  20  25
ATOM     21  C   UNL     1       0.468  11.694  19.877  0.00  0.00    +0.000 C 
ATOM     22  C   UNL     1      -0.874  11.671  19.150  0.00  0.00    +0.000 C 
ATOM     23  C   UNL     1      -1.231  10.249  18.742  0.00  0.00    +0.000 C 
ATOM     24  C   UNL     1      -0.143   9.679  17.842  0.00  0.00    +0.000 C 
ATOM     25  N   UNL     1       1.166   9.658  18.513  0.00  0.00    +0.000 NA
ATOM     26  C   UNL     1       1.554  10.961  19.076  0.00  0.00    +0.000 C 
BRANCH  21  27
ATOM     27  C   UNL     1       0.272  11.308  21.330  0.00  0.00    +0.000 C 
ATOM     28  O   UNL     1      -0.591  11.835  22.026  0.00  0.00    +0.000 OA
BRANCH  27  29
ATOM     29  O   UNL     1       1.176  10.407  21.788  0.00  0.00    +0.000 OA
BRANCH  29  31
ATOM     30  C   UNL     1      -0.202   8.471  21.670  0.00  0.00    +0.000 C 
ATOM     31  C   UNL     1       0.615   9.358  22.593  0.00  0.00    +0.000 C 
ENDBRANCH  29  31
ENDBRANCH  27  29
ENDBRANCH  21  27
ENDBRANCH  20  25
ENDBRANCH   1  20
TORSDOF 8
ENDMDL
MODEL 3
REMARK VINA RESULT:      -7.5      1.766      2.769
REMARK  Name = 
REMARK  10 active torsions:
REMARK  status: ('A' for Active; 'I' for Inactive)
REMARK    1  A    between atoms: C_1  and  C_2
REMARK    2  A    between atoms: C_2  and  O_3
REMARK    3  A    between atoms: O_3  and  C_4
REMARK    4  A    between atoms: C_4  and  C_6
REMARK    5  A    between atoms: N_10  and  C_11
REMARK    6  A    between atoms: C_11  and  C_12
REMARK    7  A    between atoms: N_14  and  C_15
REMARK    8  A    between atoms: C_16  and  C_17
REMARK    9  A    between atoms: C_17  and  O_19
REMARK   10  A    between atoms: O_19  and  C_20
REMARK                            x       y       z     vdW  Elec       q    Type
REMARK                         _______ _______ _______ _____ _____    ______ ____
ROOT
ATOM      1  C   UNL     1       4.220   3.359  16.879  0.00  0.00    +0.000 C 
ATOM      2  O   UNL     1       3.517   3.993  16.086  0.00  0.00    +0.000 OA
ATOM      3  N   UNL     1       5.608   3.372  16.873  0.00  0.00    +0.000 N 
ATOM      4  H   UNL     1       6.057   2.495  17.119  0.00  0.00    +0.000 HD
ENDROOT
BRANCH   3   5
ATOM      5  C   UNL     1       6.307   4.195  15.997  0.00  0.00    +0.000 A 
ATOM      6  C   UNL     1       6.952   5.351  16.399  0.00  0.00    +0.000 A 
ATOM      7  N   UNL     1       7.566   5.870  15.283  0.00  0.00    +0.000 N 
ATOM      8  C   UNL     1       7.296   5.115  14.169  0.00  0.00    +0.000 A 
ATOM      9  C   UNL     1       7.704   5.302  12.844  0.00  0.00    +0.000 A 
ATOM     10  C   UNL     1       7.248   4.383  11.894  0.00  0.00    +0.000 A 
ATOM     11  C   UNL     1       6.416   3.332  12.267  0.00  0.00    +0.000 A 
ATOM     12 CL   UNL     1       5.842   2.242  11.062  0.00  0.00    +0.000 Cl
ATOM     13  C   UNL     1       6.029   3.149  13.600  0.00  0.00    +0.000 A 
ATOM     14  C   UNL     1       6.492   4.053  14.582  0.00  0.00    +0.000 A 
ATOM     15  H   UNL     1       8.146   6.698  15.294  0.00  0.00    +0.000 HD
BRANCH   6  16
ATOM     16  C   UNL     1       7.081   5.912  17.719  0.00  0.00    +0.000 C 
ATOM     17  O   UNL     1       6.373   5.626  18.676  0.00  0.00    +0.000 OA
BRANCH  16  18
ATOM     18  O   UNL     1       8.109   6.803  17.729  0.00  0.00    +0.000 OA
ATOM     19  C   UNL     1       7.702   8.170  17.713  0.00  0.00    +0.000 C 
ENDBRANCH  16  18
ENDBRANCH   6  16
ENDBRANCH   3   5
BRANCH   1  20
ATOM     20  C   UNL     1       3.606   2.474  17.975  0.00  0.00    +0.000 C 
BRANCH  20  25
ATOM     21  C   UNL     1       1.207   4.594  20.125  0.00  0.00    +0.000 C 
ATOM     22  C   UNL     1       1.252   3.697  21.359  0.00  0.00    +0.000 C 
ATOM     23  C   UNL     1       2.667   3.185  21.590  0.00  0.00    +0.000 C 
ATOM     24  C   UNL     1       3.144   2.411  20.368  0.00  0.00    +0.000 C 
ATOM     25  N   UNL     1       3.142   3.246  19.157  0.00  0.00    +0.000 NA
ATOM     26  C   UNL     1       1.853   3.911  18.909  0.00  0.00    +0.000 C 
BRANCH  21  27
ATOM     27  C   UNL     1       1.672   5.990  20.487  0.00  0.00    +0.000 C 
ATOM     28  O   UNL     1       1.046   6.695  21.274  0.00  0.00    +0.000 OA
BRANCH  27  29
ATOM     29  O   UNL     1       2.774   6.399  19.810  0.00  0.00    +0.000 OA
BRANCH  29  31
ATOM     30  C   UNL     1       3.411   7.235  17.676  0.00  0.00    +0.000 C 
ATOM     31  C   UNL     1       2.543   7.483  18.897  0.00  0.00    +0.000 C 
ENDBRANCH  29  31
ENDBRANCH  27  29
ENDBRANCH  21  27
ENDBRANCH  20  25
ENDBRANCH   1  20
TORSDOF 8
ENDMDL
MODEL 4
REMARK VINA RESULT:      -7.4      4.191      6.422
REMARK  Name = 
REMARK  10 active torsions:
REMARK  status: ('A' for Active; 'I' for Inactive)
REMARK    1  A    between atoms: C_1  and  C_2
REMARK    2  A    between atoms: C_2  and  O_3
REMARK    3  A    between atoms: O_3  and  C_4
REMARK    4  A    between atoms: C_4  and  C_6
REMARK    5  A    between atoms: N_10  and  C_11
REMARK    6  A    between atoms: C_11  and  C_12
REMARK    7  A    between atoms: N_14  and  C_15
REMARK    8  A    between atoms: C_16  and  C_17
REMARK    9  A    between atoms: C_17  and  O_19
REMARK   10  A    between atoms: O_19  and  C_20
REMARK                            x       y       z     vdW  Elec       q    Type
REMARK                         _______ _______ _______ _____ _____    ______ ____
ROOT
ATOM      1  C   UNL     1       2.787   7.651  18.337  0.00  0.00    +0.000 C 
ATOM      2  O   UNL     1       2.660   7.490  19.555  0.00  0.00    +0.000 OA
ATOM      3  N   UNL     1       3.568   6.845  17.520  0.00  0.00    +0.000 N 
ATOM      4  H   UNL     1       4.040   7.320  16.757  0.00  0.00    +0.000 HD
ENDROOT
BRANCH   3   5
ATOM      5  C   UNL     1       4.206   5.721  18.033  0.00  0.00    +0.000 A 
ATOM      6  C   UNL     1       5.528   5.414  17.764  0.00  0.00    +0.000 A 
ATOM      7  N   UNL     1       5.821   4.271  18.471  0.00  0.00    +0.000 N 
ATOM      8  C   UNL     1       4.719   3.805  19.143  0.00  0.00    +0.000 A 
ATOM      9  C   UNL     1       4.581   2.674  19.955  0.00  0.00    +0.000 A 
ATOM     10  C   UNL     1       3.318   2.420  20.496  0.00  0.00    +0.000 A 
ATOM     11  C   UNL     1       2.247   3.265  20.224  0.00  0.00    +0.000 A 
ATOM     12 CL   UNL     1       0.694   2.898  20.876  0.00  0.00    +0.000 Cl
ATOM     13  C   UNL     1       2.404   4.402  19.423  0.00  0.00    +0.000 A 
ATOM     14  C   UNL     1       3.676   4.693  18.880  0.00  0.00    +0.000 A 
ATOM     15  H   UNL     1       6.736   3.842  18.491  0.00  0.00    +0.000 HD
BRANCH   6  16
ATOM     16  C   UNL     1       6.495   6.147  16.988  0.00  0.00    +0.000 C 
ATOM     17  O   UNL     1       6.531   7.366  16.880  0.00  0.00    +0.000 OA
BRANCH  16  18
ATOM     18  O   UNL     1       7.356   5.272  16.402  0.00  0.00    +0.000 OA
ATOM     19  C   UNL     1       7.015   4.922  15.061  0.00  0.00    +0.000 C 
ENDBRANCH  16  18
ENDBRANCH   6  16
ENDBRANCH   3   5
BRANCH   1  20
ATOM     20  C   UNL     1       2.072   8.791  17.594  0.00  0.00    +0.000 C 
BRANCH  20  25
ATOM     21  C   UNL     1       0.815  11.868  19.550  0.00  0.00    +0.000 C 
ATOM     22  C   UNL     1      -0.587  11.887  18.948  0.00  0.00    +0.000 C 
ATOM     23  C   UNL     1      -1.120  10.469  18.800  0.00  0.00    +0.000 C 
ATOM     24  C   UNL     1      -0.186   9.653  17.916  0.00  0.00    +0.000 C 
ATOM     25  N   UNL     1       1.174   9.586  18.472  0.00  0.00    +0.000 NA
ATOM     26  C   UNL     1       1.741  10.907  18.789  0.00  0.00    +0.000 C 
BRANCH  21  27
ATOM     27  C   UNL     1       0.726  11.727  21.056  0.00  0.00    +0.000 C 
ATOM     28  O   UNL     1       0.410  12.671  21.774  0.00  0.00    +0.000 OA
BRANCH  27  29
ATOM     29  O   UNL     1       1.100  10.509  21.520  0.00  0.00    +0.000 OA
BRANCH  29  31
ATOM     30  C   UNL     1      -0.159   8.500  21.722  0.00  0.00    +0.000 C 
ATOM     31  C   UNL     1       0.118   9.858  22.342  0.00  0.00    +0.000 C 
ENDBRANCH  29  31
ENDBRANCH  27  29
ENDBRANCH  21  27
ENDBRANCH  20  25
ENDBRANCH   1  20
TORSDOF 8
ENDMDL
MODEL 5
REMARK VINA RESULT:      -7.4      4.388      7.096
REMARK  Name = 
REMARK  10 active torsions:
REMARK  status: ('A' for Active; 'I' for Inactive)
REMARK    1  A    between atoms: C_1  and  C_2
REMARK    2  A    between atoms: C_2  and  O_3
REMARK    3  A    between atoms: O_3  and  C_4
REMARK    4  A    between atoms: C_4  and  C_6
REMARK    5  A    between atoms: N_10  and  C_11
REMARK    6  A    between atoms: C_11  and  C_12
REMARK    7  A    between atoms: N_14  and  C_15
REMARK    8  A    between atoms: C_16  and  C_17
REMARK    9  A    between atoms: C_17  and  O_19
REMARK   10  A    between atoms: O_19  and  C_20
REMARK                            x       y       z     vdW  Elec       q    Type
REMARK                         _______ _______ _______ _____ _____    ______ ____
ROOT
ATOM      1  C   UNL     1       2.066   7.497  19.474  0.00  0.00    +0.000 C 
ATOM      2  O   UNL     1       2.083   7.883  18.301  0.00  0.00    +0.000 OA
ATOM      3  N   UNL     1       2.522   6.255  19.893  0.00  0.00    +0.000 N 
ATOM      4  H   UNL     1       2.002   5.831  20.655  0.00  0.00    +0.000 HD
ENDROOT
BRANCH   3   5
ATOM      5  C   UNL     1       3.122   5.378  18.995  0.00  0.00    +0.000 A 
ATOM      6  C   UNL     1       2.578   4.151  18.661  0.00  0.00    +0.000 A 
ATOM      7  N   UNL     1       3.413   3.591  17.723  0.00  0.00    +0.000 N 
ATOM      8  C   UNL     1       4.500   4.392  17.481  0.00  0.00    +0.000 A 
ATOM      9  C   UNL     1       5.586   4.189  16.623  0.00  0.00    +0.000 A 
ATOM     10  C   UNL     1       6.581   5.171  16.599  0.00  0.00    +0.000 A 
ATOM     11  C   UNL     1       6.483   6.299  17.408  0.00  0.00    +0.000 A 
ATOM     12 CL   UNL     1       7.749   7.468  17.381  0.00  0.00    +0.000 Cl
ATOM     13  C   UNL     1       5.383   6.496  18.250  0.00  0.00    +0.000 A 
ATOM     14  C   UNL     1       4.354   5.528  18.279  0.00  0.00    +0.000 A 
ATOM     15  H   UNL     1       3.236   2.704  17.270  0.00  0.00    +0.000 HD
BRANCH   6  16
ATOM     16  C   UNL     1       1.341   3.553  19.092  0.00  0.00    +0.000 C 
ATOM     17  O   UNL     1       0.615   2.858  18.391  0.00  0.00    +0.000 OA
BRANCH  16  18
ATOM     18  O   UNL     1       1.113   3.880  20.392  0.00  0.00    +0.000 OA
ATOM     19  C   UNL     1       1.503   2.876  21.328  0.00  0.00    +0.000 C 
ENDBRANCH  16  18
ENDBRANCH   6  16
ENDBRANCH   3   5
BRANCH   1  20
ATOM     20  C   UNL     1       1.525   8.382  20.607  0.00  0.00    +0.000 C 
BRANCH  20  25
ATOM     21  C   UNL     1      -1.283  10.841  19.636  0.00  0.00    +0.000 C 
ATOM     22  C   UNL     1      -0.802  11.997  20.508  0.00  0.00    +0.000 C 
ATOM     23  C   UNL     1       0.716  12.095  20.468  0.00  0.00    +0.000 C 
ATOM     24  C   UNL     1       1.333  10.788  20.950  0.00  0.00    +0.000 C 
ATOM     25  N   UNL     1       0.917   9.648  20.120  0.00  0.00    +0.000 NA
ATOM     26  C   UNL     1      -0.543   9.537  19.971  0.00  0.00    +0.000 C 
BRANCH  21  27
ATOM     27  C   UNL     1      -1.333  11.278  18.186  0.00  0.00    +0.000 C 
ATOM     28  O   UNL     1      -1.397  12.463  17.871  0.00  0.00    +0.000 OA
BRANCH  27  29
ATOM     29  O   UNL     1      -1.382  10.251  17.301  0.00  0.00    +0.000 OA
BRANCH  29  31
ATOM     30  C   UNL     1      -2.801  10.348  15.393  0.00  0.00    +0.000 C 
ATOM     31  C   UNL     1      -2.704   9.919  16.847  0.00  0.00    +0.000 C 
ENDBRANCH  29  31
ENDBRANCH  27  29
ENDBRANCH  21  27
ENDBRANCH  20  25
ENDBRANCH   1  20
TORSDOF 8
ENDMDL
MODEL 6
REMARK VINA RESULT:      -7.3      4.417      6.387
REMARK  Name = 
REMARK  10 active torsions:
REMARK  status: ('A' for Active; 'I' for Inactive)
REMARK    1  A    between atoms: C_1  and  C_2
REMARK    2  A    between atoms: C_2  and  O_3
REMARK    3  A    between atoms: O_3  and  C_4
REMARK    4  A    between atoms: C_4  and  C_6
REMARK    5  A    between atoms: N_10  and  C_11
REMARK    6  A    between atoms: C_11  and  C_12
REMARK    7  A    between atoms: N_14  and  C_15
REMARK    8  A    between atoms: C_16  and  C_17
REMARK    9  A    between atoms: C_17  and  O_19
REMARK   10  A    between atoms: O_19  and  C_20
REMARK                            x       y       z     vdW  Elec       q    Type
REMARK                         _______ _______ _______ _____ _____    ______ ____
ROOT
ATOM      1  C   UNL     1       2.854   7.768  18.108  0.00  0.00    +0.000 C 
ATOM      2  O   UNL     1       2.649   7.395  19.268  0.00  0.00    +0.000 OA
ATOM      3  N   UNL     1       3.628   7.071  17.191  0.00  0.00    +0.000 N 
ATOM      4  H   UNL     1       4.171   7.642  16.550  0.00  0.00    +0.000 HD
ENDROOT
BRANCH   3   5
ATOM      5  C   UNL     1       4.164   5.828  17.512  0.00  0.00    +0.000 A 
ATOM      6  C   UNL     1       5.512   5.536  17.400  0.00  0.00    +0.000 A 
ATOM      7  N   UNL     1       5.674   4.244  17.845  0.00  0.00    +0.000 N 
ATOM      8  C   UNL     1       4.472   3.681  18.190  0.00  0.00    +0.000 A 
ATOM      9  C   UNL     1       4.192   2.395  18.666  0.00  0.00    +0.000 A 
ATOM     10  C   UNL     1       2.853   2.076  18.910  0.00  0.00    +0.000 A 
ATOM     11  C   UNL     1       1.848   3.010  18.679  0.00  0.00    +0.000 A 
ATOM     12 CL   UNL     1       0.205   2.567  18.953  0.00  0.00    +0.000 Cl
ATOM     13  C   UNL     1       2.145   4.298  18.217  0.00  0.00    +0.000 A 
ATOM     14  C   UNL     1       3.492   4.652  17.981  0.00  0.00    +0.000 A 
ATOM     15  H   UNL     1       6.571   3.781  17.912  0.00  0.00    +0.000 HD
BRANCH   6  16
ATOM     16  C   UNL     1       6.601   6.389  16.999  0.00  0.00    +0.000 C 
ATOM     17  O   UNL     1       7.409   6.127  16.117  0.00  0.00    +0.000 OA
BRANCH  16  18
ATOM     18  O   UNL     1       6.584   7.521  17.751  0.00  0.00    +0.000 OA
ATOM     19  C   UNL     1       7.782   8.293  17.678  0.00  0.00    +0.000 C 
ENDBRANCH  16  18
ENDBRANCH   6  16
ENDBRANCH   3   5
BRANCH   1  20
ATOM     20  C   UNL     1       2.255   9.073  17.561  0.00  0.00    +0.000 C 
BRANCH  20  25
ATOM     21  C   UNL     1       0.480  11.733  19.716  0.00  0.00    +0.000 C 
ATOM     22  C   UNL     1      -0.870  11.645  19.012  0.00  0.00    +0.000 C 
ATOM     23  C   UNL     1      -1.201  10.196  18.679  0.00  0.00    +0.000 C 
ATOM     24  C   UNL     1      -0.113   9.607  17.792  0.00  0.00    +0.000 C 
ATOM     25  N   UNL     1       1.206   9.648  18.443  0.00  0.00    +0.000 NA
ATOM     26  C   UNL     1       1.572  10.985  18.936  0.00  0.00    +0.000 C 
BRANCH  21  27
ATOM     27  C   UNL     1       0.314  11.415  21.188  0.00  0.00    +0.000 C 
ATOM     28  O   UNL     1       1.134  10.736  21.799  0.00  0.00    +0.000 OA
BRANCH  27  29
ATOM     29  O   UNL     1      -0.843  11.876  21.725  0.00  0.00    +0.000 OA
BRANCH  29  31
ATOM     30  C   UNL     1      -2.499  11.900  23.434  0.00  0.00    +0.000 C 
ATOM     31  C   UNL     1      -1.268  11.183  22.909  0.00  0.00    +0.000 C 
ENDBRANCH  29  31
ENDBRANCH  27  29
ENDBRANCH  21  27
ENDBRANCH  20  25
ENDBRANCH   1  20
TORSDOF 8
ENDMDL
MODEL 7
REMARK VINA RESULT:      -7.3      2.875      7.288
REMARK  Name = 
REMARK  10 active torsions:
REMARK  status: ('A' for Active; 'I' for Inactive)
REMARK    1  A    between atoms: C_1  and  C_2
REMARK    2  A    between atoms: C_2  and  O_3
REMARK    3  A    between atoms: O_3  and  C_4
REMARK    4  A    between atoms: C_4  and  C_6
REMARK    5  A    between atoms: N_10  and  C_11
REMARK    6  A    between atoms: C_11  and  C_12
REMARK    7  A    between atoms: N_14  and  C_15
REMARK    8  A    between atoms: C_16  and  C_17
REMARK    9  A    between atoms: C_17  and  O_19
REMARK   10  A    between atoms: O_19  and  C_20
REMARK                            x       y       z     vdW  Elec       q    Type
REMARK                         _______ _______ _______ _____ _____    ______ ____
ROOT
ATOM      1  C   UNL     1       6.720   4.609  18.860  0.00  0.00    +0.000 C 
ATOM      2  O   UNL     1       6.849   5.313  19.866  0.00  0.00    +0.000 OA
ATOM      3  N   UNL     1       5.621   3.798  18.611  0.00  0.00    +0.000 N 
ATOM      4  H   UNL     1       5.820   2.921  18.140  0.00  0.00    +0.000 HD
ENDROOT
BRANCH   3   5
ATOM      5  C   UNL     1       4.528   3.800  19.470  0.00  0.00    +0.000 A 
ATOM      6  C   UNL     1       4.199   2.725  20.277  0.00  0.00    +0.000 A 
ATOM      7  N   UNL     1       3.101   3.104  21.013  0.00  0.00    +0.000 N 
ATOM      8  C   UNL     1       2.682   4.365  20.670  0.00  0.00    +0.000 A 
ATOM      9  C   UNL     1       1.604   5.111  21.158  0.00  0.00    +0.000 A 
ATOM     10  C   UNL     1       1.389   6.374  20.599  0.00  0.00    +0.000 A 
ATOM     11  C   UNL     1       2.221   6.855  19.593  0.00  0.00    +0.000 A 
ATOM     12 CL   UNL     1       1.901   8.400  18.900  0.00  0.00    +0.000 Cl
ATOM     13  C   UNL     1       3.306   6.104  19.126  0.00  0.00    +0.000 A 
ATOM     14  C   UNL     1       3.556   4.832  19.688  0.00  0.00    +0.000 A 
ATOM     15  H   UNL     1       2.669   2.523  21.718  0.00  0.00    +0.000 HD
BRANCH   6  16
ATOM     16  C   UNL     1       4.878   1.466  20.440  0.00  0.00    +0.000 C 
ATOM     17  O   UNL     1       5.018   0.624  19.561  0.00  0.00    +0.000 OA
BRANCH  16  18
ATOM     18  O   UNL     1       5.336   1.366  21.716  0.00  0.00    +0.000 OA
ATOM     19  C   UNL     1       6.039   0.155  21.995  0.00  0.00    +0.000 C 
ENDBRANCH  16  18
ENDBRANCH   6  16
ENDBRANCH   3   5
BRANCH   1  20
ATOM     20  C   UNL     1       7.795   4.564  17.762  0.00  0.00    +0.000 C 
BRANCH  20  25
ATOM     21  C   UNL     1       6.206   4.239  14.264  0.00  0.00    +0.000 C 
ATOM     22  C   UNL     1       5.137   5.309  14.466  0.00  0.00    +0.000 C 
ATOM     23  C   UNL     1       5.710   6.492  15.233  0.00  0.00    +0.000 C 
ATOM     24  C   UNL     1       6.240   6.025  16.584  0.00  0.00    +0.000 C 
ATOM     25  N   UNL     1       7.293   5.010  16.436  0.00  0.00    +0.000 NA
ATOM     26  C   UNL     1       6.895   3.875  15.588  0.00  0.00    +0.000 C 
BRANCH  21  27
ATOM     27  C   UNL     1       7.082   4.603  13.082  0.00  0.00    +0.000 C 
ATOM     28  O   UNL     1       7.969   5.446  13.173  0.00  0.00    +0.000 OA
BRANCH  27  29
ATOM     29  O   UNL     1       6.739   3.980  11.928  0.00  0.00    +0.000 OA
BRANCH  29  31
ATOM     30  C   UNL     1       4.535   3.239  11.423  0.00  0.00    +0.000 C 
ATOM     31  C   UNL     1       5.846   2.868  12.094  0.00  0.00    +0.000 C 
ENDBRANCH  29  31
ENDBRANCH  27  29
ENDBRANCH  21  27
ENDBRANCH  20  25
ENDBRANCH   1  20
TORSDOF 8
ENDMDL
MODEL 8
REMARK VINA RESULT:      -7.2      4.571      6.616
REMARK  Name = 
REMARK  10 active torsions:
REMARK  status: ('A' for Active; 'I' for Inactive)
REMARK    1  A    between atoms: C_1  and  C_2
REMARK    2  A    between atoms: C_2  and  O_3
REMARK    3  A    between atoms: O_3  and  C_4
REMARK    4  A    between atoms: C_4  and  C_6
REMARK    5  A    between atoms: N_10  and  C_11
REMARK    6  A    between atoms: C_11  and  C_12
REMARK    7  A    between atoms: N_14  and  C_15
REMARK    8  A    between atoms: C_16  and  C_17
REMARK    9  A    between atoms: C_17  and  O_19
REMARK   10  A    between atoms: O_19  and  C_20
REMARK                            x       y       z     vdW  Elec       q    Type
REMARK                         _______ _______ _______ _____ _____    ______ ____
ROOT
ATOM      1  C   UNL     1       2.303   7.681  17.873  0.00  0.00    +0.000 C 
ATOM      2  O   UNL     1       1.348   7.028  17.439  0.00  0.00    +0.000 OA
ATOM      3  N   UNL     1       3.557   7.147  18.136  0.00  0.00    +0.000 N 
ATOM      4  H   UNL     1       4.042   7.540  18.937  0.00  0.00    +0.000 HD
ENDROOT
BRANCH   3   5
ATOM      5  C   UNL     1       3.842   5.819  17.835  0.00  0.00    +0.000 A 
ATOM      6  C   UNL     1       4.695   5.443  16.813  0.00  0.00    +0.000 A 
ATOM      7  N   UNL     1       4.768   4.070  16.844  0.00  0.00    +0.000 N 
ATOM      8  C   UNL     1       3.953   3.550  17.817  0.00  0.00    +0.000 A 
ATOM      9  C   UNL     1       3.720   2.215  18.167  0.00  0.00    +0.000 A 
ATOM     10  C   UNL     1       2.802   1.969  19.192  0.00  0.00    +0.000 A 
ATOM     11  C   UNL     1       2.149   3.020  19.827  0.00  0.00    +0.000 A 
ATOM     12 CL   UNL     1       0.994   2.676  21.059  0.00  0.00    +0.000 Cl
ATOM     13  C   UNL     1       2.404   4.351  19.477  0.00  0.00    +0.000 A 
ATOM     14  C   UNL     1       3.342   4.628  18.457  0.00  0.00    +0.000 A 
ATOM     15  H   UNL     1       5.356   3.524  16.229  0.00  0.00    +0.000 HD
BRANCH   6  16
ATOM     16  C   UNL     1       5.464   6.267  15.916  0.00  0.00    +0.000 C 
ATOM     17  O   UNL     1       4.991   7.050  15.102  0.00  0.00    +0.000 OA
BRANCH  16  18
ATOM     18  O   UNL     1       6.788   6.036  16.119  0.00  0.00    +0.000 OA
ATOM     19  C   UNL     1       7.339   6.725  17.241  0.00  0.00    +0.000 C 
ENDBRANCH  16  18
ENDBRANCH   6  16
ENDBRANCH   3   5
BRANCH   1  20
ATOM     20  C   UNL     1       2.186   9.184  18.168  0.00  0.00    +0.000 C 
BRANCH  20  25
ATOM     21  C   UNL     1      -0.328  10.354  20.848  0.00  0.00    +0.000 C 
ATOM     22  C   UNL     1      -0.295   9.073  21.678  0.00  0.00    +0.000 C 
ATOM     23  C   UNL     1       1.125   8.532  21.761  0.00  0.00    +0.000 C 
ATOM     24  C   UNL     1       1.658   8.257  20.360  0.00  0.00    +0.000 C 
ATOM     25  N   UNL     1       1.668   9.472  19.531  0.00  0.00    +0.000 NA
ATOM     26  C   UNL     1       0.370  10.164  19.493  0.00  0.00    +0.000 C 
BRANCH  21  27
ATOM     27  C   UNL     1       0.090  11.532  21.705  0.00  0.00    +0.000 C 
ATOM     28  O   UNL     1       0.983  12.299  21.356  0.00  0.00    +0.000 OA
BRANCH  27  29
ATOM     29  O   UNL     1      -0.549  11.601  22.899  0.00  0.00    +0.000 OA
BRANCH  29  31
ATOM     30  C   UNL     1      -2.820  12.189  23.298  0.00  0.00    +0.000 C 
ATOM     31  C   UNL     1      -1.425  12.730  23.041  0.00  0.00    +0.000 C 
ENDBRANCH  29  31
ENDBRANCH  27  29
ENDBRANCH  21  27
ENDBRANCH  20  25
ENDBRANCH   1  20
TORSDOF 8
ENDMDL
MODEL 9
REMARK VINA RESULT:      -7.1      2.775      7.234
REMARK  Name = 
REMARK  10 active torsions:
REMARK  status: ('A' for Active; 'I' for Inactive)
REMARK    1  A    between atoms: C_1  and  C_2
REMARK    2  A    between atoms: C_2  and  O_3
REMARK    3  A    between atoms: O_3  and  C_4
REMARK    4  A    between atoms: C_4  and  C_6
REMARK    5  A    between atoms: N_10  and  C_11
REMARK    6  A    between atoms: C_11  and  C_12
REMARK    7  A    between atoms: N_14  and  C_15
REMARK    8  A    between atoms: C_16  and  C_17
REMARK    9  A    between atoms: C_17  and  O_19
REMARK   10  A    between atoms: O_19  and  C_20
REMARK                            x       y       z     vdW  Elec       q    Type
REMARK                         _______ _______ _______ _____ _____    ______ ____
ROOT
ATOM      1  C   UNL     1       6.713   4.790  18.965  0.00  0.00    +0.000 C 
ATOM      2  O   UNL     1       6.871   5.364  20.047  0.00  0.00    +0.000 OA
ATOM      3  N   UNL     1       5.555   4.119  18.599  0.00  0.00    +0.000 N 
ATOM      4  H   UNL     1       5.690   3.284  18.036  0.00  0.00    +0.000 HD
ENDROOT
BRANCH   3   5
ATOM      5  C   UNL     1       4.437   4.128  19.427  0.00  0.00    +0.000 A 
ATOM      6  C   UNL     1       4.065   3.047  20.205  0.00  0.00    +0.000 A 
ATOM      7  N   UNL     1       2.953   3.435  20.916  0.00  0.00    +0.000 N 
ATOM      8  C   UNL     1       2.569   4.709  20.583  0.00  0.00    +0.000 A 
ATOM      9  C   UNL     1       1.491   5.468  21.053  0.00  0.00    +0.000 A 
ATOM     10  C   UNL     1       1.317   6.744  20.510  0.00  0.00    +0.000 A 
ATOM     11  C   UNL     1       2.187   7.226  19.536  0.00  0.00    +0.000 A 
ATOM     12 CL   UNL     1       1.917   8.788  18.861  0.00  0.00    +0.000 Cl
ATOM     13  C   UNL     1       3.270   6.461  19.088  0.00  0.00    +0.000 A 
ATOM     14  C   UNL     1       3.480   5.175  19.634  0.00  0.00    +0.000 A 
ATOM     15  H   UNL     1       2.490   2.850  21.598  0.00  0.00    +0.000 HD
BRANCH   6  16
ATOM     16  C   UNL     1       4.714   1.771  20.366  0.00  0.00    +0.000 C 
ATOM     17  O   UNL     1       5.291   1.400  21.381  0.00  0.00    +0.000 OA
BRANCH  16  18
ATOM     18  O   UNL     1       4.581   1.052  19.220  0.00  0.00    +0.000 OA
ATOM     19  C   UNL     1       3.391   1.334  18.484  0.00  0.00    +0.000 C 
ENDBRANCH  16  18
ENDBRANCH   6  16
ENDBRANCH   3   5
BRANCH   1  20
ATOM     20  C   UNL     1       7.816   4.767  17.895  0.00  0.00    +0.000 C 
BRANCH  20  25
ATOM     21  C   UNL     1       6.351   4.337  14.354  0.00  0.00    +0.000 C 
ATOM     22  C   UNL     1       5.227   5.356  14.514  0.00  0.00    +0.000 C 
ATOM     23  C   UNL     1       5.719   6.571  15.287  0.00  0.00    +0.000 C 
ATOM     24  C   UNL     1       6.230   6.142  16.657  0.00  0.00    +0.000 C 
ATOM     25  N   UNL     1       7.335   5.177  16.551  0.00  0.00    +0.000 NA
ATOM     26  C   UNL     1       7.017   4.018  15.701  0.00  0.00    +0.000 C 
BRANCH  21  27
ATOM     27  C   UNL     1       7.244   4.734  13.196  0.00  0.00    +0.000 C 
ATOM     28  O   UNL     1       8.174   5.523  13.339  0.00  0.00    +0.000 OA
BRANCH  27  29
ATOM     29  O   UNL     1       6.869   4.208  12.004  0.00  0.00    +0.000 OA
BRANCH  29  31
ATOM     30  C   UNL     1       4.780   3.187  11.495  0.00  0.00    +0.000 C 
ATOM     31  C   UNL     1       6.156   2.965  12.100  0.00  0.00    +0.000 C 
ENDBRANCH  29  31
ENDBRANCH  27  29
ENDBRANCH  21  27
ENDBRANCH  20  25
ENDBRANCH   1  20
TORSDOF 8
ENDMDL
