MODEL 1
REMARK VINA RESULT:      -8.1      0.000      0.000
REMARK  Name = 
REMARK  6 active torsions:
REMARK  status: ('A' for Active; 'I' for Inactive)
REMARK    1  A    between atoms: C_1  and  C_2
REMARK    2  A    between atoms: C_2  and  C_3
REMARK    3  A    between atoms: C_3  and  N_4
REMARK    4  A    between atoms: N_4  and  C_5
REMARK    5  A    between atoms: C_12  and  C_13
REMARK    6  A    between atoms: C_19  and  C_20
REMARK                            x       y       z     vdW  Elec       q    Type
REMARK                         _______ _______ _______ _____ _____    ______ ____
ROOT
ATOM      1  C   UNL     1       4.981   6.287  17.766  0.00  0.00    +0.000 A 
ATOM      2  C   UNL     1       5.502   5.105  18.311  0.00  0.00    +0.000 A 
ATOM      3  C   UNL     1       4.712   4.218  19.046  0.00  0.00    +0.000 A 
ATOM      4  N   UNL     1       5.310   3.037  19.499  0.00  0.00    +0.000 N 
ATOM      5  C   UNL     1       4.652   2.085  20.213  0.00  0.00    +0.000 A 
ATOM      6  O   UNL     1       5.184   1.048  20.583  0.00  0.00    +0.000 OA
ATOM      7  C   UNL     1       3.241   2.373  20.524  0.00  0.00    +0.000 A 
ATOM      8  C   UNL     1       2.608   3.491  20.124  0.00  0.00    +0.000 A 
ATOM      9  C   UNL     1       3.366   4.486  19.324  0.00  0.00    +0.000 A 
ATOM     10  C   UNL     1       2.851   5.686  18.819  0.00  0.00    +0.000 A 
ATOM     11  C   UNL     1       3.630   6.580  18.039  0.00  0.00    +0.000 A 
ATOM     12  C   UNL     1       2.977   7.862  17.587  0.00  0.00    +0.000 C 
ATOM     13  H   UNL     1       6.280   2.838  19.290  0.00  0.00    +0.000 HD
ENDROOT
BRANCH   8  14
ATOM     14  C   UNL     1       1.168   3.645  20.518  0.00  0.00    +0.000 C 
ATOM     15  F   UNL     1       0.256   3.270  19.592  0.00  0.00    +0.000 F 
ATOM     16  F   UNL     1       0.894   2.924  21.637  0.00  0.00    +0.000 F 
ATOM     17  F   UNL     1       0.885   4.940  20.822  0.00  0.00    +0.000 F 
ENDBRANCH   8  14
BRANCH   1  18
ATOM     18  N   UNL     1       5.792   7.205  17.070  0.00  0.00    +0.000 N 
ATOM     19  H   UNL     1       5.387   7.456  16.171  0.00  0.00    +0.000 HD
BRANCH  18  20
ATOM     20  C   UNL     1       7.229   6.946  17.014  0.00  0.00    +0.000 C 
BRANCH  20  22
ATOM     21  C   UNL     1       8.101   9.118  17.863  0.00  0.00    +0.000 C 
ATOM     22  C   UNL     1       7.981   7.626  18.151  0.00  0.00    +0.000 C 
ENDBRANCH  20  22
ENDBRANCH  18  20
ENDBRANCH   1  18
TORSDOF 4
ENDMDL
MODEL 2
REMARK VINA RESULT:      -7.9      3.910      6.066
REMARK  Name = 
REMARK  6 active torsions:
REMARK  status: ('A' for Active; 'I' for Inactive)
REMARK    1  A    between atoms: C_1  and  C_2
REMARK    2  A    between atoms: C_2  and  C_3
REMARK    3  A    between atoms: C_3  and  N_4
REMARK    4  A    between atoms: N_4  and  C_5
REMARK    5  A    between atoms: C_12  and  C_13
REMARK    6  A    between atoms: C_19  and  C_20
REMARK                            x       y       z     vdW  Elec       q    Type
REMARK                         _______ _______ _______ _____ _____    ______ ____
ROOT
ATOM      1  C   UNL     1       3.751   3.325  19.518  0.00  0.00    +0.000 A 
ATOM      2  C   UNL     1       4.812   4.198  19.801  0.00  0.00    +0.000 A 
ATOM      3  C   UNL     1       5.611   4.743  18.793  0.00  0.00    +0.000 A 
ATOM      4  N   UNL     1       6.608   5.650  19.172  0.00  0.00    +0.000 N 
ATOM      5  C   UNL     1       7.444   6.260  18.292  0.00  0.00    +0.000 A 
ATOM      6  O   UNL     1       8.296   7.067  18.638  0.00  0.00    +0.000 OA
ATOM      7  C   UNL     1       7.271   5.893  16.875  0.00  0.00    +0.000 A 
ATOM      8  C   UNL     1       6.337   5.025  16.446  0.00  0.00    +0.000 A 
ATOM      9  C   UNL     1       5.431   4.406  17.446  0.00  0.00    +0.000 A 
ATOM     10  C   UNL     1       4.401   3.500  17.161  0.00  0.00    +0.000 A 
ATOM     11  C   UNL     1       3.556   2.967  18.169  0.00  0.00    +0.000 A 
ATOM     12  C   UNL     1       2.509   1.968  17.744  0.00  0.00    +0.000 C 
ATOM     13  H   UNL     1       6.731   5.901  20.144  0.00  0.00    +0.000 HD
ENDROOT
BRANCH   8  14
ATOM     14  C   UNL     1       6.281   4.749  14.972  0.00  0.00    +0.000 C 
ATOM     15  F   UNL     1       7.298   5.253  14.235  0.00  0.00    +0.000 F 
ATOM     16  F   UNL     1       6.263   3.411  14.731  0.00  0.00    +0.000 F 
ATOM     17  F   UNL     1       5.139   5.248  14.428  0.00  0.00    +0.000 F 
ENDBRANCH   8  14
BRANCH   1  18
ATOM     18  N   UNL     1       2.981   2.736  20.539  0.00  0.00    +0.000 N 
ATOM     19  H   UNL     1       2.494   1.906  20.209  0.00  0.00    +0.000 HD
BRANCH  18  20
ATOM     20  C   UNL     1       2.150   3.612  21.364  0.00  0.00    +0.000 C 
BRANCH  20  22
ATOM     21  C   UNL     1       1.625   5.924  20.603  0.00  0.00    +0.000 C 
ATOM     22  C   UNL     1       1.203   4.462  20.527  0.00  0.00    +0.000 C 
ENDBRANCH  20  22
ENDBRANCH  18  20
ENDBRANCH   1  18
TORSDOF 4
ENDMDL
MODEL 3
REMARK VINA RESULT:      -7.6      2.425      3.165
REMARK  Name = 
REMARK  6 active torsions:
REMARK  status: ('A' for Active; 'I' for Inactive)
REMARK    1  A    between atoms: C_1  and  C_2
REMARK    2  A    between atoms: C_2  and  C_3
REMARK    3  A    between atoms: C_3  and  N_4
REMARK    4  A    between atoms: N_4  and  C_5
REMARK    5  A    between atoms: C_12  and  C_13
REMARK    6  A    between atoms: C_19  and  C_20
REMARK                            x       y       z     vdW  Elec       q    Type
REMARK                         _______ _______ _______ _____ _____    ______ ____
ROOT
ATOM      1  C   UNL     1       5.900   6.190  17.294  0.00  0.00    +0.000 A 
ATOM      2  C   UNL     1       4.910   6.591  18.203  0.00  0.00    +0.000 A 
ATOM      3  C   UNL     1       3.949   5.702  18.689  0.00  0.00    +0.000 A 
ATOM      4  N   UNL     1       3.038   6.183  19.637  0.00  0.00    +0.000 N 
ATOM      5  C   UNL     1       2.062   5.421  20.198  0.00  0.00    +0.000 A 
ATOM      6  O   UNL     1       1.288   5.851  21.042  0.00  0.00    +0.000 OA
ATOM      7  C   UNL     1       1.982   4.026  19.729  0.00  0.00    +0.000 A 
ATOM      8  C   UNL     1       2.822   3.504  18.817  0.00  0.00    +0.000 A 
ATOM      9  C   UNL     1       3.887   4.372  18.255  0.00  0.00    +0.000 A 
ATOM     10  C   UNL     1       4.846   3.978  17.313  0.00  0.00    +0.000 A 
ATOM     11  C   UNL     1       5.853   4.858  16.838  0.00  0.00    +0.000 A 
ATOM     12  C   UNL     1       6.804   4.330  15.794  0.00  0.00    +0.000 C 
ATOM     13  H   UNL     1       3.089   7.141  19.959  0.00  0.00    +0.000 HD
ENDROOT
BRANCH   8  14
ATOM     14  C   UNL     1       2.616   2.067  18.436  0.00  0.00    +0.000 C 
ATOM     15  F   UNL     1       3.684   1.252  18.598  0.00  0.00    +0.000 F 
ATOM     16  F   UNL     1       1.604   1.516  19.157  0.00  0.00    +0.000 F 
ATOM     17  F   UNL     1       2.254   1.958  17.129  0.00  0.00    +0.000 F 
ENDBRANCH   8  14
BRANCH   1  18
ATOM     18  N   UNL     1       6.836   7.101  16.766  0.00  0.00    +0.000 N 
ATOM     19  H   UNL     1       7.205   6.783  15.873  0.00  0.00    +0.000 HD
BRANCH  18  20
ATOM     20  C   UNL     1       7.859   7.633  17.665  0.00  0.00    +0.000 C 
BRANCH  20  22
ATOM     21  C   UNL     1       8.873   9.648  18.718  0.00  0.00    +0.000 C 
ATOM     22  C   UNL     1       7.894   9.155  17.659  0.00  0.00    +0.000 C 
ENDBRANCH  20  22
ENDBRANCH  18  20
ENDBRANCH   1  18
TORSDOF 4
ENDMDL
MODEL 4
REMARK VINA RESULT:      -7.5      1.304      1.582
REMARK  Name = 
REMARK  6 active torsions:
REMARK  status: ('A' for Active; 'I' for Inactive)
REMARK    1  A    between atoms: C_1  and  C_2
REMARK    2  A    between atoms: C_2  and  C_3
REMARK    3  A    between atoms: C_3  and  N_4
REMARK    4  A    between atoms: N_4  and  C_5
REMARK    5  A    between atoms: C_12  and  C_13
REMARK    6  A    between atoms: C_19  and  C_20
REMARK                            x       y       z     vdW  Elec       q    Type
REMARK                         _______ _______ _______ _____ _____    ______ ____
ROOT
ATOM      1  C   UNL     1       6.182   5.883  17.367  0.00  0.00    +0.000 A 
ATOM      2  C   UNL     1       6.342   4.902  18.356  0.00  0.00    +0.000 A 
ATOM      3  C   UNL     1       5.268   4.140  18.823  0.00  0.00    +0.000 A 
ATOM      4  N   UNL     1       5.539   3.145  19.769  0.00  0.00    +0.000 N 
ATOM      5  C   UNL     1       4.589   2.327  20.295  0.00  0.00    +0.000 A 
ATOM      6  O   UNL     1       4.846   1.448  21.106  0.00  0.00    +0.000 OA
ATOM      7  C   UNL     1       3.209   2.558  19.831  0.00  0.00    +0.000 A 
ATOM      8  C   UNL     1       2.881   3.500  18.928  0.00  0.00    +0.000 A 
ATOM      9  C   UNL     1       3.961   4.349  18.365  0.00  0.00    +0.000 A 
ATOM     10  C   UNL     1       3.789   5.358  17.409  0.00  0.00    +0.000 A 
ATOM     11  C   UNL     1       4.874   6.116  16.898  0.00  0.00    +0.000 A 
ATOM     12  C   UNL     1       4.558   7.204  15.902  0.00  0.00    +0.000 C 
ATOM     13  H   UNL     1       6.484   2.987  20.092  0.00  0.00    +0.000 HD
ENDROOT
BRANCH   8  14
ATOM     14  C   UNL     1       1.433   3.618  18.553  0.00  0.00    +0.000 C 
ATOM     15  F   UNL     1       1.166   4.328  17.432  0.00  0.00    +0.000 F 
ATOM     16  F   UNL     1       0.880   2.390  18.366  0.00  0.00    +0.000 F 
ATOM     17  F   UNL     1       0.720   4.208  19.550  0.00  0.00    +0.000 F 
ENDBRANCH   8  14
BRANCH   1  18
ATOM     18  N   UNL     1       7.256   6.686  16.937  0.00  0.00    +0.000 N 
ATOM     19  H   UNL     1       7.863   6.186  16.291  0.00  0.00    +0.000 HD
BRANCH  18  20
ATOM     20  C   UNL     1       7.983   7.457  17.944  0.00  0.00    +0.000 C 
BRANCH  20  22
ATOM     21  C   UNL     1       8.852   9.690  18.620  0.00  0.00    +0.000 C 
ATOM     22  C   UNL     1       7.878   8.958  17.705  0.00  0.00    +0.000 C 
ENDBRANCH  20  22
ENDBRANCH  18  20
ENDBRANCH   1  18
TORSDOF 4
ENDMDL
MODEL 5
REMARK VINA RESULT:      -7.5      0.697      1.050
REMARK  Name = 
REMARK  6 active torsions:
REMARK  status: ('A' for Active; 'I' for Inactive)
REMARK    1  A    between atoms: C_1  and  C_2
REMARK    2  A    between atoms: C_2  and  C_3
REMARK    3  A    between atoms: C_3  and  N_4
REMARK    4  A    between atoms: N_4  and  C_5
REMARK    5  A    between atoms: C_12  and  C_13
REMARK    6  A    between atoms: C_19  and  C_20
REMARK                            x       y       z     vdW  Elec       q    Type
REMARK                         _______ _______ _______ _____ _____    ______ ____
ROOT
ATOM      1  C   UNL     1       5.609   6.292  17.594  0.00  0.00    +0.000 A 
ATOM      2  C   UNL     1       5.984   5.084  18.199  0.00  0.00    +0.000 A 
ATOM      3  C   UNL     1       5.055   4.256  18.835  0.00  0.00    +0.000 A 
ATOM      4  N   UNL     1       5.516   3.043  19.359  0.00  0.00    +0.000 N 
ATOM      5  C   UNL     1       4.717   2.142  19.989  0.00  0.00    +0.000 A 
ATOM      6  O   UNL     1       5.131   1.076  20.422  0.00  0.00    +0.000 OA
ATOM      7  C   UNL     1       3.300   2.523  20.129  0.00  0.00    +0.000 A 
ATOM      8  C   UNL     1       2.794   3.676  19.654  0.00  0.00    +0.000 A 
ATOM      9  C   UNL     1       3.705   4.613  18.949  0.00  0.00    +0.000 A 
ATOM     10  C   UNL     1       3.334   5.839  18.385  0.00  0.00    +0.000 A 
ATOM     11  C   UNL     1       4.257   6.674  17.703  0.00  0.00    +0.000 A 
ATOM     12  C   UNL     1       3.748   7.991  17.174  0.00  0.00    +0.000 C 
ATOM     13  H   UNL     1       6.489   2.780  19.267  0.00  0.00    +0.000 HD
ENDROOT
BRANCH   8  14
ATOM     14  C   UNL     1       1.331   3.926  19.872  0.00  0.00    +0.000 C 
ATOM     15  F   UNL     1       0.658   2.964  20.545  0.00  0.00    +0.000 F 
ATOM     16  F   UNL     1       1.136   5.080  20.564  0.00  0.00    +0.000 F 
ATOM     17  F   UNL     1       0.682   4.080  18.687  0.00  0.00    +0.000 F 
ENDBRANCH   8  14
BRANCH   1  18
ATOM     18  N   UNL     1       6.555   7.150  17.000  0.00  0.00    +0.000 N 
ATOM     19  H   UNL     1       6.761   6.875  16.042  0.00  0.00    +0.000 HD
BRANCH  18  20
ATOM     20  C   UNL     1       7.743   7.502  17.776  0.00  0.00    +0.000 C 
BRANCH  20  22
ATOM     21  C   UNL     1       8.988   9.339  18.905  0.00  0.00    +0.000 C 
ATOM     22  C   UNL     1       7.983   9.006  17.809  0.00  0.00    +0.000 C 
ENDBRANCH  20  22
ENDBRANCH  18  20
ENDBRANCH   1  18
TORSDOF 4
ENDMDL
MODEL 6
REMARK VINA RESULT:      -7.5      3.822      6.402
REMARK  Name = 
REMARK  6 active torsions:
REMARK  status: ('A' for Active; 'I' for Inactive)
REMARK    1  A    between atoms: C_1  and  C_2
REMARK    2  A    between atoms: C_2  and  C_3
REMARK    3  A    between atoms: C_3  and  N_4
REMARK    4  A    between atoms: N_4  and  C_5
REMARK    5  A    between atoms: C_12  and  C_13
REMARK    6  A    between atoms: C_19  and  C_20
REMARK                            x       y       z     vdW  Elec       q    Type
REMARK                         _______ _______ _______ _____ _____    ______ ____
ROOT
ATOM      1  C   UNL     1       3.322   2.695  18.591  0.00  0.00    +0.000 A 
ATOM      2  C   UNL     1       3.327   3.647  17.561  0.00  0.00    +0.000 A 
ATOM      3  C   UNL     1       4.376   4.556  17.399  0.00  0.00    +0.000 A 
ATOM      4  N   UNL     1       4.318   5.428  16.306  0.00  0.00    +0.000 N 
ATOM      5  C   UNL     1       5.276   6.351  16.027  0.00  0.00    +0.000 A 
ATOM      6  O   UNL     1       5.220   7.092  15.055  0.00  0.00    +0.000 OA
ATOM      7  C   UNL     1       6.405   6.415  16.971  0.00  0.00    +0.000 A 
ATOM      8  C   UNL     1       6.519   5.610  18.043  0.00  0.00    +0.000 A 
ATOM      9  C   UNL     1       5.457   4.601  18.288  0.00  0.00    +0.000 A 
ATOM     10  C   UNL     1       5.435   3.682  19.344  0.00  0.00    +0.000 A 
ATOM     11  C   UNL     1       4.397   2.728  19.502  0.00  0.00    +0.000 A 
ATOM     12  C   UNL     1       4.462   1.818  20.703  0.00  0.00    +0.000 C 
ATOM     13  H   UNL     1       3.542   5.389  15.657  0.00  0.00    +0.000 HD
ENDROOT
BRANCH   8  14
ATOM     14  C   UNL     1       7.726   5.793  18.916  0.00  0.00    +0.000 C 
ATOM     15  F   UNL     1       7.494   5.827  20.249  0.00  0.00    +0.000 F 
ATOM     16  F   UNL     1       8.626   4.796  18.712  0.00  0.00    +0.000 F 
ATOM     17  F   UNL     1       8.369   6.954  18.617  0.00  0.00    +0.000 F 
ENDBRANCH   8  14
BRANCH   1  18
ATOM     18  N   UNL     1       2.240   1.815  18.784  0.00  0.00    +0.000 N 
ATOM     19  H   UNL     1       2.261   1.044  18.122  0.00  0.00    +0.000 HD
BRANCH  18  20
ATOM     20  C   UNL     1       0.910   2.395  18.965  0.00  0.00    +0.000 C 
BRANCH  20  22
ATOM     21  C   UNL     1       1.180   2.794  21.408  0.00  0.00    +0.000 C 
ATOM     22  C   UNL     1       0.886   3.449  20.064  0.00  0.00    +0.000 C 
ENDBRANCH  20  22
ENDBRANCH  18  20
ENDBRANCH   1  18
TORSDOF 4
ENDMDL
MODEL 7
REMARK VINA RESULT:      -7.4      2.442      3.111
REMARK  Name = 
REMARK  6 active torsions:
REMARK  status: ('A' for Active; 'I' for Inactive)
REMARK    1  A    between atoms: C_1  and  C_2
REMARK    2  A    between atoms: C_2  and  C_3
REMARK    3  A    between atoms: C_3  and  N_4
REMARK    4  A    between atoms: N_4  and  C_5
REMARK    5  A    between atoms: C_12  and  C_13
REMARK    6  A    between atoms: C_19  and  C_20
REMARK                            x       y       z     vdW  Elec       q    Type
REMARK                         _______ _______ _______ _____ _____    ______ ____
ROOT
ATOM      1  C   UNL     1       4.900   5.940  17.031  0.00  0.00    +0.000 A 
ATOM      2  C   UNL     1       4.165   6.729  17.927  0.00  0.00    +0.000 A 
ATOM      3  C   UNL     1       3.206   6.179  18.782  0.00  0.00    +0.000 A 
ATOM      4  N   UNL     1       2.566   7.040  19.681  0.00  0.00    +0.000 N 
ATOM      5  C   UNL     1       1.625   6.634  20.573  0.00  0.00    +0.000 A 
ATOM      6  O   UNL     1       1.091   7.395  21.367  0.00  0.00    +0.000 OA
ATOM      7  C   UNL     1       1.274   5.203  20.534  0.00  0.00    +0.000 A 
ATOM      8  C   UNL     1       1.847   4.324  19.692  0.00  0.00    +0.000 A 
ATOM      9  C   UNL     1       2.889   4.816  18.755  0.00  0.00    +0.000 A 
ATOM     10  C   UNL     1       3.589   4.030  17.831  0.00  0.00    +0.000 A 
ATOM     11  C   UNL     1       4.592   4.565  16.982  0.00  0.00    +0.000 A 
ATOM     12  C   UNL     1       5.247   3.628  15.999  0.00  0.00    +0.000 C 
ATOM     13  H   UNL     1       2.803   8.024  19.708  0.00  0.00    +0.000 HD
ENDROOT
BRANCH   8  14
ATOM     14  C   UNL     1       1.386   2.898  19.767  0.00  0.00    +0.000 C 
ATOM     15  F   UNL     1       2.355   1.956  19.695  0.00  0.00    +0.000 F 
ATOM     16  F   UNL     1       0.717   2.667  20.928  0.00  0.00    +0.000 F 
ATOM     17  F   UNL     1       0.512   2.617  18.763  0.00  0.00    +0.000 F 
ENDBRANCH   8  14
BRANCH   1  18
ATOM     18  N   UNL     1       5.828   6.503  16.133  0.00  0.00    +0.000 N 
ATOM     19  H   UNL     1       5.600   6.278  15.168  0.00  0.00    +0.000 HD
BRANCH  18  20
ATOM     20  C   UNL     1       7.250   6.371  16.445  0.00  0.00    +0.000 C 
BRANCH  20  22
ATOM     21  C   UNL     1       7.794   8.475  17.660  0.00  0.00    +0.000 C 
ATOM     22  C   UNL     1       7.600   6.971  17.801  0.00  0.00    +0.000 C 
ENDBRANCH  20  22
ENDBRANCH  18  20
ENDBRANCH   1  18
TORSDOF 4
ENDMDL
MODEL 8
REMARK VINA RESULT:      -7.4      3.592      4.911
REMARK  Name = 
REMARK  6 active torsions:
REMARK  status: ('A' for Active; 'I' for Inactive)
REMARK    1  A    between atoms: C_1  and  C_2
REMARK    2  A    between atoms: C_2  and  C_3
REMARK    3  A    between atoms: C_3  and  N_4
REMARK    4  A    between atoms: N_4  and  C_5
REMARK    5  A    between atoms: C_12  and  C_13
REMARK    6  A    between atoms: C_19  and  C_20
REMARK                            x       y       z     vdW  Elec       q    Type
REMARK                         _______ _______ _______ _____ _____    ______ ____
ROOT
ATOM      1  C   UNL     1       1.783   7.724  20.025  0.00  0.00    +0.000 A 
ATOM      2  C   UNL     1       1.689   6.615  20.879  0.00  0.00    +0.000 A 
ATOM      3  C   UNL     1       2.101   5.340  20.485  0.00  0.00    +0.000 A 
ATOM      4  N   UNL     1       2.022   4.310  21.429  0.00  0.00    +0.000 N 
ATOM      5  C   UNL     1       2.401   3.029  21.179  0.00  0.00    +0.000 A 
ATOM      6  O   UNL     1       2.345   2.144  22.022  0.00  0.00    +0.000 OA
ATOM      7  C   UNL     1       2.891   2.754  19.817  0.00  0.00    +0.000 A 
ATOM      8  C   UNL     1       2.987   3.697  18.862  0.00  0.00    +0.000 A 
ATOM      9  C   UNL     1       2.584   5.087  19.195  0.00  0.00    +0.000 A 
ATOM     10  C   UNL     1       2.639   6.182  18.323  0.00  0.00    +0.000 A 
ATOM     11  C   UNL     1       2.259   7.490  18.720  0.00  0.00    +0.000 A 
ATOM     12  C   UNL     1       2.322   8.580  17.679  0.00  0.00    +0.000 C 
ATOM     13  H   UNL     1       1.683   4.495  22.364  0.00  0.00    +0.000 HD
ENDROOT
BRANCH   8  14
ATOM     14  C   UNL     1       3.503   3.267  17.520  0.00  0.00    +0.000 C 
ATOM     15  F   UNL     1       4.557   3.965  17.038  0.00  0.00    +0.000 F 
ATOM     16  F   UNL     1       3.889   1.964  17.546  0.00  0.00    +0.000 F 
ATOM     17  F   UNL     1       2.529   3.357  16.574  0.00  0.00    +0.000 F 
ENDBRANCH   8  14
BRANCH   1  18
ATOM     18  N   UNL     1       1.318   8.997  20.407  0.00  0.00    +0.000 N 
ATOM     19  H   UNL     1       2.065   9.569  20.793  0.00  0.00    +0.000 HD
BRANCH  18  20
ATOM     20  C   UNL     1       0.070   9.073  21.165  0.00  0.00    +0.000 C 
BRANCH  20  22
ATOM     21  C   UNL     1      -0.859  10.344  23.093  0.00  0.00    +0.000 C 
ATOM     22  C   UNL     1       0.302   9.481  22.614  0.00  0.00    +0.000 C 
ENDBRANCH  20  22
ENDBRANCH  18  20
ENDBRANCH   1  18
TORSDOF 4
ENDMDL
MODEL 9
REMARK VINA RESULT:      -7.4      1.106      1.880
REMARK  Name = 
REMARK  6 active torsions:
REMARK  status: ('A' for Active; 'I' for Inactive)
REMARK    1  A    between atoms: C_1  and  C_2
REMARK    2  A    between atoms: C_2  and  C_3
REMARK    3  A    between atoms: C_3  and  N_4
REMARK    4  A    between atoms: N_4  and  C_5
REMARK    5  A    between atoms: C_12  and  C_13
REMARK    6  A    between atoms: C_19  and  C_20
REMARK                            x       y       z     vdW  Elec       q    Type
REMARK                         _______ _______ _______ _____ _____    ______ ____
ROOT
ATOM      1  C   UNL     1       4.918   6.130  17.742  0.00  0.00    +0.000 A 
ATOM      2  C   UNL     1       5.458   4.979  18.332  0.00  0.00    +0.000 A 
ATOM      3  C   UNL     1       4.685   4.117  19.114  0.00  0.00    +0.000 A 
ATOM      4  N   UNL     1       5.301   2.962  19.612  0.00  0.00    +0.000 N 
ATOM      5  C   UNL     1       4.661   2.037  20.374  0.00  0.00    +0.000 A 
ATOM      6  O   UNL     1       5.208   1.022  20.783  0.00  0.00    +0.000 OA
ATOM      7  C   UNL     1       3.250   2.322  20.688  0.00  0.00    +0.000 A 
ATOM      8  C   UNL     1       2.600   3.415  20.246  0.00  0.00    +0.000 A 
ATOM      9  C   UNL     1       3.339   4.382  19.395  0.00  0.00    +0.000 A 
ATOM     10  C   UNL     1       2.806   5.554  18.844  0.00  0.00    +0.000 A 
ATOM     11  C   UNL     1       3.567   6.421  18.017  0.00  0.00    +0.000 A 
ATOM     12  C   UNL     1       2.895   7.675  17.516  0.00  0.00    +0.000 C 
ATOM     13  H   UNL     1       6.270   2.765  19.401  0.00  0.00    +0.000 HD
ENDROOT
BRANCH   8  14
ATOM     14  C   UNL     1       1.164   3.572  20.649  0.00  0.00    +0.000 C 
ATOM     15  F   UNL     1       0.731   4.842  20.823  0.00  0.00    +0.000 F 
ATOM     16  F   UNL     1       0.339   3.013  19.725  0.00  0.00    +0.000 F 
ATOM     17  F   UNL     1       0.915   2.926  21.820  0.00  0.00    +0.000 F 
ENDBRANCH   8  14
BRANCH   1  18
ATOM     18  N   UNL     1       5.711   7.026  16.998  0.00  0.00    +0.000 N 
ATOM     19  H   UNL     1       5.197   7.869  16.756  0.00  0.00    +0.000 HD
BRANCH  18  20
ATOM     20  C   UNL     1       6.504   6.486  15.895  0.00  0.00    +0.000 C 
BRANCH  20  22
ATOM     21  C   UNL     1       6.580   4.410  14.523  0.00  0.00    +0.000 C 
ATOM     22  C   UNL     1       5.693   5.549  15.009  0.00  0.00    +0.000 C 
ENDBRANCH  20  22
ENDBRANCH  18  20
ENDBRANCH   1  18
TORSDOF 4
ENDMDL
