MODEL 1
REMARK VINA RESULT:      -6.2      0.000      0.000
REMARK  Name = 
REMARK  6 active torsions:
REMARK  status: ('A' for Active; 'I' for Inactive)
REMARK    1  A    between atoms: C_1  and  C_2
REMARK    2  A    between atoms: C_5  and  C_6
REMARK    3  A    between atoms: C_11  and  O_12
REMARK    4  A    between atoms: C_13  and  C_14
REMARK    5  A    between atoms: C_14  and  C_15
REMARK    6  A    between atoms: C_15  and  O_16
REMARK                            x       y       z     vdW  Elec       q    Type
REMARK                         _______ _______ _______ _____ _____    ______ ____
ROOT
ATOM      1  C   UNL     1       2.075   2.014  18.375  0.00  0.00    +0.000 C 
ATOM      2  C   UNL     1       2.696   3.388  18.233  0.00  0.00    +0.000 A 
ATOM      3  N   UNL     1       3.527   3.533  17.236  0.00  0.00    +0.000 NA
ATOM      4  C   UNL     1       4.120   4.750  17.081  0.00  0.00    +0.000 A 
ATOM      5  C   UNL     1       5.034   5.240  16.174  0.00  0.00    +0.000 A 
ATOM      6  C   UNL     1       5.257   6.572  16.555  0.00  0.00    +0.000 A 
ATOM      7  N   UNL     1       4.544   6.929  17.627  0.00  0.00    +0.000 NA
ATOM      8  N   UNL     1       3.845   5.802  17.944  0.00  0.00    +0.000 N 
ATOM      9  C   UNL     1       2.951   5.652  19.010  0.00  0.00    +0.000 A 
ATOM     10  C   UNL     1       2.328   4.475  19.226  0.00  0.00    +0.000 A 
ENDROOT
BRANCH   5  11
ATOM     11  C   UNL     1       5.622   4.536  15.087  0.00  0.00    +0.000 C 
ATOM     12  N   UNL     1       6.087   3.997  14.169  0.00  0.00    +0.000 NA
ENDBRANCH   5  11
BRANCH   9  13
ATOM     13  O   UNL     1       2.737   6.744  19.843  0.00  0.00    +0.000 OA
ATOM     14  H   UNL     1       3.485   7.359  19.670  0.00  0.00    +0.000 HD
ENDBRANCH   9  13
BRANCH  10  15
ATOM     15  C   UNL     1       1.436   4.225  20.414  0.00  0.00    +0.000 C 
BRANCH  15  16
ATOM     16  C   UNL     1       2.149   3.668  21.647  0.00  0.00    +0.000 C 
BRANCH  16  17
ATOM     17  O   UNL     1       1.538   2.467  22.098  0.00  0.00    +0.000 OA
ATOM     18  H   UNL     1       0.596   2.514  21.863  0.00  0.00    +0.000 HD
ENDBRANCH  16  17
ENDBRANCH  15  16
ENDBRANCH  10  15
TORSDOF 5
ENDMDL
MODEL 2
REMARK VINA RESULT:      -6.1      3.008      5.599
REMARK  Name = 
REMARK  6 active torsions:
REMARK  status: ('A' for Active; 'I' for Inactive)
REMARK    1  A    between atoms: C_1  and  C_2
REMARK    2  A    between atoms: C_5  and  C_6
REMARK    3  A    between atoms: C_11  and  O_12
REMARK    4  A    between atoms: C_13  and  C_14
REMARK    5  A    between atoms: C_14  and  C_15
REMARK    6  A    between atoms: C_15  and  O_16
REMARK                            x       y       z     vdW  Elec       q    Type
REMARK                         _______ _______ _______ _____ _____    ______ ____
ROOT
ATOM      1  C   UNL     1       2.514   7.143  18.190  0.00  0.00    +0.000 C 
ATOM      2  C   UNL     1       3.289   5.876  18.485  0.00  0.00    +0.000 A 
ATOM      3  N   UNL     1       2.771   5.095  19.394  0.00  0.00    +0.000 NA
ATOM      4  C   UNL     1       3.444   3.951  19.702  0.00  0.00    +0.000 A 
ATOM      5  C   UNL     1       3.203   2.931  20.596  0.00  0.00    +0.000 A 
ATOM      6  C   UNL     1       4.279   2.043  20.444  0.00  0.00    +0.000 A 
ATOM      7  N   UNL     1       5.155   2.445  19.520  0.00  0.00    +0.000 NA
ATOM      8  N   UNL     1       4.634   3.620  19.066  0.00  0.00    +0.000 N 
ATOM      9  C   UNL     1       5.190   4.452  18.087  0.00  0.00    +0.000 A 
ATOM     10  C   UNL     1       4.579   5.602  17.734  0.00  0.00    +0.000 A 
ENDROOT
BRANCH   5  11
ATOM     11  C   UNL     1       2.098   2.815  21.484  0.00  0.00    +0.000 C 
ATOM     12  N   UNL     1       1.225   2.695  22.240  0.00  0.00    +0.000 NA
ENDBRANCH   5  11
BRANCH   9  13
ATOM     13  O   UNL     1       6.391   4.065  17.506  0.00  0.00    +0.000 OA
ATOM     14  H   UNL     1       7.094   4.371  18.122  0.00  0.00    +0.000 HD
ENDBRANCH   9  13
BRANCH  10  15
ATOM     15  C   UNL     1       5.181   6.584  16.762  0.00  0.00    +0.000 C 
BRANCH  15  16
ATOM     16  C   UNL     1       6.484   7.233  17.230  0.00  0.00    +0.000 C 
BRANCH  16  17
ATOM     17  O   UNL     1       7.610   6.649  16.590  0.00  0.00    +0.000 OA
ATOM     18  H   UNL     1       7.360   5.747  16.326  0.00  0.00    +0.000 HD
ENDBRANCH  16  17
ENDBRANCH  15  16
ENDBRANCH  10  15
TORSDOF 5
ENDMDL
MODEL 3
REMARK VINA RESULT:      -6.1      0.977      1.046
REMARK  Name = 
REMARK  6 active torsions:
REMARK  status: ('A' for Active; 'I' for Inactive)
REMARK    1  A    between atoms: C_1  and  C_2
REMARK    2  A    between atoms: C_5  and  C_6
REMARK    3  A    between atoms: C_11  and  O_12
REMARK    4  A    between atoms: C_13  and  C_14
REMARK    5  A    between atoms: C_14  and  C_15
REMARK    6  A    between atoms: C_15  and  O_16
REMARK                            x       y       z     vdW  Elec       q    Type
REMARK                         _______ _______ _______ _____ _____    ______ ____
ROOT
ATOM      1  C   UNL     1       3.423   1.527  18.527  0.00  0.00    +0.000 C 
ATOM      2  C   UNL     1       3.696   2.994  18.272  0.00  0.00    +0.000 A 
ATOM      3  N   UNL     1       4.325   3.267  17.161  0.00  0.00    +0.000 NA
ATOM      4  C   UNL     1       4.604   4.575  16.898  0.00  0.00    +0.000 A 
ATOM      5  C   UNL     1       5.249   5.207  15.858  0.00  0.00    +0.000 A 
ATOM      6  C   UNL     1       5.222   6.572  16.180  0.00  0.00    +0.000 A 
ATOM      7  N   UNL     1       4.605   6.818  17.339  0.00  0.00    +0.000 NA
ATOM      8  N   UNL     1       4.226   5.583  17.775  0.00  0.00    +0.000 N 
ATOM      9  C   UNL     1       3.547   5.295  18.964  0.00  0.00    +0.000 A 
ATOM     10  C   UNL     1       3.239   4.022  19.290  0.00  0.00    +0.000 A 
ENDROOT
BRANCH   5  11
ATOM     11  C   UNL     1       5.821   4.596  14.708  0.00  0.00    +0.000 C 
ATOM     12  N   UNL     1       6.255   4.061  13.773  0.00  0.00    +0.000 NA
ENDBRANCH   5  11
BRANCH   9  13
ATOM     13  O   UNL     1       3.215   6.354  19.800  0.00  0.00    +0.000 OA
ATOM     14  H   UNL     1       2.851   7.052  19.212  0.00  0.00    +0.000 HD
ENDBRANCH   9  13
BRANCH  10  15
ATOM     15  C   UNL     1       2.601   3.644  20.601  0.00  0.00    +0.000 C 
BRANCH  15  16
ATOM     16  C   UNL     1       1.083   3.826  20.653  0.00  0.00    +0.000 C 
BRANCH  16  17
ATOM     17  O   UNL     1       0.420   2.865  19.843  0.00  0.00    +0.000 OA
ATOM     18  H   UNL     1       1.082   2.209  19.567  0.00  0.00    +0.000 HD
ENDBRANCH  16  17
ENDBRANCH  15  16
ENDBRANCH  10  15
TORSDOF 5
ENDMDL
MODEL 4
REMARK VINA RESULT:      -5.9      2.538      3.590
REMARK  Name = 
REMARK  6 active torsions:
REMARK  status: ('A' for Active; 'I' for Inactive)
REMARK    1  A    between atoms: C_1  and  C_2
REMARK    2  A    between atoms: C_5  and  C_6
REMARK    3  A    between atoms: C_11  and  O_12
REMARK    4  A    between atoms: C_13  and  C_14
REMARK    5  A    between atoms: C_14  and  C_15
REMARK    6  A    between atoms: C_15  and  O_16
REMARK                            x       y       z     vdW  Elec       q    Type
REMARK                         _______ _______ _______ _____ _____    ______ ____
ROOT
ATOM      1  C   UNL     1       2.186   7.171  17.861  0.00  0.00    +0.000 C 
ATOM      2  C   UNL     1       3.384   6.246  17.844  0.00  0.00    +0.000 A 
ATOM      3  N   UNL     1       4.551   6.832  17.842  0.00  0.00    +0.000 NA
ATOM      4  C   UNL     1       5.657   6.036  17.812  0.00  0.00    +0.000 A 
ATOM      5  C   UNL     1       7.007   6.306  17.786  0.00  0.00    +0.000 A 
ATOM      6  C   UNL     1       7.636   5.051  17.750  0.00  0.00    +0.000 A 
ATOM      7  N   UNL     1       6.766   4.038  17.753  0.00  0.00    +0.000 NA
ATOM      8  N   UNL     1       5.550   4.651  17.793  0.00  0.00    +0.000 N 
ATOM      9  C   UNL     1       4.300   4.020  17.801  0.00  0.00    +0.000 A 
ATOM     10  C   UNL     1       3.163   4.745  17.829  0.00  0.00    +0.000 A 
ENDROOT
BRANCH   5  11
ATOM     11  C   UNL     1       7.624   7.587  17.793  0.00  0.00    +0.000 C 
ATOM     12  N   UNL     1       8.084   8.654  17.802  0.00  0.00    +0.000 NA
ENDBRANCH   5  11
BRANCH   9  13
ATOM     13  O   UNL     1       4.270   2.631  17.765  0.00  0.00    +0.000 OA
ATOM     14  H   UNL     1       3.389   2.376  18.119  0.00  0.00    +0.000 HD
ENDBRANCH   9  13
BRANCH  10  15
ATOM     15  C   UNL     1       1.793   4.124  17.736  0.00  0.00    +0.000 C 
BRANCH  15  16
ATOM     16  C   UNL     1       1.382   3.290  18.950  0.00  0.00    +0.000 C 
BRANCH  16  17
ATOM     17  O   UNL     1       1.497   1.899  18.683  0.00  0.00    +0.000 OA
ATOM     18  H   UNL     1       1.018   1.427  19.385  0.00  0.00    +0.000 HD
ENDBRANCH  16  17
ENDBRANCH  15  16
ENDBRANCH  10  15
TORSDOF 5
ENDMDL
MODEL 5
REMARK VINA RESULT:      -5.9      1.951      2.190
REMARK  Name = 
REMARK  6 active torsions:
REMARK  status: ('A' for Active; 'I' for Inactive)
REMARK    1  A    between atoms: C_1  and  C_2
REMARK    2  A    between atoms: C_5  and  C_6
REMARK    3  A    between atoms: C_11  and  O_12
REMARK    4  A    between atoms: C_13  and  C_14
REMARK    5  A    between atoms: C_14  and  C_15
REMARK    6  A    between atoms: C_15  and  O_16
REMARK                            x       y       z     vdW  Elec       q    Type
REMARK                         _______ _______ _______ _____ _____    ______ ____
ROOT
ATOM      1  C   UNL     1       2.003   3.451  17.547  0.00  0.00    +0.000 C 
ATOM      2  C   UNL     1       3.464   3.851  17.558  0.00  0.00    +0.000 A 
ATOM      3  N   UNL     1       4.069   3.811  16.402  0.00  0.00    +0.000 NA
ATOM      4  C   UNL     1       5.389   4.149  16.368  0.00  0.00    +0.000 A 
ATOM      5  C   UNL     1       6.319   4.203  15.354  0.00  0.00    +0.000 A 
ATOM      6  C   UNL     1       7.512   4.616  15.965  0.00  0.00    +0.000 A 
ATOM      7  N   UNL     1       7.376   4.820  17.278  0.00  0.00    +0.000 NA
ATOM      8  N   UNL     1       6.065   4.532  17.519  0.00  0.00    +0.000 N 
ATOM      9  C   UNL     1       5.418   4.581  18.759  0.00  0.00    +0.000 A 
ATOM     10  C   UNL     1       4.113   4.258  18.867  0.00  0.00    +0.000 A 
ENDROOT
BRANCH   5  11
ATOM     11  C   UNL     1       6.106   3.899  13.980  0.00  0.00    +0.000 C 
ATOM     12  N   UNL     1       5.980   3.650  12.853  0.00  0.00    +0.000 NA
ENDBRANCH   5  11
BRANCH   9  13
ATOM     13  O   UNL     1       6.163   4.957  19.870  0.00  0.00    +0.000 OA
ATOM     14  H   UNL     1       6.401   5.900  19.723  0.00  0.00    +0.000 HD
ENDBRANCH   9  13
BRANCH  10  15
ATOM     15  C   UNL     1       3.391   4.195  20.189  0.00  0.00    +0.000 C 
BRANCH  15  16
ATOM     16  C   UNL     1       3.292   2.797  20.800  0.00  0.00    +0.000 C 
BRANCH  16  17
ATOM     17  O   UNL     1       2.592   2.823  22.036  0.00  0.00    +0.000 OA
ATOM     18  H   UNL     1       3.226   3.084  22.725  0.00  0.00    +0.000 HD
ENDBRANCH  16  17
ENDBRANCH  15  16
ENDBRANCH  10  15
TORSDOF 5
ENDMDL
MODEL 6
REMARK VINA RESULT:      -5.9      1.678      2.852
REMARK  Name = 
REMARK  6 active torsions:
REMARK  status: ('A' for Active; 'I' for Inactive)
REMARK    1  A    between atoms: C_1  and  C_2
REMARK    2  A    between atoms: C_5  and  C_6
REMARK    3  A    between atoms: C_11  and  O_12
REMARK    4  A    between atoms: C_13  and  C_14
REMARK    5  A    between atoms: C_14  and  C_15
REMARK    6  A    between atoms: C_15  and  O_16
REMARK                            x       y       z     vdW  Elec       q    Type
REMARK                         _______ _______ _______ _____ _____    ______ ____
ROOT
ATOM      1  C   UNL     1       2.056   6.523  20.596  0.00  0.00    +0.000 C 
ATOM      2  C   UNL     1       2.743   5.619  19.594  0.00  0.00    +0.000 A 
ATOM      3  N   UNL     1       3.771   6.136  18.979  0.00  0.00    +0.000 NA
ATOM      4  C   UNL     1       4.411   5.362  18.058  0.00  0.00    +0.000 A 
ATOM      5  C   UNL     1       5.491   5.583  17.233  0.00  0.00    +0.000 A 
ATOM      6  C   UNL     1       5.653   4.393  16.506  0.00  0.00    +0.000 A 
ATOM      7  N   UNL     1       4.751   3.463  16.831  0.00  0.00    +0.000 NA
ATOM      8  N   UNL     1       3.991   4.066  17.788  0.00  0.00    +0.000 N 
ATOM      9  C   UNL     1       2.891   3.506  18.449  0.00  0.00    +0.000 A 
ATOM     10  C   UNL     1       2.210   4.216  19.373  0.00  0.00    +0.000 A 
ENDROOT
BRANCH   5  11
ATOM     11  C   UNL     1       6.270   6.770  17.141  0.00  0.00    +0.000 C 
ATOM     12  N   UNL     1       6.944   7.712  17.055  0.00  0.00    +0.000 NA
ENDBRANCH   5  11
BRANCH   9  13
ATOM     13  O   UNL     1       2.518   2.210  18.116  0.00  0.00    +0.000 OA
ATOM     14  H   UNL     1       1.823   1.960  18.765  0.00  0.00    +0.000 HD
ENDBRANCH   9  13
BRANCH  10  15
ATOM     15  C   UNL     1       0.960   3.703  20.042  0.00  0.00    +0.000 C 
BRANCH  15  16
ATOM     16  C   UNL     1       1.203   2.733  21.197  0.00  0.00    +0.000 C 
BRANCH  16  17
ATOM     17  O   UNL     1       2.103   3.279  22.151  0.00  0.00    +0.000 OA
ATOM     18  H   UNL     1       1.788   4.172  22.370  0.00  0.00    +0.000 HD
ENDBRANCH  16  17
ENDBRANCH  15  16
ENDBRANCH  10  15
TORSDOF 5
ENDMDL
MODEL 7
REMARK VINA RESULT:      -5.9      1.501      1.544
REMARK  Name = 
REMARK  6 active torsions:
REMARK  status: ('A' for Active; 'I' for Inactive)
REMARK    1  A    between atoms: C_1  and  C_2
REMARK    2  A    between atoms: C_5  and  C_6
REMARK    3  A    between atoms: C_11  and  O_12
REMARK    4  A    between atoms: C_13  and  C_14
REMARK    5  A    between atoms: C_14  and  C_15
REMARK    6  A    between atoms: C_15  and  O_16
REMARK                            x       y       z     vdW  Elec       q    Type
REMARK                         _______ _______ _______ _____ _____    ______ ____
ROOT
ATOM      1  C   UNL     1       4.486   2.134  20.163  0.00  0.00    +0.000 C 
ATOM      2  C   UNL     1       4.220   3.488  19.539  0.00  0.00    +0.000 A 
ATOM      3  N   UNL     1       4.987   3.808  18.532  0.00  0.00    +0.000 NA
ATOM      4  C   UNL     1       4.791   5.024  17.950  0.00  0.00    +0.000 A 
ATOM      5  C   UNL     1       5.409   5.677  16.907  0.00  0.00    +0.000 A 
ATOM      6  C   UNL     1       4.751   6.912  16.799  0.00  0.00    +0.000 A 
ATOM      7  N   UNL     1       3.776   7.058  17.700  0.00  0.00    +0.000 NA
ATOM      8  N   UNL     1       3.805   5.891  18.405  0.00  0.00    +0.000 N 
ATOM      9  C   UNL     1       2.977   5.550  19.481  0.00  0.00    +0.000 A 
ATOM     10  C   UNL     1       3.116   4.362  20.106  0.00  0.00    +0.000 A 
ENDROOT
BRANCH   5  11
ATOM     11  C   UNL     1       6.486   5.194  16.114  0.00  0.00    +0.000 C 
ATOM     12  N   UNL     1       7.354   4.754  15.479  0.00  0.00    +0.000 NA
ENDBRANCH   5  11
BRANCH   9  13
ATOM     13  O   UNL     1       2.024   6.474  19.891  0.00  0.00    +0.000 OA
ATOM     14  H   UNL     1       1.549   6.050  20.640  0.00  0.00    +0.000 HD
ENDBRANCH   9  13
BRANCH  10  15
ATOM     15  C   UNL     1       2.324   3.983  21.330  0.00  0.00    +0.000 C 
BRANCH  15  16
ATOM     16  C   UNL     1       1.270   2.900  21.104  0.00  0.00    +0.000 C 
BRANCH  16  17
ATOM     17  O   UNL     1       0.341   3.285  20.100  0.00  0.00    +0.000 OA
ATOM     18  H   UNL     1       0.035   2.474  19.659  0.00  0.00    +0.000 HD
ENDBRANCH  16  17
ENDBRANCH  15  16
ENDBRANCH  10  15
TORSDOF 5
ENDMDL
MODEL 8
REMARK VINA RESULT:      -5.8      1.954      2.377
REMARK  Name = 
REMARK  6 active torsions:
REMARK  status: ('A' for Active; 'I' for Inactive)
REMARK    1  A    between atoms: C_1  and  C_2
REMARK    2  A    between atoms: C_5  and  C_6
REMARK    3  A    between atoms: C_11  and  O_12
REMARK    4  A    between atoms: C_13  and  C_14
REMARK    5  A    between atoms: C_14  and  C_15
REMARK    6  A    between atoms: C_15  and  O_16
REMARK                            x       y       z     vdW  Elec       q    Type
REMARK                         _______ _______ _______ _____ _____    ______ ____
ROOT
ATOM      1  C   UNL     1       0.877   3.699  18.047  0.00  0.00    +0.000 C 
ATOM      2  C   UNL     1       2.365   3.764  18.315  0.00  0.00    +0.000 A 
ATOM      3  N   UNL     1       3.049   4.547  17.525  0.00  0.00    +0.000 NA
ATOM      4  C   UNL     1       4.395   4.624  17.723  0.00  0.00    +0.000 A 
ATOM      5  C   UNL     1       5.400   5.318  17.085  0.00  0.00    +0.000 A 
ATOM      6  C   UNL     1       6.580   4.964  17.758  0.00  0.00    +0.000 A 
ATOM      7  N   UNL     1       6.366   4.107  18.760  0.00  0.00    +0.000 NA
ATOM      8  N   UNL     1       5.019   3.903  18.733  0.00  0.00    +0.000 N 
ATOM      9  C   UNL     1       4.288   3.067  19.586  0.00  0.00    +0.000 A 
ATOM     10  C   UNL     1       2.952   2.941  19.447  0.00  0.00    +0.000 A 
ENDROOT
BRANCH   5  11
ATOM     11  C   UNL     1       5.261   6.201  15.979  0.00  0.00    +0.000 C 
ATOM     12  N   UNL     1       5.186   6.947  15.092  0.00  0.00    +0.000 NA
ENDBRANCH   5  11
BRANCH   9  13
ATOM     13  O   UNL     1       4.981   2.364  20.563  0.00  0.00    +0.000 OA
ATOM     14  H   UNL     1       4.377   2.321  21.337  0.00  0.00    +0.000 HD
ENDBRANCH   9  13
BRANCH  10  15
ATOM     15  C   UNL     1       2.130   1.980  20.268  0.00  0.00    +0.000 C 
BRANCH  15  16
ATOM     16  C   UNL     1       1.471   2.592  21.504  0.00  0.00    +0.000 C 
BRANCH  16  17
ATOM     17  O   UNL     1       2.432   3.208  22.350  0.00  0.00    +0.000 OA
ATOM     18  H   UNL     1       2.564   2.624  23.115  0.00  0.00    +0.000 HD
ENDBRANCH  16  17
ENDBRANCH  15  16
ENDBRANCH  10  15
TORSDOF 5
ENDMDL
MODEL 9
REMARK VINA RESULT:      -5.8      3.449      4.533
REMARK  Name = 
REMARK  6 active torsions:
REMARK  status: ('A' for Active; 'I' for Inactive)
REMARK    1  A    between atoms: C_1  and  C_2
REMARK    2  A    between atoms: C_5  and  C_6
REMARK    3  A    between atoms: C_11  and  O_12
REMARK    4  A    between atoms: C_13  and  C_14
REMARK    5  A    between atoms: C_14  and  C_15
REMARK    6  A    between atoms: C_15  and  O_16
REMARK                            x       y       z     vdW  Elec       q    Type
REMARK                         _______ _______ _______ _____ _____    ______ ____
ROOT
ATOM      1  C   UNL     1       3.733   3.879  17.182  0.00  0.00    +0.000 C 
ATOM      2  C   UNL     1       4.896   4.391  16.358  0.00  0.00    +0.000 A 
ATOM      3  N   UNL     1       5.004   3.888  15.158  0.00  0.00    +0.000 NA
ATOM      4  C   UNL     1       6.045   4.310  14.388  0.00  0.00    +0.000 A 
ATOM      5  C   UNL     1       6.463   3.989  13.115  0.00  0.00    +0.000 A 
ATOM      6  C   UNL     1       7.613   4.761  12.896  0.00  0.00    +0.000 A 
ATOM      7  N   UNL     1       7.925   5.531  13.941  0.00  0.00    +0.000 NA
ATOM      8  N   UNL     1       6.955   5.250  14.856  0.00  0.00    +0.000 N 
ATOM      9  C   UNL     1       6.839   5.796  16.139  0.00  0.00    +0.000 A 
ATOM     10  C   UNL     1       5.833   5.423  16.958  0.00  0.00    +0.000 A 
ENDROOT
BRANCH   5  11
ATOM     11  C   UNL     1       5.852   3.066  12.222  0.00  0.00    +0.000 C 
ATOM     12  N   UNL     1       5.317   2.305  11.525  0.00  0.00    +0.000 NA
ENDBRANCH   5  11
BRANCH   9  13
ATOM     13  O   UNL     1       7.795   6.719  16.546  0.00  0.00    +0.000 OA
ATOM     14  H   UNL     1       8.563   6.187  16.851  0.00  0.00    +0.000 HD
ENDBRANCH   9  13
BRANCH  10  15
ATOM     15  C   UNL     1       5.717   5.900  18.383  0.00  0.00    +0.000 C 
BRANCH  15  16
ATOM     16  C   UNL     1       6.695   5.247  19.360  0.00  0.00    +0.000 C 
BRANCH  16  17
ATOM     17  O   UNL     1       7.889   6.007  19.479  0.00  0.00    +0.000 OA
ATOM     18  H   UNL     1       7.855   6.711  18.810  0.00  0.00    +0.000 HD
ENDBRANCH  16  17
ENDBRANCH  15  16
ENDBRANCH  10  15
TORSDOF 5
ENDMDL
