MODEL 1
REMARK VINA RESULT:      -7.3      0.000      0.000
REMARK  Name = 
REMARK  9 active torsions:
REMARK  status: ('A' for Active; 'I' for Inactive)
REMARK    1  A    between atoms: C_1  and  O_2
REMARK    2  A    between atoms: O_2  and  C_3
REMARK    3  A    between atoms: C_6  and  C_7
REMARK    4  A    between atoms: N_8  and  N_9
REMARK    5  A    between atoms: C_10  and  C_11
REMARK    6  A    between atoms: C_15  and  C_16
REMARK    7  A    between atoms: C_17  and  C_18
REMARK    8  A    between atoms: C_23  and  O_24
REMARK    9  A    between atoms: O_24  and  C_25
REMARK                            x       y       z     vdW  Elec       q    Type
REMARK                         _______ _______ _______ _____ _____    ______ ____
ROOT
ATOM      1  N   UNL     1       2.610   6.259  19.527  0.00  0.00    +0.000 N 
ATOM      2  C   UNL     1       2.385   4.898  19.759  0.00  0.00    +0.000 A 
ATOM      3  C   UNL     1       1.495   4.486  20.913  0.00  0.00    +0.000 C 
ATOM      4  N   UNL     1       2.908   3.933  19.062  0.00  0.00    +0.000 NA
ATOM      5  C   UNL     1       3.689   4.324  18.030  0.00  0.00    +0.000 A 
ATOM      6  S   UNL     1       4.496   3.186  17.060  0.00  0.00    +0.000 S 
ATOM      7  C   UNL     1       5.137   4.398  16.039  0.00  0.00    +0.000 A 
ATOM      8  C   UNL     1       5.989   3.997  14.880  0.00  0.00    +0.000 C 
ATOM      9  C   UNL     1       4.753   5.673  16.434  0.00  0.00    +0.000 A 
ATOM     10  C   UNL     1       5.129   6.943  15.738  0.00  0.00    +0.000 C 
ATOM     11  C   UNL     1       3.924   5.611  17.614  0.00  0.00    +0.000 A 
ATOM     12  C   UNL     1       3.309   6.694  18.375  0.00  0.00    +0.000 A 
ATOM     13  O   UNL     1       3.392   7.860  17.994  0.00  0.00    +0.000 OA
ENDROOT
BRANCH   1  15
ATOM     14  C   UNL     1       1.306   8.142  19.878  0.00  0.00    +0.000 C 
ATOM     15  N   UNL     1       1.986   7.165  20.391  0.00  0.00    +0.000 NA
BRANCH  14  19
ATOM     16  C   UNL     1      -0.519  11.119  22.353  0.00  0.00    +0.000 A 
ATOM     17  C   UNL     1      -0.474   9.780  22.778  0.00  0.00    +0.000 A 
ATOM     18  C   UNL     1       0.104   8.791  21.972  0.00  0.00    +0.000 A 
ATOM     19  C   UNL     1       0.599   9.133  20.717  0.00  0.00    +0.000 A 
ATOM     20  C   UNL     1       0.464  10.441  20.249  0.00  0.00    +0.000 A 
ATOM     21  C   UNL     1      -0.095  11.446  21.056  0.00  0.00    +0.000 A 
BRANCH  16  23
ATOM     22  C   UNL     1      -2.418  12.240  23.218  0.00  0.00    +0.000 C 
ATOM     23  O   UNL     1      -0.996  12.098  23.185  0.00  0.00    +0.000 OA
ENDBRANCH  16  23
BRANCH  21  24
ATOM     24  O   UNL     1      -0.110  12.661  20.423  0.00  0.00    +0.000 OA
ATOM     25  C   UNL     1      -1.104  12.926  19.447  0.00  0.00    +0.000 C 
ENDBRANCH  21  24
ENDBRANCH  14  19
ENDBRANCH   1  15
TORSDOF 4
ENDMDL
MODEL 2
REMARK VINA RESULT:      -7.2      3.285      8.581
REMARK  Name = 
REMARK  9 active torsions:
REMARK  status: ('A' for Active; 'I' for Inactive)
REMARK    1  A    between atoms: C_1  and  O_2
REMARK    2  A    between atoms: O_2  and  C_3
REMARK    3  A    between atoms: C_6  and  C_7
REMARK    4  A    between atoms: N_8  and  N_9
REMARK    5  A    between atoms: C_10  and  C_11
REMARK    6  A    between atoms: C_15  and  C_16
REMARK    7  A    between atoms: C_17  and  C_18
REMARK    8  A    between atoms: C_23  and  O_24
REMARK    9  A    between atoms: O_24  and  C_25
REMARK                            x       y       z     vdW  Elec       q    Type
REMARK                         _______ _______ _______ _____ _____    ______ ____
ROOT
ATOM      1  N   UNL     1       1.176   9.239  20.182  0.00  0.00    +0.000 N 
ATOM      2  C   UNL     1       1.128   9.890  18.945  0.00  0.00    +0.000 A 
ATOM      3  C   UNL     1       1.903   9.312  17.779  0.00  0.00    +0.000 C 
ATOM      4  N   UNL     1       0.474  10.990  18.714  0.00  0.00    +0.000 NA
ATOM      5  C   UNL     1      -0.220  11.481  19.764  0.00  0.00    +0.000 A 
ATOM      6  S   UNL     1      -1.076  12.944  19.645  0.00  0.00    +0.000 S 
ATOM      7  C   UNL     1      -1.677  12.810  21.240  0.00  0.00    +0.000 A 
ATOM      8  C   UNL     1      -2.589  13.869  21.765  0.00  0.00    +0.000 C 
ATOM      9  C   UNL     1      -1.223  11.662  21.876  0.00  0.00    +0.000 A 
ATOM     10  C   UNL     1      -1.585  11.246  23.268  0.00  0.00    +0.000 C 
ATOM     11  C   UNL     1      -0.354  10.907  21.005  0.00  0.00    +0.000 A 
ATOM     12  C   UNL     1       0.351   9.655  21.255  0.00  0.00    +0.000 A 
ATOM     13  O   UNL     1       0.189   9.037  22.305  0.00  0.00    +0.000 OA
ENDROOT
BRANCH   1  15
ATOM     14  C   UNL     1       1.367   6.931  20.084  0.00  0.00    +0.000 C 
ATOM     15  N   UNL     1       1.950   8.076  20.261  0.00  0.00    +0.000 NA
BRANCH  14  19
ATOM     16  C   UNL     1       3.479   3.209  19.977  0.00  0.00    +0.000 A 
ATOM     17  C   UNL     1       2.255   3.306  20.661  0.00  0.00    +0.000 A 
ATOM     18  C   UNL     1       1.560   4.520  20.720  0.00  0.00    +0.000 A 
ATOM     19  C   UNL     1       2.112   5.655  20.131  0.00  0.00    +0.000 A 
ATOM     20  C   UNL     1       3.375   5.587  19.541  0.00  0.00    +0.000 A 
ATOM     21  C   UNL     1       4.072   4.371  19.457  0.00  0.00    +0.000 A 
BRANCH  16  23
ATOM     22  C   UNL     1       3.776   1.265  18.658  0.00  0.00    +0.000 C 
ATOM     23  O   UNL     1       4.107   2.000  19.838  0.00  0.00    +0.000 OA
ENDBRANCH  16  23
BRANCH  21  24
ATOM     24  O   UNL     1       5.275   4.514  18.818  0.00  0.00    +0.000 OA
ATOM     25  C   UNL     1       5.315   4.508  17.400  0.00  0.00    +0.000 C 
ENDBRANCH  21  24
ENDBRANCH  14  19
ENDBRANCH   1  15
TORSDOF 4
ENDMDL
MODEL 3
REMARK VINA RESULT:      -7.0      1.881      2.786
REMARK  Name = 
REMARK  9 active torsions:
REMARK  status: ('A' for Active; 'I' for Inactive)
REMARK    1  A    between atoms: C_1  and  O_2
REMARK    2  A    between atoms: O_2  and  C_3
REMARK    3  A    between atoms: C_6  and  C_7
REMARK    4  A    between atoms: N_8  and  N_9
REMARK    5  A    between atoms: C_10  and  C_11
REMARK    6  A    between atoms: C_15  and  C_16
REMARK    7  A    between atoms: C_17  and  C_18
REMARK    8  A    between atoms: C_23  and  O_24
REMARK    9  A    between atoms: O_24  and  C_25
REMARK                            x       y       z     vdW  Elec       q    Type
REMARK                         _______ _______ _______ _____ _____    ______ ____
ROOT
ATOM      1  N   UNL     1       2.257   6.963  19.627  0.00  0.00    +0.000 N 
ATOM      2  C   UNL     1       2.762   7.163  18.339  0.00  0.00    +0.000 A 
ATOM      3  C   UNL     1       2.768   8.562  17.760  0.00  0.00    +0.000 C 
ATOM      4  N   UNL     1       3.219   6.220  17.569  0.00  0.00    +0.000 NA
ATOM      5  C   UNL     1       3.216   4.981  18.111  0.00  0.00    +0.000 A 
ATOM      6  S   UNL     1       3.721   3.630  17.213  0.00  0.00    +0.000 S 
ATOM      7  C   UNL     1       3.500   2.572  18.539  0.00  0.00    +0.000 A 
ATOM      8  C   UNL     1       3.824   1.124  18.376  0.00  0.00    +0.000 C 
ATOM      9  C   UNL     1       3.030   3.235  19.665  0.00  0.00    +0.000 A 
ATOM     10  C   UNL     1       2.756   2.597  20.991  0.00  0.00    +0.000 C 
ATOM     11  C   UNL     1       2.849   4.640  19.390  0.00  0.00    +0.000 A 
ATOM     12  C   UNL     1       2.370   5.704  20.265  0.00  0.00    +0.000 A 
ATOM     13  O   UNL     1       2.127   5.486  21.451  0.00  0.00    +0.000 OA
ENDROOT
BRANCH   1  15
ATOM     14  C   UNL     1       0.505   8.210  20.493  0.00  0.00    +0.000 C 
ATOM     15  N   UNL     1       1.783   8.090  20.308  0.00  0.00    +0.000 NA
BRANCH  14  19
ATOM     16  C   UNL     1      -0.959  11.639  22.596  0.00  0.00    +0.000 A 
ATOM     17  C   UNL     1      -0.897  10.391  23.239  0.00  0.00    +0.000 A 
ATOM     18  C   UNL     1      -0.437   9.256  22.560  0.00  0.00    +0.000 A 
ATOM     19  C   UNL     1      -0.079   9.359  21.219  0.00  0.00    +0.000 A 
ATOM     20  C   UNL     1      -0.236  10.572  20.548  0.00  0.00    +0.000 A 
ATOM     21  C   UNL     1      -0.677  11.722  21.223  0.00  0.00    +0.000 A 
BRANCH  16  23
ATOM     22  C   UNL     1      -2.721  12.984  23.429  0.00  0.00    +0.000 C 
ATOM     23  O   UNL     1      -1.316  12.765  23.291  0.00  0.00    +0.000 OA
ENDBRANCH  16  23
BRANCH  21  24
ATOM     24  O   UNL     1      -0.735  12.811  20.395  0.00  0.00    +0.000 OA
ATOM     25  C   UNL     1       0.442  13.251  19.737  0.00  0.00    +0.000 C 
ENDBRANCH  21  24
ENDBRANCH  14  19
ENDBRANCH   1  15
TORSDOF 4
ENDMDL
MODEL 4
REMARK VINA RESULT:      -7.0      3.035      8.625
REMARK  Name = 
REMARK  9 active torsions:
REMARK  status: ('A' for Active; 'I' for Inactive)
REMARK    1  A    between atoms: C_1  and  O_2
REMARK    2  A    between atoms: O_2  and  C_3
REMARK    3  A    between atoms: C_6  and  C_7
REMARK    4  A    between atoms: N_8  and  N_9
REMARK    5  A    between atoms: C_10  and  C_11
REMARK    6  A    between atoms: C_15  and  C_16
REMARK    7  A    between atoms: C_17  and  C_18
REMARK    8  A    between atoms: C_23  and  O_24
REMARK    9  A    between atoms: O_24  and  C_25
REMARK                            x       y       z     vdW  Elec       q    Type
REMARK                         _______ _______ _______ _____ _____    ______ ____
ROOT
ATOM      1  N   UNL     1       1.554   8.370  19.248  0.00  0.00    +0.000 N 
ATOM      2  C   UNL     1       1.296   7.928  20.549  0.00  0.00    +0.000 A 
ATOM      3  C   UNL     1       1.599   6.489  20.910  0.00  0.00    +0.000 C 
ATOM      4  N   UNL     1       0.785   8.663  21.492  0.00  0.00    +0.000 NA
ATOM      5  C   UNL     1       0.534   9.947  21.151  0.00  0.00    +0.000 A 
ATOM      6  S   UNL     1      -0.192  11.021  22.249  0.00  0.00    +0.000 S 
ATOM      7  C   UNL     1      -0.088  12.330  21.154  0.00  0.00    +0.000 A 
ATOM      8  C   UNL     1      -0.584  13.674  21.577  0.00  0.00    +0.000 C 
ATOM      9  C   UNL     1       0.486  11.958  19.946  0.00  0.00    +0.000 A 
ATOM     10  C   UNL     1       0.736  12.875  18.790  0.00  0.00    +0.000 C 
ATOM     11  C   UNL     1       0.824  10.554  19.954  0.00  0.00    +0.000 A 
ATOM     12  C   UNL     1       1.430   9.739  18.907  0.00  0.00    +0.000 A 
ATOM     13  O   UNL     1       1.810  10.244  17.853  0.00  0.00    +0.000 OA
ENDROOT
BRANCH   1  15
ATOM     14  C   UNL     1       3.374   7.328  18.262  0.00  0.00    +0.000 C 
ATOM     15  N   UNL     1       2.085   7.437  18.350  0.00  0.00    +0.000 NA
BRANCH  14  19
ATOM     16  C   UNL     1       5.400   4.455  15.818  0.00  0.00    +0.000 A 
ATOM     17  C   UNL     1       5.497   5.826  15.522  0.00  0.00    +0.000 A 
ATOM     18  C   UNL     1       4.827   6.777  16.301  0.00  0.00    +0.000 A 
ATOM     19  C   UNL     1       4.019   6.355  17.354  0.00  0.00    +0.000 A 
ATOM     20  C   UNL     1       3.838   4.991  17.586  0.00  0.00    +0.000 A 
ATOM     21  C   UNL     1       4.521   4.028  16.826  0.00  0.00    +0.000 A 
BRANCH  16  23
ATOM     22  C   UNL     1       6.324   3.830  13.729  0.00  0.00    +0.000 C 
ATOM     23  O   UNL     1       6.134   3.537  15.115  0.00  0.00    +0.000 OA
ENDBRANCH  16  23
BRANCH  21  24
ATOM     24  O   UNL     1       4.228   2.753  17.231  0.00  0.00    +0.000 OA
ATOM     25  C   UNL     1       2.935   2.462  17.737  0.00  0.00    +0.000 C 
ENDBRANCH  21  24
ENDBRANCH  14  19
ENDBRANCH   1  15
TORSDOF 4
ENDMDL
MODEL 5
REMARK VINA RESULT:      -6.9      3.734      8.733
REMARK  Name = 
REMARK  9 active torsions:
REMARK  status: ('A' for Active; 'I' for Inactive)
REMARK    1  A    between atoms: C_1  and  O_2
REMARK    2  A    between atoms: O_2  and  C_3
REMARK    3  A    between atoms: C_6  and  C_7
REMARK    4  A    between atoms: N_8  and  N_9
REMARK    5  A    between atoms: C_10  and  C_11
REMARK    6  A    between atoms: C_15  and  C_16
REMARK    7  A    between atoms: C_17  and  C_18
REMARK    8  A    between atoms: C_23  and  O_24
REMARK    9  A    between atoms: O_24  and  C_25
REMARK                            x       y       z     vdW  Elec       q    Type
REMARK                         _______ _______ _______ _____ _____    ______ ____
ROOT
ATOM      1  N   UNL     1      -0.073  10.470  21.011  0.00  0.00    +0.000 N 
ATOM      2  C   UNL     1      -0.304  10.566  22.386  0.00  0.00    +0.000 A 
ATOM      3  C   UNL     1      -0.193   9.319  23.239  0.00  0.00    +0.000 C 
ATOM      4  N   UNL     1      -0.637  11.659  23.006  0.00  0.00    +0.000 NA
ATOM      5  C   UNL     1      -0.718  12.762  22.228  0.00  0.00    +0.000 A 
ATOM      6  S   UNL     1      -1.203  14.257  22.873  0.00  0.00    +0.000 S 
ATOM      7  C   UNL     1      -0.982  15.058  21.378  0.00  0.00    +0.000 A 
ATOM      8  C   UNL     1      -1.245  16.526  21.294  0.00  0.00    +0.000 C 
ATOM      9  C   UNL     1      -0.552  14.195  20.379  0.00  0.00    +0.000 A 
ATOM     10  C   UNL     1      -0.248  14.590  18.968  0.00  0.00    +0.000 C 
ATOM     11  C   UNL     1      -0.424  12.850  20.889  0.00  0.00    +0.000 A 
ATOM     12  C   UNL     1      -0.017  11.631  20.201  0.00  0.00    +0.000 A 
ATOM     13  O   UNL     1       0.361  11.661  19.032  0.00  0.00    +0.000 OA
ENDROOT
BRANCH   1  15
ATOM     14  C   UNL     1       1.500   8.935  20.275  0.00  0.00    +0.000 C 
ATOM     15  N   UNL     1       0.253   9.207  20.505  0.00  0.00    +0.000 NA
BRANCH  14  19
ATOM     16  C   UNL     1       2.958   5.142  18.929  0.00  0.00    +0.000 A 
ATOM     17  C   UNL     1       2.941   6.243  18.054  0.00  0.00    +0.000 A 
ATOM     18  C   UNL     1       2.452   7.485  18.473  0.00  0.00    +0.000 A 
ATOM     19  C   UNL     1       1.934   7.619  19.759  0.00  0.00    +0.000 A 
ATOM     20  C   UNL     1       1.854   6.505  20.595  0.00  0.00    +0.000 A 
ATOM     21  C   UNL     1       2.361   5.258  20.194  0.00  0.00    +0.000 A 
BRANCH  16  23
ATOM     22  C   UNL     1       2.845   3.252  17.507  0.00  0.00    +0.000 C 
ATOM     23  O   UNL     1       3.527   3.956  18.546  0.00  0.00    +0.000 OA
ENDBRANCH  16  23
BRANCH  21  24
ATOM     24  O   UNL     1       2.211   4.307  21.167  0.00  0.00    +0.000 OA
ATOM     25  C   UNL     1       1.230   3.295  21.007  0.00  0.00    +0.000 C 
ENDBRANCH  21  24
ENDBRANCH  14  19
ENDBRANCH   1  15
TORSDOF 4
ENDMDL
MODEL 6
REMARK VINA RESULT:      -6.9      0.958      1.901
REMARK  Name = 
REMARK  9 active torsions:
REMARK  status: ('A' for Active; 'I' for Inactive)
REMARK    1  A    between atoms: C_1  and  O_2
REMARK    2  A    between atoms: O_2  and  C_3
REMARK    3  A    between atoms: C_6  and  C_7
REMARK    4  A    between atoms: N_8  and  N_9
REMARK    5  A    between atoms: C_10  and  C_11
REMARK    6  A    between atoms: C_15  and  C_16
REMARK    7  A    between atoms: C_17  and  C_18
REMARK    8  A    between atoms: C_23  and  O_24
REMARK    9  A    between atoms: O_24  and  C_25
REMARK                            x       y       z     vdW  Elec       q    Type
REMARK                         _______ _______ _______ _____ _____    ______ ____
ROOT
ATOM      1  N   UNL     1       2.623   6.813  19.147  0.00  0.00    +0.000 N 
ATOM      2  C   UNL     1       2.346   5.529  19.625  0.00  0.00    +0.000 A 
ATOM      3  C   UNL     1       1.402   5.367  20.797  0.00  0.00    +0.000 C 
ATOM      4  N   UNL     1       2.863   4.435  19.147  0.00  0.00    +0.000 NA
ATOM      5  C   UNL     1       3.693   4.601  18.093  0.00  0.00    +0.000 A 
ATOM      6  S   UNL     1       4.499   3.279  17.393  0.00  0.00    +0.000 S 
ATOM      7  C   UNL     1       5.215   4.258  16.188  0.00  0.00    +0.000 A 
ATOM      8  C   UNL     1       6.096   3.621  15.163  0.00  0.00    +0.000 C 
ATOM      9  C   UNL     1       4.858   5.593  16.316  0.00  0.00    +0.000 A 
ATOM     10  C   UNL     1       5.300   6.696  15.407  0.00  0.00    +0.000 C 
ATOM     11  C   UNL     1       3.984   5.779  17.450  0.00  0.00    +0.000 A 
ATOM     12  C   UNL     1       3.377   7.002  17.964  0.00  0.00    +0.000 A 
ATOM     13  O   UNL     1       3.511   8.071  17.372  0.00  0.00    +0.000 OA
ENDROOT
BRANCH   1  15
ATOM     14  C   UNL     1       1.390   8.775  19.075  0.00  0.00    +0.000 C 
ATOM     15  N   UNL     1       1.997   7.883  19.796  0.00  0.00    +0.000 NA
BRANCH  14  19
ATOM     16  C   UNL     1      -0.839  11.958  20.870  0.00  0.00    +0.000 A 
ATOM     17  C   UNL     1      -0.583  11.968  19.488  0.00  0.00    +0.000 A 
ATOM     18  C   UNL     1       0.159  10.943  18.888  0.00  0.00    +0.000 A 
ATOM     19  C   UNL     1       0.687   9.927  19.679  0.00  0.00    +0.000 A 
ATOM     20  C   UNL     1       0.523   9.968  21.064  0.00  0.00    +0.000 A 
ATOM     21  C   UNL     1      -0.237  10.979  21.675  0.00  0.00    +0.000 A 
BRANCH  16  23
ATOM     22  C   UNL     1      -3.043  12.772  21.166  0.00  0.00    +0.000 C 
ATOM     23  O   UNL     1      -1.647  12.909  21.436  0.00  0.00    +0.000 OA
ENDBRANCH  16  23
BRANCH  21  24
ATOM     24  O   UNL     1      -0.298  10.822  23.034  0.00  0.00    +0.000 OA
ATOM     25  C   UNL     1      -0.066   9.542  23.600  0.00  0.00    +0.000 C 
ENDBRANCH  21  24
ENDBRANCH  14  19
ENDBRANCH   1  15
TORSDOF 4
ENDMDL
MODEL 7
REMARK VINA RESULT:      -6.9      3.346      8.726
REMARK  Name = 
REMARK  9 active torsions:
REMARK  status: ('A' for Active; 'I' for Inactive)
REMARK    1  A    between atoms: C_1  and  O_2
REMARK    2  A    between atoms: O_2  and  C_3
REMARK    3  A    between atoms: C_6  and  C_7
REMARK    4  A    between atoms: N_8  and  N_9
REMARK    5  A    between atoms: C_10  and  C_11
REMARK    6  A    between atoms: C_15  and  C_16
REMARK    7  A    between atoms: C_17  and  C_18
REMARK    8  A    between atoms: C_23  and  O_24
REMARK    9  A    between atoms: O_24  and  C_25
REMARK                            x       y       z     vdW  Elec       q    Type
REMARK                         _______ _______ _______ _____ _____    ______ ____
ROOT
ATOM      1  N   UNL     1       1.070   9.836  19.726  0.00  0.00    +0.000 N 
ATOM      2  C   UNL     1       1.544  10.961  19.044  0.00  0.00    +0.000 A 
ATOM      3  C   UNL     1       2.351  10.767  17.778  0.00  0.00    +0.000 C 
ATOM      4  N   UNL     1       1.363  12.190  19.429  0.00  0.00    +0.000 NA
ATOM      5  C   UNL     1       0.630  12.340  20.554  0.00  0.00    +0.000 A 
ATOM      6  S   UNL     1       0.356  13.877  21.225  0.00  0.00    +0.000 S 
ATOM      7  C   UNL     1      -0.632  13.242  22.468  0.00  0.00    +0.000 A 
ATOM      8  C   UNL     1      -1.248  14.176  23.456  0.00  0.00    +0.000 C 
ATOM      9  C   UNL     1      -0.749  11.861  22.389  0.00  0.00    +0.000 A 
ATOM     10  C   UNL     1      -1.559  11.009  23.316  0.00  0.00    +0.000 C 
ATOM     11  C   UNL     1       0.014  11.347  21.276  0.00  0.00    +0.000 A 
ATOM     12  C   UNL     1       0.187   9.971  20.825  0.00  0.00    +0.000 A 
ATOM     13  O   UNL     1      -0.423   9.048  21.362  0.00  0.00    +0.000 OA
ENDROOT
BRANCH   1  15
ATOM     14  C   UNL     1       2.062   7.749  19.899  0.00  0.00    +0.000 C 
ATOM     15  N   UNL     1       1.377   8.584  19.182  0.00  0.00    +0.000 NA
BRANCH  14  19
ATOM     16  C   UNL     1       2.940   3.884  18.281  0.00  0.00    +0.000 A 
ATOM     17  C   UNL     1       2.140   4.002  19.431  0.00  0.00    +0.000 A 
ATOM     18  C   UNL     1       1.857   5.257  19.983  0.00  0.00    +0.000 A 
ATOM     19  C   UNL     1       2.413   6.398  19.410  0.00  0.00    +0.000 A 
ATOM     20  C   UNL     1       3.291   6.278  18.332  0.00  0.00    +0.000 A 
ATOM     21  C   UNL     1       3.565   5.026  17.756  0.00  0.00    +0.000 A 
BRANCH  16  23
ATOM     22  C   UNL     1       3.529   1.608  18.566  0.00  0.00    +0.000 C 
ATOM     23  O   UNL     1       3.133   2.664  17.689  0.00  0.00    +0.000 OA
ENDBRANCH  16  23
BRANCH  21  24
ATOM     24  O   UNL     1       4.424   5.128  16.695  0.00  0.00    +0.000 OA
ATOM     25  C   UNL     1       5.800   4.837  16.881  0.00  0.00    +0.000 C 
ENDBRANCH  21  24
ENDBRANCH  14  19
ENDBRANCH   1  15
TORSDOF 4
ENDMDL
MODEL 8
REMARK VINA RESULT:      -6.8      3.398      8.775
REMARK  Name = 
REMARK  9 active torsions:
REMARK  status: ('A' for Active; 'I' for Inactive)
REMARK    1  A    between atoms: C_1  and  O_2
REMARK    2  A    between atoms: O_2  and  C_3
REMARK    3  A    between atoms: C_6  and  C_7
REMARK    4  A    between atoms: N_8  and  N_9
REMARK    5  A    between atoms: C_10  and  C_11
REMARK    6  A    between atoms: C_15  and  C_16
REMARK    7  A    between atoms: C_17  and  C_18
REMARK    8  A    between atoms: C_23  and  O_24
REMARK    9  A    between atoms: O_24  and  C_25
REMARK                            x       y       z     vdW  Elec       q    Type
REMARK                         _______ _______ _______ _____ _____    ______ ____
ROOT
ATOM      1  N   UNL     1       1.042   9.367  19.670  0.00  0.00    +0.000 N 
ATOM      2  C   UNL     1       1.459  10.446  18.886  0.00  0.00    +0.000 A 
ATOM      3  C   UNL     1       2.194  10.174  17.590  0.00  0.00    +0.000 C 
ATOM      4  N   UNL     1       1.284  11.697  19.197  0.00  0.00    +0.000 NA
ATOM      5  C   UNL     1       0.615  11.917  20.351  0.00  0.00    +0.000 A 
ATOM      6  S   UNL     1       0.359  13.494  20.930  0.00  0.00    +0.000 S 
ATOM      7  C   UNL     1      -0.545  12.935  22.270  0.00  0.00    +0.000 A 
ATOM      8  C   UNL     1      -1.115  13.929  23.227  0.00  0.00    +0.000 C 
ATOM      9  C   UNL     1      -0.647  11.551  22.293  0.00  0.00    +0.000 A 
ATOM     10  C   UNL     1      -1.389  10.757  23.322  0.00  0.00    +0.000 C 
ATOM     11  C   UNL     1       0.057  10.970  21.174  0.00  0.00    +0.000 A 
ATOM     12  C   UNL     1       0.223   9.568  20.808  0.00  0.00    +0.000 A 
ATOM     13  O   UNL     1      -0.340   8.678  21.442  0.00  0.00    +0.000 OA
ENDROOT
BRANCH   1  15
ATOM     14  C   UNL     1       2.407   7.494  19.625  0.00  0.00    +0.000 C 
ATOM     15  N   UNL     1       1.335   8.083  19.196  0.00  0.00    +0.000 NA
BRANCH  14  19
ATOM     16  C   UNL     1       3.620   3.652  18.179  0.00  0.00    +0.000 A 
ATOM     17  C   UNL     1       2.274   4.048  18.087  0.00  0.00    +0.000 A 
ATOM     18  C   UNL     1       1.858   5.294  18.570  0.00  0.00    +0.000 A 
ATOM     19  C   UNL     1       2.782   6.131  19.190  0.00  0.00    +0.000 A 
ATOM     20  C   UNL     1       4.096   5.700  19.377  0.00  0.00    +0.000 A 
ATOM     21  C   UNL     1       4.530   4.461  18.877  0.00  0.00    +0.000 A 
BRANCH  16  23
ATOM     22  C   UNL     1       3.639   1.287  18.302  0.00  0.00    +0.000 C 
ATOM     23  O   UNL     1       4.041   2.475  17.618  0.00  0.00    +0.000 OA
ENDBRANCH  16  23
BRANCH  21  24
ATOM     24  O   UNL     1       5.856   4.240  19.139  0.00  0.00    +0.000 OA
ATOM     25  C   UNL     1       6.836   4.732  18.238  0.00  0.00    +0.000 C 
ENDBRANCH  21  24
ENDBRANCH  14  19
ENDBRANCH   1  15
TORSDOF 4
ENDMDL
MODEL 9
REMARK VINA RESULT:      -6.8      3.478      8.379
REMARK  Name = 
REMARK  9 active torsions:
REMARK  status: ('A' for Active; 'I' for Inactive)
REMARK    1  A    between atoms: C_1  and  O_2
REMARK    2  A    between atoms: O_2  and  C_3
REMARK    3  A    between atoms: C_6  and  C_7
REMARK    4  A    between atoms: N_8  and  N_9
REMARK    5  A    between atoms: C_10  and  C_11
REMARK    6  A    between atoms: C_15  and  C_16
REMARK    7  A    between atoms: C_17  and  C_18
REMARK    8  A    between atoms: C_23  and  O_24
REMARK    9  A    between atoms: O_24  and  C_25
REMARK                            x       y       z     vdW  Elec       q    Type
REMARK                         _______ _______ _______ _____ _____    ______ ____
ROOT
ATOM      1  N   UNL     1       0.049  10.040  21.043  0.00  0.00    +0.000 N 
ATOM      2  C   UNL     1      -0.130  10.383  22.386  0.00  0.00    +0.000 A 
ATOM      3  C   UNL     1       0.034   9.314  23.447  0.00  0.00    +0.000 C 
ATOM      4  N   UNL     1      -0.457  11.568  22.810  0.00  0.00    +0.000 NA
ATOM      5  C   UNL     1      -0.586  12.509  21.848  0.00  0.00    +0.000 A 
ATOM      6  S   UNL     1      -1.069  14.093  22.228  0.00  0.00    +0.000 S 
ATOM      7  C   UNL     1      -0.919  14.609  20.605  0.00  0.00    +0.000 A 
ATOM      8  C   UNL     1      -1.209  16.034  20.266  0.00  0.00    +0.000 C 
ATOM      9  C   UNL     1      -0.514  13.582  19.764  0.00  0.00    +0.000 A 
ATOM     10  C   UNL     1      -0.271  13.715  18.293  0.00  0.00    +0.000 C 
ATOM     11  C   UNL     1      -0.345  12.354  20.505  0.00  0.00    +0.000 A 
ATOM     12  C   UNL     1       0.055  11.033  20.034  0.00  0.00    +0.000 A 
ATOM     13  O   UNL     1       0.387  10.853  18.864  0.00  0.00    +0.000 OA
ENDROOT
BRANCH   1  15
ATOM     14  C   UNL     1       1.573   8.439  20.345  0.00  0.00    +0.000 C 
ATOM     15  N   UNL     1       0.376   8.708  20.763  0.00  0.00    +0.000 NA
BRANCH  14  19
ATOM     16  C   UNL     1       2.670   4.440  19.283  0.00  0.00    +0.000 A 
ATOM     17  C   UNL     1       1.975   4.687  20.480  0.00  0.00    +0.000 A 
ATOM     18  C   UNL     1       1.624   5.990  20.850  0.00  0.00    +0.000 A 
ATOM     19  C   UNL     1       2.008   7.058  20.044  0.00  0.00    +0.000 A 
ATOM     20  C   UNL     1       2.787   6.828  18.909  0.00  0.00    +0.000 A 
ATOM     21  C   UNL     1       3.127   5.523  18.516  0.00  0.00    +0.000 A 
BRANCH  16  23
ATOM     22  C   UNL     1       1.860   2.507  18.181  0.00  0.00    +0.000 C 
ATOM     23  O   UNL     1       2.925   3.157  18.877  0.00  0.00    +0.000 OA
ENDBRANCH  16  23
BRANCH  21  24
ATOM     24  O   UNL     1       3.868   5.512  17.364  0.00  0.00    +0.000 OA
ATOM     25  C   UNL     1       4.591   6.674  16.990  0.00  0.00    +0.000 C 
ENDBRANCH  21  24
ENDBRANCH  14  19
ENDBRANCH   1  15
TORSDOF 4
ENDMDL
