MODEL 1
REMARK VINA RESULT:      -8.0      0.000      0.000
REMARK  Name = 
REMARK  5 active torsions:
REMARK  status: ('A' for Active; 'I' for Inactive)
REMARK    1  A    between atoms: C_5  and  C_6
REMARK    2  A    between atoms: N_9  and  C_10
REMARK    3  A    between atoms: C_16  and  C_17
REMARK    4  A    between atoms: C_21  and  O_22
REMARK    5  A    between atoms: O_22  and  C_23
REMARK                            x       y       z     vdW  Elec       q    Type
REMARK                         _______ _______ _______ _____ _____    ______ ____
ROOT
ATOM      1  C   UNL     1      -4.301  12.080  19.297  0.00  0.00    +0.000 A 
ATOM      2  N   UNL     1      -5.654  12.098  19.521  0.00  0.00    +0.000 NA
ATOM      3  C   UNL     1      -5.814  12.730  20.651  0.00  0.00    +0.000 A 
ATOM      4  N   UNL     1      -4.628  13.154  21.184  0.00  0.00    +0.000 N 
ATOM      5  C   UNL     1      -3.610  12.748  20.311  0.00  0.00    +0.000 A 
ENDROOT
BRANCH   1  10
ATOM      6  F   UNL     1      -2.292   9.598  14.707  0.00  0.00    +0.000 F 
ATOM      7  C   UNL     1      -2.775  10.185  15.810  0.00  0.00    +0.000 A 
ATOM      8  C   UNL     1      -3.918  10.969  15.726  0.00  0.00    +0.000 A 
ATOM      9  C   UNL     1      -4.411  11.589  16.877  0.00  0.00    +0.000 A 
ATOM     10  C   UNL     1      -3.760  11.426  18.112  0.00  0.00    +0.000 A 
ATOM     11  C   UNL     1      -2.629  10.601  18.174  0.00  0.00    +0.000 A 
ATOM     12  C   UNL     1      -2.127   9.993  17.023  0.00  0.00    +0.000 A 
ENDBRANCH   1  10
BRANCH   4  13
ATOM     13  C   UNL     1      -4.475  13.900  22.433  0.00  0.00    +0.000 C 
ATOM     14  C   UNL     1      -4.404  12.972  23.655  0.00  0.00    +0.000 C 
ATOM     15  C   UNL     1      -5.779  12.589  24.183  0.00  0.00    +0.000 C 
ATOM     16  N   UNL     1      -6.580  13.771  24.488  0.00  0.00    +0.000 NA
ATOM     17  C   UNL     1      -6.782  14.620  23.321  0.00  0.00    +0.000 C 
ATOM     18  C   UNL     1      -5.472  15.050  22.666  0.00  0.00    +0.000 C 
ATOM     19  H   UNL     1      -6.141  14.305  25.237  0.00  0.00    +0.000 HD
ENDBRANCH   4  13
BRANCH   5  20
ATOM     20  C   UNL     1      -2.180  13.064  20.436  0.00  0.00    +0.000 A 
ATOM     21  C   UNL     1      -1.612  14.259  20.048  0.00  0.00    +0.000 A 
ATOM     22  C   UNL     1      -0.252  14.372  20.205  0.00  0.00    +0.000 A 
ATOM     23  N   UNL     1       0.501  13.420  20.764  0.00  0.00    +0.000 NA
ATOM     24  C   UNL     1      -0.144  12.299  21.134  0.00  0.00    +0.000 A 
ATOM     25  N   UNL     1      -1.454  12.074  20.982  0.00  0.00    +0.000 NA
BRANCH  24  26
ATOM     26  O   UNL     1       0.568  11.277  21.742  0.00  0.00    +0.000 OA
BRANCH  26  27
ATOM     27  C   UNL     1       0.931  10.217  20.949  0.00  0.00    +0.000 A 
ATOM     28  C   UNL     1       1.229   8.947  21.466  0.00  0.00    +0.000 A 
ATOM     29  C   UNL     1       1.595   7.907  20.610  0.00  0.00    +0.000 A 
ATOM     30  C   UNL     1       1.699   8.155  19.247  0.00  0.00    +0.000 A 
ATOM     31  F   UNL     1       2.051   7.156  18.428  0.00  0.00    +0.000 F 
ATOM     32  C   UNL     1       1.445   9.425  18.738  0.00  0.00    +0.000 A 
ATOM     33  F   UNL     1       1.565   9.657  17.423  0.00  0.00    +0.000 F 
ATOM     34  C   UNL     1       1.065  10.465  19.581  0.00  0.00    +0.000 A 
ENDBRANCH  26  27
ENDBRANCH  24  26
ENDBRANCH   5  20
TORSDOF 5
ENDMDL
MODEL 2
REMARK VINA RESULT:      -7.9      4.135      6.522
REMARK  Name = 
REMARK  5 active torsions:
REMARK  status: ('A' for Active; 'I' for Inactive)
REMARK    1  A    between atoms: C_5  and  C_6
REMARK    2  A    between atoms: N_9  and  C_10
REMARK    3  A    between atoms: C_16  and  C_17
REMARK    4  A    between atoms: C_21  and  O_22
REMARK    5  A    between atoms: O_22  and  C_23
REMARK                            x       y       z     vdW  Elec       q    Type
REMARK                         _______ _______ _______ _____ _____    ______ ____
ROOT
ATOM      1  C   UNL     1       0.401  12.634  18.776  0.00  0.00    +0.000 A 
ATOM      2  N   UNL     1      -0.565  13.458  18.256  0.00  0.00    +0.000 NA
ATOM      3  C   UNL     1      -1.537  12.668  17.887  0.00  0.00    +0.000 A 
ATOM      4  N   UNL     1      -1.270  11.354  18.155  0.00  0.00    +0.000 N 
ATOM      5  C   UNL     1      -0.003  11.298  18.749  0.00  0.00    +0.000 A 
ENDROOT
BRANCH   1  10
ATOM      6  F   UNL     1       5.228  14.781  20.608  0.00  0.00    +0.000 F 
ATOM      7  C   UNL     1       4.074  14.259  20.173  0.00  0.00    +0.000 A 
ATOM      8  C   UNL     1       3.826  14.183  18.808  0.00  0.00    +0.000 A 
ATOM      9  C   UNL     1       2.617  13.648  18.359  0.00  0.00    +0.000 A 
ATOM     10  C   UNL     1       1.652  13.192  19.274  0.00  0.00    +0.000 A 
ATOM     11  C   UNL     1       1.943  13.249  20.644  0.00  0.00    +0.000 A 
ATOM     12  C   UNL     1       3.145  13.796  21.095  0.00  0.00    +0.000 A 
ENDBRANCH   1  10
BRANCH   4  13
ATOM     13  C   UNL     1      -2.164  10.231  17.873  0.00  0.00    +0.000 C 
ATOM     14  C   UNL     1      -1.964   9.675  16.455  0.00  0.00    +0.000 C 
ATOM     15  C   UNL     1      -2.768  10.432  15.408  0.00  0.00    +0.000 C 
ATOM     16  N   UNL     1      -4.187  10.461  15.746  0.00  0.00    +0.000 NA
ATOM     17  C   UNL     1      -4.438  11.099  17.033  0.00  0.00    +0.000 C 
ATOM     18  C   UNL     1      -3.657  10.455  18.176  0.00  0.00    +0.000 C 
ATOM     19  H   UNL     1      -4.565   9.515  15.745  0.00  0.00    +0.000 HD
ENDBRANCH   4  13
BRANCH   5  20
ATOM     20  C   UNL     1       0.653  10.097  19.286  0.00  0.00    +0.000 A 
ATOM     21  C   UNL     1       0.528   9.659  20.587  0.00  0.00    +0.000 A 
ATOM     22  C   UNL     1       1.240   8.535  20.928  0.00  0.00    +0.000 A 
ATOM     23  N   UNL     1       1.972   7.839  20.053  0.00  0.00    +0.000 NA
ATOM     24  C   UNL     1       2.015   8.329  18.800  0.00  0.00    +0.000 A 
ATOM     25  N   UNL     1       1.397   9.438  18.381  0.00  0.00    +0.000 NA
BRANCH  24  26
ATOM     26  O   UNL     1       2.736   7.648  17.832  0.00  0.00    +0.000 OA
BRANCH  26  27
ATOM     27  C   UNL     1       3.040   6.335  18.094  0.00  0.00    +0.000 A 
ATOM     28  C   UNL     1       4.327   5.910  18.462  0.00  0.00    +0.000 A 
ATOM     29  C   UNL     1       4.576   4.560  18.714  0.00  0.00    +0.000 A 
ATOM     30  C   UNL     1       3.548   3.639  18.557  0.00  0.00    +0.000 A 
ATOM     31  F   UNL     1       3.791   2.345  18.798  0.00  0.00    +0.000 F 
ATOM     32  C   UNL     1       2.283   4.054  18.152  0.00  0.00    +0.000 A 
ATOM     33  F   UNL     1       1.303   3.154  17.987  0.00  0.00    +0.000 F 
ATOM     34  C   UNL     1       2.020   5.400  17.912  0.00  0.00    +0.000 A 
ENDBRANCH  26  27
ENDBRANCH  24  26
ENDBRANCH   5  20
TORSDOF 5
ENDMDL
MODEL 3
REMARK VINA RESULT:      -7.9      4.319      6.539
REMARK  Name = 
REMARK  5 active torsions:
REMARK  status: ('A' for Active; 'I' for Inactive)
REMARK    1  A    between atoms: C_5  and  C_6
REMARK    2  A    between atoms: N_9  and  C_10
REMARK    3  A    between atoms: C_16  and  C_17
REMARK    4  A    between atoms: C_21  and  O_22
REMARK    5  A    between atoms: O_22  and  C_23
REMARK                            x       y       z     vdW  Elec       q    Type
REMARK                         _______ _______ _______ _____ _____    ______ ____
ROOT
ATOM      1  C   UNL     1       0.410  12.645  18.780  0.00  0.00    +0.000 A 
ATOM      2  N   UNL     1      -0.557  13.471  18.265  0.00  0.00    +0.000 NA
ATOM      3  C   UNL     1      -1.532  12.683  17.900  0.00  0.00    +0.000 A 
ATOM      4  N   UNL     1      -1.267  11.368  18.166  0.00  0.00    +0.000 N 
ATOM      5  C   UNL     1       0.003  11.309  18.754  0.00  0.00    +0.000 A 
ENDROOT
BRANCH   1  10
ATOM      6  F   UNL     1       5.250  14.779  20.593  0.00  0.00    +0.000 F 
ATOM      7  C   UNL     1       4.092  14.260  20.162  0.00  0.00    +0.000 A 
ATOM      8  C   UNL     1       3.841  14.181  18.799  0.00  0.00    +0.000 A 
ATOM      9  C   UNL     1       2.628  13.650  18.354  0.00  0.00    +0.000 A 
ATOM     10  C   UNL     1       1.664  13.200  19.273  0.00  0.00    +0.000 A 
ATOM     11  C   UNL     1       1.960  13.259  20.642  0.00  0.00    +0.000 A 
ATOM     12  C   UNL     1       3.164  13.803  21.088  0.00  0.00    +0.000 A 
ENDBRANCH   1  10
BRANCH   4  13
ATOM     13  C   UNL     1      -2.165  10.247  17.887  0.00  0.00    +0.000 C 
ATOM     14  C   UNL     1      -1.962   9.683  16.472  0.00  0.00    +0.000 C 
ATOM     15  C   UNL     1      -2.760  10.438  15.419  0.00  0.00    +0.000 C 
ATOM     16  N   UNL     1      -4.180  10.475  15.753  0.00  0.00    +0.000 NA
ATOM     17  C   UNL     1      -4.432  11.121  17.035  0.00  0.00    +0.000 C 
ATOM     18  C   UNL     1      -3.658  10.480  18.184  0.00  0.00    +0.000 C 
ATOM     19  H   UNL     1      -4.562   9.530  15.755  0.00  0.00    +0.000 HD
ENDBRANCH   4  13
BRANCH   5  20
ATOM     20  C   UNL     1       0.659  10.107  19.287  0.00  0.00    +0.000 A 
ATOM     21  C   UNL     1       0.542   9.670  20.590  0.00  0.00    +0.000 A 
ATOM     22  C   UNL     1       1.252   8.544  20.927  0.00  0.00    +0.000 A 
ATOM     23  N   UNL     1       1.975   7.845  20.046  0.00  0.00    +0.000 NA
ATOM     24  C   UNL     1       2.011   8.333  18.793  0.00  0.00    +0.000 A 
ATOM     25  N   UNL     1       1.393   9.445  18.377  0.00  0.00    +0.000 NA
BRANCH  24  26
ATOM     26  O   UNL     1       2.722   7.649  17.820  0.00  0.00    +0.000 OA
BRANCH  26  27
ATOM     27  C   UNL     1       2.954   6.314  18.044  0.00  0.00    +0.000 A 
ATOM     28  C   UNL     1       1.954   5.336  17.922  0.00  0.00    +0.000 A 
ATOM     29  C   UNL     1       2.250   3.995  18.165  0.00  0.00    +0.000 A 
ATOM     30  C   UNL     1       3.531   3.644  18.568  0.00  0.00    +0.000 A 
ATOM     31  F   UNL     1       3.812   2.356  18.802  0.00  0.00    +0.000 F 
ATOM     32  C   UNL     1       4.512   4.618  18.732  0.00  0.00    +0.000 A 
ATOM     33  F   UNL     1       5.741   4.270  19.139  0.00  0.00    +0.000 F 
ATOM     34  C   UNL     1       4.232   5.958  18.477  0.00  0.00    +0.000 A 
ENDBRANCH  26  27
ENDBRANCH  24  26
ENDBRANCH   5  20
TORSDOF 5
ENDMDL
MODEL 4
REMARK VINA RESULT:      -7.9      0.903      1.412
REMARK  Name = 
REMARK  5 active torsions:
REMARK  status: ('A' for Active; 'I' for Inactive)
REMARK    1  A    between atoms: C_5  and  C_6
REMARK    2  A    between atoms: N_9  and  C_10
REMARK    3  A    between atoms: C_16  and  C_17
REMARK    4  A    between atoms: C_21  and  O_22
REMARK    5  A    between atoms: O_22  and  C_23
REMARK                            x       y       z     vdW  Elec       q    Type
REMARK                         _______ _______ _______ _____ _____    ______ ____
ROOT
ATOM      1  C   UNL     1      -4.053  12.087  19.376  0.00  0.00    +0.000 A 
ATOM      2  N   UNL     1      -5.389  12.318  19.585  0.00  0.00    +0.000 NA
ATOM      3  C   UNL     1      -5.469  12.862  20.769  0.00  0.00    +0.000 A 
ATOM      4  N   UNL     1      -4.243  13.023  21.353  0.00  0.00    +0.000 N 
ATOM      5  C   UNL     1      -3.286  12.529  20.457  0.00  0.00    +0.000 A 
ENDROOT
BRANCH   1  10
ATOM      6  F   UNL     1      -2.384   9.712  14.597  0.00  0.00    +0.000 F 
ATOM      7  C   UNL     1      -2.785  10.273  15.746  0.00  0.00    +0.000 A 
ATOM      8  C   UNL     1      -3.933  11.054  15.764  0.00  0.00    +0.000 A 
ATOM      9  C   UNL     1      -4.341  11.647  16.961  0.00  0.00    +0.000 A 
ATOM     10  C   UNL     1      -3.600  11.461  18.141  0.00  0.00    +0.000 A 
ATOM     11  C   UNL     1      -2.465  10.639  18.101  0.00  0.00    +0.000 A 
ATOM     12  C   UNL     1      -2.048  10.058  16.903  0.00  0.00    +0.000 A 
ENDBRANCH   1  10
BRANCH   4  13
ATOM     13  C   UNL     1      -3.999  13.613  22.669  0.00  0.00    +0.000 C 
ATOM     14  C   UNL     1      -4.786  12.898  23.778  0.00  0.00    +0.000 C 
ATOM     15  C   UNL     1      -6.204  13.429  23.928  0.00  0.00    +0.000 C 
ATOM     16  N   UNL     1      -6.212  14.871  24.148  0.00  0.00    +0.000 NA
ATOM     17  C   UNL     1      -5.587  15.604  23.054  0.00  0.00    +0.000 C 
ATOM     18  C   UNL     1      -4.159  15.141  22.771  0.00  0.00    +0.000 C 
ATOM     19  H   UNL     1      -5.747  15.091  25.028  0.00  0.00    +0.000 HD
ENDBRANCH   4  13
BRANCH   5  20
ATOM     20  C   UNL     1      -1.827  12.579  20.628  0.00  0.00    +0.000 A 
ATOM     21  C   UNL     1      -1.068  13.723  20.495  0.00  0.00    +0.000 A 
ATOM     22  C   UNL     1       0.288  13.582  20.655  0.00  0.00    +0.000 A 
ATOM     23  N   UNL     1       0.869  12.426  20.989  0.00  0.00    +0.000 NA
ATOM     24  C   UNL     1       0.046  11.369  21.120  0.00  0.00    +0.000 A 
ATOM     25  N   UNL     1      -1.279  11.393  20.940  0.00  0.00    +0.000 NA
BRANCH  24  26
ATOM     26  O   UNL     1       0.575  10.142  21.487  0.00  0.00    +0.000 OA
BRANCH  26  27
ATOM     27  C   UNL     1       1.120   9.376  20.485  0.00  0.00    +0.000 A 
ATOM     28  C   UNL     1       1.166   9.795  19.146  0.00  0.00    +0.000 A 
ATOM     29  C   UNL     1       1.731   8.972  18.172  0.00  0.00    +0.000 A 
ATOM     30  C   UNL     1       2.209   7.720  18.535  0.00  0.00    +0.000 A 
ATOM     31  F   UNL     1       2.750   6.931  17.597  0.00  0.00    +0.000 F 
ATOM     32  C   UNL     1       2.125   7.286  19.854  0.00  0.00    +0.000 A 
ATOM     33  F   UNL     1       2.574   6.068  20.190  0.00  0.00    +0.000 F 
ATOM     34  C   UNL     1       1.577   8.105  20.837  0.00  0.00    +0.000 A 
ENDBRANCH  26  27
ENDBRANCH  24  26
ENDBRANCH   5  20
TORSDOF 5
ENDMDL
MODEL 5
REMARK VINA RESULT:      -7.9      0.527      1.092
REMARK  Name = 
REMARK  5 active torsions:
REMARK  status: ('A' for Active; 'I' for Inactive)
REMARK    1  A    between atoms: C_5  and  C_6
REMARK    2  A    between atoms: N_9  and  C_10
REMARK    3  A    between atoms: C_16  and  C_17
REMARK    4  A    between atoms: C_21  and  O_22
REMARK    5  A    between atoms: O_22  and  C_23
REMARK                            x       y       z     vdW  Elec       q    Type
REMARK                         _______ _______ _______ _____ _____    ______ ____
ROOT
ATOM      1  C   UNL     1      -4.375  12.012  19.258  0.00  0.00    +0.000 A 
ATOM      2  N   UNL     1      -5.727  11.992  19.492  0.00  0.00    +0.000 NA
ATOM      3  C   UNL     1      -5.893  12.593  20.639  0.00  0.00    +0.000 A 
ATOM      4  N   UNL     1      -4.713  13.033  21.173  0.00  0.00    +0.000 N 
ATOM      5  C   UNL     1      -3.693  12.672  20.283  0.00  0.00    +0.000 A 
ENDROOT
BRANCH   1  10
ATOM      6  F   UNL     1      -2.211   9.637  14.683  0.00  0.00    +0.000 F 
ATOM      7  C   UNL     1      -2.729  10.214  15.775  0.00  0.00    +0.000 A 
ATOM      8  C   UNL     1      -2.110  10.031  17.006  0.00  0.00    +0.000 A 
ATOM      9  C   UNL     1      -2.659  10.626  18.144  0.00  0.00    +0.000 A 
ATOM     10  C   UNL     1      -3.828  11.400  18.054  0.00  0.00    +0.000 A 
ATOM     11  C   UNL     1      -4.411  11.596  16.794  0.00  0.00    +0.000 A 
ATOM     12  C   UNL     1      -3.872  10.992  15.658  0.00  0.00    +0.000 A 
ENDBRANCH   1  10
BRANCH   4  13
ATOM     13  C   UNL     1      -4.568  13.752  22.438  0.00  0.00    +0.000 C 
ATOM     14  C   UNL     1      -3.441  13.174  23.306  0.00  0.00    +0.000 C 
ATOM     15  C   UNL     1      -3.898  11.998  24.157  0.00  0.00    +0.000 C 
ATOM     16  N   UNL     1      -5.045  12.355  24.985  0.00  0.00    +0.000 NA
ATOM     17  C   UNL     1      -6.189  12.791  24.193  0.00  0.00    +0.000 C 
ATOM     18  C   UNL     1      -5.855  13.952  23.259  0.00  0.00    +0.000 C 
ATOM     19  H   UNL     1      -4.782  13.083  25.649  0.00  0.00    +0.000 HD
ENDBRANCH   4  13
BRANCH   5  20
ATOM     20  C   UNL     1      -2.270  13.020  20.405  0.00  0.00    +0.000 A 
ATOM     21  C   UNL     1      -1.726  14.221  20.001  0.00  0.00    +0.000 A 
ATOM     22  C   UNL     1      -0.370  14.365  20.158  0.00  0.00    +0.000 A 
ATOM     23  N   UNL     1       0.403  13.436  20.730  0.00  0.00    +0.000 NA
ATOM     24  C   UNL     1      -0.219  12.307  21.115  0.00  0.00    +0.000 A 
ATOM     25  N   UNL     1      -1.524  12.052  20.964  0.00  0.00    +0.000 NA
BRANCH  24  26
ATOM     26  O   UNL     1       0.513  11.309  21.736  0.00  0.00    +0.000 OA
BRANCH  26  27
ATOM     27  C   UNL     1       0.891  10.241  20.960  0.00  0.00    +0.000 A 
ATOM     28  C   UNL     1       1.193   8.979  21.497  0.00  0.00    +0.000 A 
ATOM     29  C   UNL     1       1.573   7.931  20.657  0.00  0.00    +0.000 A 
ATOM     30  C   UNL     1       1.688   8.162  19.292  0.00  0.00    +0.000 A 
ATOM     31  F   UNL     1       2.054   7.155  18.489  0.00  0.00    +0.000 F 
ATOM     32  C   UNL     1       1.430   9.424  18.765  0.00  0.00    +0.000 A 
ATOM     33  F   UNL     1       1.561   9.640  17.448  0.00  0.00    +0.000 F 
ATOM     34  C   UNL     1       1.035  10.472  19.591  0.00  0.00    +0.000 A 
ENDBRANCH  26  27
ENDBRANCH  24  26
ENDBRANCH   5  20
TORSDOF 5
ENDMDL
MODEL 6
REMARK VINA RESULT:      -7.6      4.184      6.400
REMARK  Name = 
REMARK  5 active torsions:
REMARK  status: ('A' for Active; 'I' for Inactive)
REMARK    1  A    between atoms: C_5  and  C_6
REMARK    2  A    between atoms: N_9  and  C_10
REMARK    3  A    between atoms: C_16  and  C_17
REMARK    4  A    between atoms: C_21  and  O_22
REMARK    5  A    between atoms: O_22  and  C_23
REMARK                            x       y       z     vdW  Elec       q    Type
REMARK                         _______ _______ _______ _____ _____    ______ ____
ROOT
ATOM      1  C   UNL     1       0.304  12.641  18.964  0.00  0.00    +0.000 A 
ATOM      2  N   UNL     1      -0.439  13.388  18.084  0.00  0.00    +0.000 NA
ATOM      3  C   UNL     1      -1.367  12.585  17.640  0.00  0.00    +0.000 A 
ATOM      4  N   UNL     1      -1.289  11.339  18.199  0.00  0.00    +0.000 N 
ATOM      5  C   UNL     1      -0.203  11.345  19.083  0.00  0.00    +0.000 A 
ENDROOT
BRANCH   1  10
ATOM      6  F   UNL     1       4.755  14.890  21.494  0.00  0.00    +0.000 F 
ATOM      7  C   UNL     1       3.689  14.344  20.893  0.00  0.00    +0.000 A 
ATOM      8  C   UNL     1       3.761  13.996  19.551  0.00  0.00    +0.000 A 
ATOM      9  C   UNL     1       2.644  13.438  18.925  0.00  0.00    +0.000 A 
ATOM     10  C   UNL     1       1.452  13.230  19.641  0.00  0.00    +0.000 A 
ATOM     11  C   UNL     1       1.419  13.558  21.004  0.00  0.00    +0.000 A 
ATOM     12  C   UNL     1       2.529  14.129  21.627  0.00  0.00    +0.000 A 
ENDBRANCH   1  10
BRANCH   4  13
ATOM     13  C   UNL     1      -2.192  10.223  17.917  0.00  0.00    +0.000 C 
ATOM     14  C   UNL     1      -1.977   9.648  16.509  0.00  0.00    +0.000 C 
ATOM     15  C   UNL     1      -2.756  10.401  15.440  0.00  0.00    +0.000 C 
ATOM     16  N   UNL     1      -4.179  10.452  15.756  0.00  0.00    +0.000 NA
ATOM     17  C   UNL     1      -4.442  11.108  17.031  0.00  0.00    +0.000 C 
ATOM     18  C   UNL     1      -3.687  10.469  18.194  0.00  0.00    +0.000 C 
ATOM     19  H   UNL     1      -4.568   9.510  15.761  0.00  0.00    +0.000 HD
ENDBRANCH   4  13
BRANCH   5  20
ATOM     20  C   UNL     1       0.201  10.246  19.972  0.00  0.00    +0.000 A 
ATOM     21  C   UNL     1      -0.342  10.015  21.218  0.00  0.00    +0.000 A 
ATOM     22  C   UNL     1       0.179   8.962  21.929  0.00  0.00    +0.000 A 
ATOM     23  N   UNL     1       1.116   8.143  21.442  0.00  0.00    +0.000 NA
ATOM     24  C   UNL     1       1.569   8.432  20.209  0.00  0.00    +0.000 A 
ATOM     25  N   UNL     1       1.161   9.459  19.455  0.00  0.00    +0.000 NA
BRANCH  24  26
ATOM     26  O   UNL     1       2.525   7.613  19.629  0.00  0.00    +0.000 OA
BRANCH  26  27
ATOM     27  C   UNL     1       2.152   6.320  19.357  0.00  0.00    +0.000 A 
ATOM     28  C   UNL     1       2.108   5.798  18.055  0.00  0.00    +0.000 A 
ATOM     29  C   UNL     1       1.719   4.475  17.841  0.00  0.00    +0.000 A 
ATOM     30  C   UNL     1       1.337   3.696  18.925  0.00  0.00    +0.000 A 
ATOM     31  F   UNL     1       0.962   2.428  18.716  0.00  0.00    +0.000 F 
ATOM     32  C   UNL     1       1.339   4.225  20.212  0.00  0.00    +0.000 A 
ATOM     33  F   UNL     1       0.952   3.469  21.249  0.00  0.00    +0.000 F 
ATOM     34  C   UNL     1       1.740   5.539  20.439  0.00  0.00    +0.000 A 
ENDBRANCH  26  27
ENDBRANCH  24  26
ENDBRANCH   5  20
TORSDOF 5
ENDMDL
MODEL 7
REMARK VINA RESULT:      -7.6      0.945      1.389
REMARK  Name = 
REMARK  5 active torsions:
REMARK  status: ('A' for Active; 'I' for Inactive)
REMARK    1  A    between atoms: C_5  and  C_6
REMARK    2  A    between atoms: N_9  and  C_10
REMARK    3  A    between atoms: C_16  and  C_17
REMARK    4  A    between atoms: C_21  and  O_22
REMARK    5  A    between atoms: O_22  and  C_23
REMARK                            x       y       z     vdW  Elec       q    Type
REMARK                         _______ _______ _______ _____ _____    ______ ____
ROOT
ATOM      1  C   UNL     1      -3.850  11.959  19.242  0.00  0.00    +0.000 A 
ATOM      2  N   UNL     1      -5.160  12.228  19.551  0.00  0.00    +0.000 NA
ATOM      3  C   UNL     1      -5.138  12.733  20.754  0.00  0.00    +0.000 A 
ATOM      4  N   UNL     1      -3.870  12.832  21.256  0.00  0.00    +0.000 N 
ATOM      5  C   UNL     1      -2.996  12.337  20.280  0.00  0.00    +0.000 A 
ENDROOT
BRANCH   1  10
ATOM      6  F   UNL     1      -2.459   9.633  14.351  0.00  0.00    +0.000 F 
ATOM      7  C   UNL     1      -2.791  10.198  15.519  0.00  0.00    +0.000 A 
ATOM      8  C   UNL     1      -2.023   9.943  16.648  0.00  0.00    +0.000 A 
ATOM      9  C   UNL     1      -2.379  10.525  17.867  0.00  0.00    +0.000 A 
ATOM     10  C   UNL     1      -3.506  11.361  17.958  0.00  0.00    +0.000 A 
ATOM     11  C   UNL     1      -4.242  11.629  16.796  0.00  0.00    +0.000 A 
ATOM     12  C   UNL     1      -3.896  11.037  15.581  0.00  0.00    +0.000 A 
ENDBRANCH   1  10
BRANCH   4  13
ATOM     13  C   UNL     1      -3.515  13.368  22.570  0.00  0.00    +0.000 C 
ATOM     14  C   UNL     1      -4.372  12.761  23.692  0.00  0.00    +0.000 C 
ATOM     15  C   UNL     1      -5.696  13.487  23.879  0.00  0.00    +0.000 C 
ATOM     16  N   UNL     1      -5.493  14.913  24.109  0.00  0.00    +0.000 NA
ATOM     17  C   UNL     1      -4.794  15.560  23.006  0.00  0.00    +0.000 C 
ATOM     18  C   UNL     1      -3.454  14.902  22.686  0.00  0.00    +0.000 C 
ATOM     19  H   UNL     1      -4.982  15.056  24.979  0.00  0.00    +0.000 HD
ENDBRANCH   4  13
BRANCH   5  20
ATOM     20  C   UNL     1      -1.528  12.332  20.350  0.00  0.00    +0.000 A 
ATOM     21  C   UNL     1      -0.728  13.388  19.969  0.00  0.00    +0.000 A 
ATOM     22  C   UNL     1       0.629  13.200  20.069  0.00  0.00    +0.000 A 
ATOM     23  N   UNL     1       1.177  12.088  20.569  0.00  0.00    +0.000 NA
ATOM     24  C   UNL     1       0.318  11.121  20.938  0.00  0.00    +0.000 A 
ATOM     25  N   UNL     1      -1.014  11.189  20.837  0.00  0.00    +0.000 NA
BRANCH  24  26
ATOM     26  O   UNL     1       0.813   9.948  21.486  0.00  0.00    +0.000 OA
BRANCH  26  27
ATOM     27  C   UNL     1       1.269   8.997  20.608  0.00  0.00    +0.000 A 
ATOM     28  C   UNL     1       1.588   7.687  21.002  0.00  0.00    +0.000 A 
ATOM     29  C   UNL     1       2.049   6.764  20.064  0.00  0.00    +0.000 A 
ATOM     30  C   UNL     1       2.228   7.166  18.747  0.00  0.00    +0.000 A 
ATOM     31  F   UNL     1       2.672   6.277  17.849  0.00  0.00    +0.000 F 
ATOM     32  C   UNL     1       1.953   8.475  18.363  0.00  0.00    +0.000 A 
ATOM     33  F   UNL     1       2.146   8.856  17.093  0.00  0.00    +0.000 F 
ATOM     34  C   UNL     1       1.478   9.400  19.288  0.00  0.00    +0.000 A 
ENDBRANCH  26  27
ENDBRANCH  24  26
ENDBRANCH   5  20
TORSDOF 5
ENDMDL
MODEL 8
REMARK VINA RESULT:      -7.2      8.053     10.493
REMARK  Name = 
REMARK  5 active torsions:
REMARK  status: ('A' for Active; 'I' for Inactive)
REMARK    1  A    between atoms: C_5  and  C_6
REMARK    2  A    between atoms: N_9  and  C_10
REMARK    3  A    between atoms: C_16  and  C_17
REMARK    4  A    between atoms: C_21  and  O_22
REMARK    5  A    between atoms: O_22  and  C_23
REMARK                            x       y       z     vdW  Elec       q    Type
REMARK                         _______ _______ _______ _____ _____    ______ ____
ROOT
ATOM      1  C   UNL     1       4.782  14.986  20.969  0.00  0.00    +0.000 A 
ATOM      2  N   UNL     1       4.153  14.152  21.858  0.00  0.00    +0.000 NA
ATOM      3  C   UNL     1       5.088  13.734  22.667  0.00  0.00    +0.000 A 
ATOM      4  N   UNL     1       6.312  14.268  22.370  0.00  0.00    +0.000 N 
ATOM      5  C   UNL     1       6.143  15.104  21.259  0.00  0.00    +0.000 A 
ENDROOT
BRANCH   1  10
ATOM      6  F   UNL     1       1.834  17.473  16.920  0.00  0.00    +0.000 F 
ATOM      7  C   UNL     1       2.537  16.869  17.888  0.00  0.00    +0.000 A 
ATOM      8  C   UNL     1       2.320  17.220  19.214  0.00  0.00    +0.000 A 
ATOM      9  C   UNL     1       3.063  16.596  20.219  0.00  0.00    +0.000 A 
ATOM     10  C   UNL     1       4.026  15.624  19.898  0.00  0.00    +0.000 A 
ATOM     11  C   UNL     1       4.199  15.265  18.554  0.00  0.00    +0.000 A 
ATOM     12  C   UNL     1       3.468  15.896  17.548  0.00  0.00    +0.000 A 
ENDBRANCH   1  10
BRANCH   4  13
ATOM     13  C   UNL     1       7.553  14.005  23.098  0.00  0.00    +0.000 C 
ATOM     14  C   UNL     1       8.542  13.170  22.270  0.00  0.00    +0.000 C 
ATOM     15  C   UNL     1       8.290  11.674  22.387  0.00  0.00    +0.000 C 
ATOM     16  N   UNL     1       8.299  11.240  23.780  0.00  0.00    +0.000 NA
ATOM     17  C   UNL     1       7.285  11.916  24.579  0.00  0.00    +0.000 C 
ATOM     18  C   UNL     1       7.401  13.437  24.521  0.00  0.00    +0.000 C 
ATOM     19  H   UNL     1       9.222  11.391  24.185  0.00  0.00    +0.000 HD
ENDBRANCH   4  13
BRANCH   5  20
ATOM     20  C   UNL     1       7.173  15.956  20.648  0.00  0.00    +0.000 A 
ATOM     21  C   UNL     1       7.357  17.289  20.946  0.00  0.00    +0.000 A 
ATOM     22  C   UNL     1       8.346  17.943  20.254  0.00  0.00    +0.000 A 
ATOM     23  N   UNL     1       9.153  17.334  19.380  0.00  0.00    +0.000 NA
ATOM     24  C   UNL     1       8.914  16.026  19.171  0.00  0.00    +0.000 A 
ATOM     25  N   UNL     1       7.948  15.312  19.758  0.00  0.00    +0.000 NA
BRANCH  24  26
ATOM     26  O   UNL     1       9.725  15.322  18.294  0.00  0.00    +0.000 OA
BRANCH  26  27
ATOM     27  C   UNL     1       9.776  13.959  18.455  0.00  0.00    +0.000 A 
ATOM     28  C   UNL     1       8.901  13.082  17.794  0.00  0.00    +0.000 A 
ATOM     29  C   UNL     1       9.001  11.705  17.999  0.00  0.00    +0.000 A 
ATOM     30  C   UNL     1       9.946  11.218  18.893  0.00  0.00    +0.000 A 
ATOM     31  F   UNL     1      10.038   9.896  19.088  0.00  0.00    +0.000 F 
ATOM     32  C   UNL     1      10.784  12.090  19.580  0.00  0.00    +0.000 A 
ATOM     33  F   UNL     1      11.681  11.610  20.453  0.00  0.00    +0.000 F 
ATOM     34  C   UNL     1      10.704  13.464  19.372  0.00  0.00    +0.000 A 
ENDBRANCH  26  27
ENDBRANCH  24  26
ENDBRANCH   5  20
TORSDOF 5
ENDMDL
MODEL 9
REMARK VINA RESULT:      -7.1      3.703      7.503
REMARK  Name = 
REMARK  5 active torsions:
REMARK  status: ('A' for Active; 'I' for Inactive)
REMARK    1  A    between atoms: C_5  and  C_6
REMARK    2  A    between atoms: N_9  and  C_10
REMARK    3  A    between atoms: C_16  and  C_17
REMARK    4  A    between atoms: C_21  and  O_22
REMARK    5  A    between atoms: O_22  and  C_23
REMARK                            x       y       z     vdW  Elec       q    Type
REMARK                         _______ _______ _______ _____ _____    ______ ____
ROOT
ATOM      1  C   UNL     1      -0.147  13.946  22.243  0.00  0.00    +0.000 A 
ATOM      2  N   UNL     1       0.562  15.035  22.684  0.00  0.00    +0.000 NA
ATOM      3  C   UNL     1       1.607  15.111  21.905  0.00  0.00    +0.000 A 
ATOM      4  N   UNL     1       1.618  14.132  20.951  0.00  0.00    +0.000 N 
ATOM      5  C   UNL     1       0.471  13.351  21.141  0.00  0.00    +0.000 A 
ENDROOT
BRANCH   1  10
ATOM      6  F   UNL     1      -4.895  12.520  24.829  0.00  0.00    +0.000 F 
ATOM      7  C   UNL     1      -3.753  12.856  24.215  0.00  0.00    +0.000 A 
ATOM      8  C   UNL     1      -3.359  14.188  24.179  0.00  0.00    +0.000 A 
ATOM      9  C   UNL     1      -2.174  14.536  23.528  0.00  0.00    +0.000 A 
ATOM     10  C   UNL     1      -1.381  13.554  22.910  0.00  0.00    +0.000 A 
ATOM     11  C   UNL     1      -1.785  12.213  22.993  0.00  0.00    +0.000 A 
ATOM     12  C   UNL     1      -2.976  11.866  23.630  0.00  0.00    +0.000 A 
ENDBRANCH   1  10
BRANCH   4  13
ATOM     13  C   UNL     1       2.646  13.957  19.925  0.00  0.00    +0.000 C 
ATOM     14  C   UNL     1       3.994  14.560  20.348  0.00  0.00    +0.000 C 
ATOM     15  C   UNL     1       4.097  16.046  20.038  0.00  0.00    +0.000 C 
ATOM     16  N   UNL     1       3.842  16.314  18.627  0.00  0.00    +0.000 NA
ATOM     17  C   UNL     1       2.517  15.872  18.208  0.00  0.00    +0.000 C 
ATOM     18  C   UNL     1       2.266  14.395  18.498  0.00  0.00    +0.000 C 
ATOM     19  H   UNL     1       4.557  15.868  18.053  0.00  0.00    +0.000 HD
ENDBRANCH   4  13
BRANCH   5  20
ATOM     20  C   UNL     1       0.025  12.239  20.289  0.00  0.00    +0.000 A 
ATOM     21  C   UNL     1       0.578  10.976  20.308  0.00  0.00    +0.000 A 
ATOM     22  C   UNL     1       0.061  10.066  19.418  0.00  0.00    +0.000 A 
ATOM     23  N   UNL     1      -0.969  10.337  18.610  0.00  0.00    +0.000 NA
ATOM     24  C   UNL     1      -1.458  11.589  18.679  0.00  0.00    +0.000 A 
ATOM     25  N   UNL     1      -0.996  12.558  19.476  0.00  0.00    +0.000 NA
BRANCH  24  26
ATOM     26  O   UNL     1      -2.541  11.936  17.887  0.00  0.00    +0.000 OA
BRANCH  26  27
ATOM     27  C   UNL     1      -3.790  11.737  18.421  0.00  0.00    +0.000 A 
ATOM     28  C   UNL     1      -4.795  11.015  17.758  0.00  0.00    +0.000 A 
ATOM     29  C   UNL     1      -6.047  10.846  18.350  0.00  0.00    +0.000 A 
ATOM     30  C   UNL     1      -6.299  11.435  19.583  0.00  0.00    +0.000 A 
ATOM     31  F   UNL     1      -7.502  11.273  20.148  0.00  0.00    +0.000 F 
ATOM     32  C   UNL     1      -5.318  12.187  20.222  0.00  0.00    +0.000 A 
ATOM     33  F   UNL     1      -5.578  12.765  21.403  0.00  0.00    +0.000 F 
ATOM     34  C   UNL     1      -4.061  12.348  19.646  0.00  0.00    +0.000 A 
ENDBRANCH  26  27
ENDBRANCH  24  26
ENDBRANCH   5  20
TORSDOF 5
ENDMDL
