MODEL 1
REMARK VINA RESULT:      -8.0      0.000      0.000
REMARK  Name = 
REMARK  3 active torsions:
REMARK  status: ('A' for Active; 'I' for Inactive)
REMARK    1  A    between atoms: N_11  and  C_12
REMARK    2  A    between atoms: C_12  and  C_13
REMARK    3  A    between atoms: C_17  and  O_18
REMARK                            x       y       z     vdW  Elec       q    Type
REMARK                         _______ _______ _______ _____ _____    ______ ____
ROOT
ATOM      1  O   UNL     1       4.896   3.381  16.308  0.00  0.00    +0.000 OA
ATOM      2  C   UNL     1       4.102   3.490  17.235  0.00  0.00    +0.000 A 
ATOM      3  O   UNL     1       3.632   2.388  17.965  0.00  0.00    +0.000 OA
ATOM      4  C   UNL     1       2.857   2.988  18.944  0.00  0.00    +0.000 A 
ATOM      5  C   UNL     1       2.235   2.322  19.979  0.00  0.00    +0.000 A 
ATOM      6  C   UNL     1       1.520   3.102  20.886  0.00  0.00    +0.000 A 
ATOM      7  F   UNL     1       0.898   2.509  21.914  0.00  0.00    +0.000 F 
ATOM      8  C   UNL     1       1.440   4.498  20.753  0.00  0.00    +0.000 A 
ATOM      9  C   UNL     1       2.096   5.151  19.703  0.00  0.00    +0.000 A 
ATOM     10  C   UNL     1       2.799   4.363  18.815  0.00  0.00    +0.000 A 
ATOM     11  N   UNL     1       3.587   4.672  17.728  0.00  0.00    +0.000 N 
ENDROOT
BRANCH  11  12
ATOM     12  C   UNL     1       4.062   5.978  17.363  0.00  0.00    +0.000 C 
BRANCH  12  13
ATOM     13  C   UNL     1       5.447   6.321  17.857  0.00  0.00    +0.000 A 
ATOM     14  C   UNL     1       6.272   7.190  17.128  0.00  0.00    +0.000 A 
ATOM     15  C   UNL     1       7.609   7.378  17.498  0.00  0.00    +0.000 A 
ATOM     16  C   UNL     1       8.131   6.710  18.605  0.00  0.00    +0.000 A 
ATOM     17  C   UNL     1       7.302   5.879  19.351  0.00  0.00    +0.000 A 
ATOM     18  C   UNL     1       5.968   5.694  18.996  0.00  0.00    +0.000 A 
BRANCH  17  19
ATOM     19  O   UNL     1       7.770   5.191  20.430  0.00  0.00    +0.000 OA
ATOM     20  H   UNL     1       8.186   5.822  21.040  0.00  0.00    +0.000 HD
ENDBRANCH  17  19
ENDBRANCH  12  13
ENDBRANCH  11  12
TORSDOF 3
ENDMDL
MODEL 2
REMARK VINA RESULT:      -7.8      3.100      5.910
REMARK  Name = 
REMARK  3 active torsions:
REMARK  status: ('A' for Active; 'I' for Inactive)
REMARK    1  A    between atoms: N_11  and  C_12
REMARK    2  A    between atoms: C_12  and  C_13
REMARK    3  A    between atoms: C_17  and  O_18
REMARK                            x       y       z     vdW  Elec       q    Type
REMARK                         _______ _______ _______ _____ _____    ______ ____
ROOT
ATOM      1  O   UNL     1       7.269   5.339  20.169  0.00  0.00    +0.000 OA
ATOM      2  C   UNL     1       6.968   5.336  18.982  0.00  0.00    +0.000 A 
ATOM      3  O   UNL     1       7.908   5.134  17.961  0.00  0.00    +0.000 OA
ATOM      4  C   UNL     1       7.117   5.117  16.825  0.00  0.00    +0.000 A 
ATOM      5  C   UNL     1       7.569   4.860  15.548  0.00  0.00    +0.000 A 
ATOM      6  C   UNL     1       6.615   4.858  14.533  0.00  0.00    +0.000 A 
ATOM      7  F   UNL     1       6.997   4.610  13.273  0.00  0.00    +0.000 F 
ATOM      8  C   UNL     1       5.257   5.102  14.799  0.00  0.00    +0.000 A 
ATOM      9  C   UNL     1       4.821   5.343  16.107  0.00  0.00    +0.000 A 
ATOM     10  C   UNL     1       5.780   5.341  17.099  0.00  0.00    +0.000 A 
ATOM     11  N   UNL     1       5.696   5.483  18.467  0.00  0.00    +0.000 N 
ENDROOT
BRANCH  11  12
ATOM     12  C   UNL     1       4.494   5.456  19.254  0.00  0.00    +0.000 C 
BRANCH  12  13
ATOM     13  C   UNL     1       3.594   4.267  19.015  0.00  0.00    +0.000 A 
ATOM     14  C   UNL     1       2.203   4.383  19.151  0.00  0.00    +0.000 A 
ATOM     15  C   UNL     1       1.385   3.248  19.091  0.00  0.00    +0.000 A 
ATOM     16  C   UNL     1       1.948   1.989  18.884  0.00  0.00    +0.000 A 
ATOM     17  C   UNL     1       3.323   1.879  18.710  0.00  0.00    +0.000 A 
ATOM     18  C   UNL     1       4.143   3.004  18.758  0.00  0.00    +0.000 A 
BRANCH  17  19
ATOM     19  O   UNL     1       3.922   0.669  18.523  0.00  0.00    +0.000 OA
ATOM     20  H   UNL     1       4.328   0.393  19.361  0.00  0.00    +0.000 HD
ENDBRANCH  17  19
ENDBRANCH  12  13
ENDBRANCH  11  12
TORSDOF 3
ENDMDL
MODEL 3
REMARK VINA RESULT:      -7.8      3.312      5.970
REMARK  Name = 
REMARK  3 active torsions:
REMARK  status: ('A' for Active; 'I' for Inactive)
REMARK    1  A    between atoms: N_11  and  C_12
REMARK    2  A    between atoms: C_12  and  C_13
REMARK    3  A    between atoms: C_17  and  O_18
REMARK                            x       y       z     vdW  Elec       q    Type
REMARK                         _______ _______ _______ _____ _____    ______ ____
ROOT
ATOM      1  O   UNL     1       7.328   5.451  19.960  0.00  0.00    +0.000 OA
ATOM      2  C   UNL     1       7.002   5.245  18.798  0.00  0.00    +0.000 A 
ATOM      3  O   UNL     1       7.743   5.723  17.707  0.00  0.00    +0.000 OA
ATOM      4  C   UNL     1       7.067   5.178  16.627  0.00  0.00    +0.000 A 
ATOM      5  C   UNL     1       7.460   5.288  15.309  0.00  0.00    +0.000 A 
ATOM      6  C   UNL     1       6.665   4.647  14.362  0.00  0.00    +0.000 A 
ATOM      7  F   UNL     1       7.002   4.716  13.067  0.00  0.00    +0.000 F 
ATOM      8  C   UNL     1       5.521   3.920  14.732  0.00  0.00    +0.000 A 
ATOM      9  C   UNL     1       5.153   3.810  16.078  0.00  0.00    +0.000 A 
ATOM     10  C   UNL     1       5.952   4.452  17.002  0.00  0.00    +0.000 A 
ATOM     11  N   UNL     1       5.917   4.502  18.378  0.00  0.00    +0.000 N 
ENDROOT
BRANCH  11  12
ATOM     12  C   UNL     1       5.114   3.680  19.241  0.00  0.00    +0.000 C 
BRANCH  12  13
ATOM     13  C   UNL     1       3.743   4.226  19.560  0.00  0.00    +0.000 A 
ATOM     14  C   UNL     1       3.503   5.607  19.552  0.00  0.00    +0.000 A 
ATOM     15  C   UNL     1       2.281   6.119  20.005  0.00  0.00    +0.000 A 
ATOM     16  C   UNL     1       1.285   5.256  20.459  0.00  0.00    +0.000 A 
ATOM     17  C   UNL     1       1.508   3.884  20.430  0.00  0.00    +0.000 A 
ATOM     18  C   UNL     1       2.717   3.365  19.971  0.00  0.00    +0.000 A 
BRANCH  17  19
ATOM     19  O   UNL     1       0.572   3.000  20.880  0.00  0.00    +0.000 OA
ATOM     20  H   UNL     1       0.306   2.431  20.139  0.00  0.00    +0.000 HD
ENDBRANCH  17  19
ENDBRANCH  12  13
ENDBRANCH  11  12
TORSDOF 3
ENDMDL
MODEL 4
REMARK VINA RESULT:      -7.7      1.624      2.165
REMARK  Name = 
REMARK  3 active torsions:
REMARK  status: ('A' for Active; 'I' for Inactive)
REMARK    1  A    between atoms: N_11  and  C_12
REMARK    2  A    between atoms: C_12  and  C_13
REMARK    3  A    between atoms: C_17  and  O_18
REMARK                            x       y       z     vdW  Elec       q    Type
REMARK                         _______ _______ _______ _____ _____    ______ ____
ROOT
ATOM      1  O   UNL     1       3.667   1.770  18.445  0.00  0.00    +0.000 OA
ATOM      2  C   UNL     1       3.249   2.889  18.718  0.00  0.00    +0.000 A 
ATOM      3  O   UNL     1       2.273   3.114  19.700  0.00  0.00    +0.000 OA
ATOM      4  C   UNL     1       2.190   4.496  19.727  0.00  0.00    +0.000 A 
ATOM      5  C   UNL     1       1.416   5.227  20.604  0.00  0.00    +0.000 A 
ATOM      6  C   UNL     1       1.486   6.614  20.496  0.00  0.00    +0.000 A 
ATOM      7  F   UNL     1       0.758   7.374  21.326  0.00  0.00    +0.000 F 
ATOM      8  C   UNL     1       2.308   7.238  19.543  0.00  0.00    +0.000 A 
ATOM      9  C   UNL     1       3.098   6.474  18.676  0.00  0.00    +0.000 A 
ATOM     10  C   UNL     1       3.015   5.101  18.797  0.00  0.00    +0.000 A 
ATOM     11  N   UNL     1       3.679   4.076  18.160  0.00  0.00    +0.000 N 
ENDROOT
BRANCH  11  12
ATOM     12  C   UNL     1       4.835   4.203  17.316  0.00  0.00    +0.000 C 
BRANCH  12  13
ATOM     13  C   UNL     1       5.879   5.182  17.796  0.00  0.00    +0.000 A 
ATOM     14  C   UNL     1       6.275   6.260  16.992  0.00  0.00    +0.000 A 
ATOM     15  C   UNL     1       7.354   7.069  17.366  0.00  0.00    +0.000 A 
ATOM     16  C   UNL     1       8.043   6.814  18.552  0.00  0.00    +0.000 A 
ATOM     17  C   UNL     1       7.626   5.769  19.369  0.00  0.00    +0.000 A 
ATOM     18  C   UNL     1       6.546   4.966  19.010  0.00  0.00    +0.000 A 
BRANCH  17  19
ATOM     19  O   UNL     1       8.277   5.469  20.529  0.00  0.00    +0.000 OA
ATOM     20  H   UNL     1       8.329   4.503  20.611  0.00  0.00    +0.000 HD
ENDBRANCH  17  19
ENDBRANCH  12  13
ENDBRANCH  11  12
TORSDOF 3
ENDMDL
MODEL 5
REMARK VINA RESULT:      -7.7      2.762      3.530
REMARK  Name = 
REMARK  3 active torsions:
REMARK  status: ('A' for Active; 'I' for Inactive)
REMARK    1  A    between atoms: N_11  and  C_12
REMARK    2  A    between atoms: C_12  and  C_13
REMARK    3  A    between atoms: C_17  and  O_18
REMARK                            x       y       z     vdW  Elec       q    Type
REMARK                         _______ _______ _______ _____ _____    ______ ____
ROOT
ATOM      1  O   UNL     1       3.124   3.586  20.284  0.00  0.00    +0.000 OA
ATOM      2  C   UNL     1       2.723   4.720  20.052  0.00  0.00    +0.000 A 
ATOM      3  O   UNL     1       1.903   5.431  20.940  0.00  0.00    +0.000 OA
ATOM      4  C   UNL     1       1.789   6.664  20.319  0.00  0.00    +0.000 A 
ATOM      5  C   UNL     1       1.138   7.760  20.847  0.00  0.00    +0.000 A 
ATOM      6  C   UNL     1       1.154   8.925  20.085  0.00  0.00    +0.000 A 
ATOM      7  F   UNL     1       0.541  10.022  20.550  0.00  0.00    +0.000 F 
ATOM      8  C   UNL     1       1.804   8.982  18.841  0.00  0.00    +0.000 A 
ATOM      9  C   UNL     1       2.472   7.861  18.335  0.00  0.00    +0.000 A 
ATOM     10  C   UNL     1       2.446   6.715  19.104  0.00  0.00    +0.000 A 
ATOM     11  N   UNL     1       3.032   5.479  18.941  0.00  0.00    +0.000 N 
ENDROOT
BRANCH  11  12
ATOM     12  C   UNL     1       4.041   5.134  17.978  0.00  0.00    +0.000 C 
BRANCH  12  13
ATOM     13  C   UNL     1       5.398   5.750  18.218  0.00  0.00    +0.000 A 
ATOM     14  C   UNL     1       5.954   6.643  17.291  0.00  0.00    +0.000 A 
ATOM     15  C   UNL     1       7.275   7.085  17.433  0.00  0.00    +0.000 A 
ATOM     16  C   UNL     1       8.049   6.647  18.507  0.00  0.00    +0.000 A 
ATOM     17  C   UNL     1       7.485   5.792  19.447  0.00  0.00    +0.000 A 
ATOM     18  C   UNL     1       6.169   5.356  19.321  0.00  0.00    +0.000 A 
BRANCH  17  19
ATOM     19  O   UNL     1       8.206   5.323  20.505  0.00  0.00    +0.000 OA
ATOM     20  H   UNL     1       8.687   6.067  20.904  0.00  0.00    +0.000 HD
ENDBRANCH  17  19
ENDBRANCH  12  13
ENDBRANCH  11  12
TORSDOF 3
ENDMDL
MODEL 6
REMARK VINA RESULT:      -7.7      3.176      4.422
REMARK  Name = 
REMARK  3 active torsions:
REMARK  status: ('A' for Active; 'I' for Inactive)
REMARK    1  A    between atoms: N_11  and  C_12
REMARK    2  A    between atoms: C_12  and  C_13
REMARK    3  A    between atoms: C_17  and  O_18
REMARK                            x       y       z     vdW  Elec       q    Type
REMARK                         _______ _______ _______ _____ _____    ______ ____
ROOT
ATOM      1  O   UNL     1       7.636   5.321  17.608  0.00  0.00    +0.000 OA
ATOM      2  C   UNL     1       6.574   4.731  17.768  0.00  0.00    +0.000 A 
ATOM      3  O   UNL     1       6.254   4.054  18.954  0.00  0.00    +0.000 OA
ATOM      4  C   UNL     1       4.954   3.639  18.719  0.00  0.00    +0.000 A 
ATOM      5  C   UNL     1       4.151   2.991  19.635  0.00  0.00    +0.000 A 
ATOM      6  C   UNL     1       2.858   2.677  19.223  0.00  0.00    +0.000 A 
ATOM      7  F   UNL     1       2.032   2.051  20.073  0.00  0.00    +0.000 F 
ATOM      8  C   UNL     1       2.393   3.007  17.939  0.00  0.00    +0.000 A 
ATOM      9  C   UNL     1       3.223   3.679  17.034  0.00  0.00    +0.000 A 
ATOM     10  C   UNL     1       4.500   3.983  17.459  0.00  0.00    +0.000 A 
ATOM     11  N   UNL     1       5.534   4.671  16.863  0.00  0.00    +0.000 N 
ENDROOT
BRANCH  11  12
ATOM     12  C   UNL     1       5.451   5.465  15.668  0.00  0.00    +0.000 C 
BRANCH  12  13
ATOM     13  C   UNL     1       6.094   4.856  14.445  0.00  0.00    +0.000 A 
ATOM     14  C   UNL     1       7.328   5.328  13.974  0.00  0.00    +0.000 A 
ATOM     15  C   UNL     1       7.843   4.878  12.753  0.00  0.00    +0.000 A 
ATOM     16  C   UNL     1       7.136   3.945  11.995  0.00  0.00    +0.000 A 
ATOM     17  C   UNL     1       5.931   3.448  12.480  0.00  0.00    +0.000 A 
ATOM     18  C   UNL     1       5.416   3.882  13.699  0.00  0.00    +0.000 A 
BRANCH  17  19
ATOM     19  O   UNL     1       5.195   2.548  11.769  0.00  0.00    +0.000 OA
ATOM     20  H   UNL     1       4.544   3.035  11.237  0.00  0.00    +0.000 HD
ENDBRANCH  17  19
ENDBRANCH  12  13
ENDBRANCH  11  12
TORSDOF 3
ENDMDL
MODEL 7
REMARK VINA RESULT:      -7.7      3.085      4.103
REMARK  Name = 
REMARK  3 active torsions:
REMARK  status: ('A' for Active; 'I' for Inactive)
REMARK    1  A    between atoms: N_11  and  C_12
REMARK    2  A    between atoms: C_12  and  C_13
REMARK    3  A    between atoms: C_17  and  O_18
REMARK                            x       y       z     vdW  Elec       q    Type
REMARK                         _______ _______ _______ _____ _____    ______ ____
ROOT
ATOM      1  O   UNL     1       5.149   6.997  17.117  0.00  0.00    +0.000 OA
ATOM      2  C   UNL     1       4.505   6.003  17.429  0.00  0.00    +0.000 A 
ATOM      3  O   UNL     1       3.142   6.054  17.757  0.00  0.00    +0.000 OA
ATOM      4  C   UNL     1       2.829   4.717  17.939  0.00  0.00    +0.000 A 
ATOM      5  C   UNL     1       1.565   4.227  18.198  0.00  0.00    +0.000 A 
ATOM      6  C   UNL     1       1.442   2.846  18.323  0.00  0.00    +0.000 A 
ATOM      7  F   UNL     1       0.237   2.314  18.570  0.00  0.00    +0.000 F 
ATOM      8  C   UNL     1       2.550   1.993  18.187  0.00  0.00    +0.000 A 
ATOM      9  C   UNL     1       3.819   2.513  17.907  0.00  0.00    +0.000 A 
ATOM     10  C   UNL     1       3.922   3.884  17.787  0.00  0.00    +0.000 A 
ATOM     11  N   UNL     1       4.980   4.707  17.468  0.00  0.00    +0.000 N 
ENDROOT
BRANCH  11  12
ATOM     12  C   UNL     1       6.254   4.294  16.949  0.00  0.00    +0.000 C 
BRANCH  12  13
ATOM     13  C   UNL     1       6.407   4.408  15.451  0.00  0.00    +0.000 A 
ATOM     14  C   UNL     1       5.621   3.630  14.590  0.00  0.00    +0.000 A 
ATOM     15  C   UNL     1       5.874   3.616  13.213  0.00  0.00    +0.000 A 
ATOM     16  C   UNL     1       6.910   4.385  12.683  0.00  0.00    +0.000 A 
ATOM     17  C   UNL     1       7.665   5.186  13.532  0.00  0.00    +0.000 A 
ATOM     18  C   UNL     1       7.412   5.215  14.902  0.00  0.00    +0.000 A 
BRANCH  17  19
ATOM     19  O   UNL     1       8.698   5.943  13.065  0.00  0.00    +0.000 OA
ATOM     20  H   UNL     1       8.460   6.279  12.186  0.00  0.00    +0.000 HD
ENDBRANCH  17  19
ENDBRANCH  12  13
ENDBRANCH  11  12
TORSDOF 3
ENDMDL
MODEL 8
REMARK VINA RESULT:      -7.6      3.268      5.789
REMARK  Name = 
REMARK  3 active torsions:
REMARK  status: ('A' for Active; 'I' for Inactive)
REMARK    1  A    between atoms: N_11  and  C_12
REMARK    2  A    between atoms: C_12  and  C_13
REMARK    3  A    between atoms: C_17  and  O_18
REMARK                            x       y       z     vdW  Elec       q    Type
REMARK                         _______ _______ _______ _____ _____    ______ ____
ROOT
ATOM      1  O   UNL     1       6.607   5.112  20.151  0.00  0.00    +0.000 OA
ATOM      2  C   UNL     1       6.469   5.117  18.934  0.00  0.00    +0.000 A 
ATOM      3  O   UNL     1       7.404   4.543  18.062  0.00  0.00    +0.000 OA
ATOM      4  C   UNL     1       6.796   4.698  16.827  0.00  0.00    +0.000 A 
ATOM      5  C   UNL     1       7.289   4.211  15.635  0.00  0.00    +0.000 A 
ATOM      6  C   UNL     1       6.519   4.443  14.497  0.00  0.00    +0.000 A 
ATOM      7  F   UNL     1       6.947   3.989  13.311  0.00  0.00    +0.000 F 
ATOM      8  C   UNL     1       5.299   5.135  14.563  0.00  0.00    +0.000 A 
ATOM      9  C   UNL     1       4.812   5.605  15.789  0.00  0.00    +0.000 A 
ATOM     10  C   UNL     1       5.588   5.366  16.905  0.00  0.00    +0.000 A 
ATOM     11  N   UNL     1       5.390   5.631  18.242  0.00  0.00    +0.000 N 
ENDROOT
BRANCH  11  12
ATOM     12  C   UNL     1       4.162   6.057  18.854  0.00  0.00    +0.000 C 
BRANCH  12  13
ATOM     13  C   UNL     1       3.177   4.954  19.159  0.00  0.00    +0.000 A 
ATOM     14  C   UNL     1       2.263   4.521  18.188  0.00  0.00    +0.000 A 
ATOM     15  C   UNL     1       1.248   3.617  18.520  0.00  0.00    +0.000 A 
ATOM     16  C   UNL     1       1.141   3.130  19.823  0.00  0.00    +0.000 A 
ATOM     17  C   UNL     1       2.071   3.530  20.776  0.00  0.00    +0.000 A 
ATOM     18  C   UNL     1       3.091   4.420  20.452  0.00  0.00    +0.000 A 
BRANCH  17  19
ATOM     19  O   UNL     1       1.998   3.095  22.066  0.00  0.00    +0.000 OA
ATOM     20  H   UNL     1       2.473   3.727  22.630  0.00  0.00    +0.000 HD
ENDBRANCH  17  19
ENDBRANCH  12  13
ENDBRANCH  11  12
TORSDOF 3
ENDMDL
MODEL 9
REMARK VINA RESULT:      -7.6      3.182      5.909
REMARK  Name = 
REMARK  3 active torsions:
REMARK  status: ('A' for Active; 'I' for Inactive)
REMARK    1  A    between atoms: N_11  and  C_12
REMARK    2  A    between atoms: C_12  and  C_13
REMARK    3  A    between atoms: C_17  and  O_18
REMARK                            x       y       z     vdW  Elec       q    Type
REMARK                         _______ _______ _______ _____ _____    ______ ____
ROOT
ATOM      1  O   UNL     1       7.423   5.253  20.149  0.00  0.00    +0.000 OA
ATOM      2  C   UNL     1       7.062   5.236  18.978  0.00  0.00    +0.000 A 
ATOM      3  O   UNL     1       7.927   4.915  17.922  0.00  0.00    +0.000 OA
ATOM      4  C   UNL     1       7.079   4.930  16.827  0.00  0.00    +0.000 A 
ATOM      5  C   UNL     1       7.441   4.589  15.540  0.00  0.00    +0.000 A 
ATOM      6  C   UNL     1       6.440   4.639  14.573  0.00  0.00    +0.000 A 
ATOM      7  F   UNL     1       6.733   4.315  13.307  0.00  0.00    +0.000 F 
ATOM      8  C   UNL     1       5.125   5.015  14.895  0.00  0.00    +0.000 A 
ATOM      9  C   UNL     1       4.779   5.340  16.212  0.00  0.00    +0.000 A 
ATOM     10  C   UNL     1       5.784   5.285  17.156  0.00  0.00    +0.000 A 
ATOM     11  N   UNL     1       5.783   5.480  18.520  0.00  0.00    +0.000 N 
ENDROOT
BRANCH  11  12
ATOM     12  C   UNL     1       4.625   5.590  19.364  0.00  0.00    +0.000 C 
BRANCH  12  13
ATOM     13  C   UNL     1       3.789   4.338  19.476  0.00  0.00    +0.000 A 
ATOM     14  C   UNL     1       4.284   3.103  19.033  0.00  0.00    +0.000 A 
ATOM     15  C   UNL     1       3.453   1.978  18.987  0.00  0.00    +0.000 A 
ATOM     16  C   UNL     1       2.121   2.074  19.390  0.00  0.00    +0.000 A 
ATOM     17  C   UNL     1       1.640   3.289  19.866  0.00  0.00    +0.000 A 
ATOM     18  C   UNL     1       2.463   4.410  19.926  0.00  0.00    +0.000 A 
BRANCH  17  19
ATOM     19  O   UNL     1       0.342   3.437  20.256  0.00  0.00    +0.000 OA
ATOM     20  H   UNL     1       0.221   2.975  21.101  0.00  0.00    +0.000 HD
ENDBRANCH  17  19
ENDBRANCH  12  13
ENDBRANCH  11  12
TORSDOF 3
ENDMDL
