MODEL 1
REMARK VINA RESULT:      -6.9      0.000      0.000
REMARK  Name = 
REMARK  12 active torsions:
REMARK  status: ('A' for Active; 'I' for Inactive)
REMARK    1  A    between atoms: C_1  and  C_2
REMARK    2  A    between atoms: C_2  and  C_3
REMARK    3  A    between atoms: C_2  and  N_4
REMARK    4  A    between atoms: N_4  and  C_5
REMARK    5  A    between atoms: N_4  and  C_6
REMARK    6  A    between atoms: C_6  and  C_7
REMARK    7  A    between atoms: C_8  and  C_9
REMARK    8  A    between atoms: C_23  and  C_24
REMARK    9  A    between atoms: C_25  and  C_26
REMARK   10  A    between atoms: C_26  and  C_27
REMARK   11  A    between atoms: C_26  and  C_28
REMARK   12  A    between atoms: C_26  and  O_29
REMARK                            x       y       z     vdW  Elec       q    Type
REMARK                         _______ _______ _______ _____ _____    ______ ____
ROOT
ATOM      1  C   UNL     1       0.529  12.064  20.601  0.00  0.00    +0.000 A 
ATOM      2  C   UNL     1       0.650  12.044  19.220  0.00  0.00    +0.000 A 
ATOM      3  N   UNL     1       0.978  10.759  18.794  0.00  0.00    +0.000 NA
ATOM      4  C   UNL     1       1.038   9.990  19.867  0.00  0.00    +0.000 A 
ATOM      5  N   UNL     1       0.703  10.746  20.986  0.00  0.00    +0.000 N 
ATOM      6  C   UNL     1       0.462  10.275  22.336  0.00  0.00    +0.000 C 
ATOM      7  C   UNL     1      -0.628   9.170  22.348  0.00  0.00    +0.000 C 
ATOM      8  C   UNL     1       0.501   8.128  22.250  0.00  0.00    +0.000 C 
ATOM      9  C   UNL     1       1.429   9.205  22.876  0.00  0.00    +0.000 C 
ATOM     10  C   UNL     1       1.060   7.647  20.857  0.00  0.00    +0.000 A 
ATOM     11  C   UNL     1       1.434   6.296  20.707  0.00  0.00    +0.000 A 
ATOM     12  C   UNL     1       2.269   5.887  19.677  0.00  0.00    +0.000 A 
ATOM     13  F   UNL     1       2.701   4.617  19.671  0.00  0.00    +0.000 F 
ATOM     14  C   UNL     1       2.723   6.800  18.735  0.00  0.00    +0.000 A 
ATOM     15  C   UNL     1       2.252   8.115  18.778  0.00  0.00    +0.000 A 
ATOM     16  C   UNL     1       1.419   8.556  19.831  0.00  0.00    +0.000 A 
ENDROOT
BRANCH   2  17
ATOM     17  C   UNL     1       0.494  13.167  18.287  0.00  0.00    +0.000 C 
ATOM     18  N   UNL     1      -0.712  13.182  17.644  0.00  0.00    +0.000 N 
ATOM     19  O   UNL     1       1.332  14.033  18.062  0.00  0.00    +0.000 OA
ATOM     20  H   UNL     1      -1.399  12.469  17.860  0.00  0.00    +0.000 HD
ATOM     21  H   UNL     1      -0.925  13.948  17.025  0.00  0.00    +0.000 HD
ENDBRANCH   2  17
BRANCH  14  22
ATOM     22  C   UNL     1       3.753   6.415  17.818  0.00  0.00    +0.000 C 
ATOM     23  C   UNL     1       4.690   6.136  17.115  0.00  0.00    +0.000 C 
BRANCH  23  24
ATOM     24  C   UNL     1       5.848   5.798  16.269  0.00  0.00    +0.000 C 
ATOM     25  C   UNL     1       7.146   6.293  16.905  0.00  0.00    +0.000 C 
ATOM     26  C   UNL     1       5.928   4.294  16.011  0.00  0.00    +0.000 C 
BRANCH  24  27
ATOM     27  O   UNL     1       5.696   6.444  15.006  0.00  0.00    +0.000 OA
ATOM     28  H   UNL     1       5.223   7.277  15.172  0.00  0.00    +0.000 HD
ENDBRANCH  24  27
ENDBRANCH  23  24
ENDBRANCH  14  22
BRANCH   1  29
ATOM     29  C   UNL     1       0.303  13.216  21.529  0.00  0.00    +0.000 C 
BRANCH  29  30
ATOM     30  N   UNL     1      -1.087  13.684  21.597  0.00  0.00    +0.000 NA
ATOM     31  C   UNL     1      -1.231  14.596  22.736  0.00  0.00    +0.000 C 
BRANCH  30  33
ATOM     32  C   UNL     1      -2.859  12.354  22.835  0.00  0.00    +0.000 C 
ATOM     33  C   UNL     1      -2.123  12.639  21.523  0.00  0.00    +0.000 C 
ATOM     34  C   UNL     1      -3.152  12.945  20.423  0.00  0.00    +0.000 C 
ENDBRANCH  30  33
ENDBRANCH  29  30
ENDBRANCH   1  29
TORSDOF 7
ENDMDL
MODEL 2
REMARK VINA RESULT:      -6.9      0.758      1.030
REMARK  Name = 
REMARK  12 active torsions:
REMARK  status: ('A' for Active; 'I' for Inactive)
REMARK    1  A    between atoms: C_1  and  C_2
REMARK    2  A    between atoms: C_2  and  C_3
REMARK    3  A    between atoms: C_2  and  N_4
REMARK    4  A    between atoms: N_4  and  C_5
REMARK    5  A    between atoms: N_4  and  C_6
REMARK    6  A    between atoms: C_6  and  C_7
REMARK    7  A    between atoms: C_8  and  C_9
REMARK    8  A    between atoms: C_23  and  C_24
REMARK    9  A    between atoms: C_25  and  C_26
REMARK   10  A    between atoms: C_26  and  C_27
REMARK   11  A    between atoms: C_26  and  C_28
REMARK   12  A    between atoms: C_26  and  O_29
REMARK                            x       y       z     vdW  Elec       q    Type
REMARK                         _______ _______ _______ _____ _____    ______ ____
ROOT
ATOM      1  C   UNL     1       0.431  11.966  20.538  0.00  0.00    +0.000 A 
ATOM      2  C   UNL     1       0.639  11.982  19.168  0.00  0.00    +0.000 A 
ATOM      3  N   UNL     1       1.043  10.720  18.737  0.00  0.00    +0.000 NA
ATOM      4  C   UNL     1       1.065   9.930  19.797  0.00  0.00    +0.000 A 
ATOM      5  N   UNL     1       0.631  10.647  20.907  0.00  0.00    +0.000 N 
ATOM      6  C   UNL     1       0.324  10.137  22.229  0.00  0.00    +0.000 C 
ATOM      7  C   UNL     1      -0.722   8.993  22.149  0.00  0.00    +0.000 C 
ATOM      8  C   UNL     1       0.451   7.996  22.103  0.00  0.00    +0.000 C 
ATOM      9  C   UNL     1       1.295   9.092  22.808  0.00  0.00    +0.000 C 
ATOM     10  C   UNL     1       1.115   7.568  20.740  0.00  0.00    +0.000 A 
ATOM     11  C   UNL     1       1.550   6.235  20.587  0.00  0.00    +0.000 A 
ATOM     12  C   UNL     1       2.463   5.880  19.605  0.00  0.00    +0.000 A 
ATOM     13  F   UNL     1       2.943   4.628  19.601  0.00  0.00    +0.000 F 
ATOM     14  C   UNL     1       2.940   6.831  18.712  0.00  0.00    +0.000 A 
ATOM     15  C   UNL     1       2.416   8.126  18.751  0.00  0.00    +0.000 A 
ATOM     16  C   UNL     1       1.503   8.512  19.757  0.00  0.00    +0.000 A 
ENDROOT
BRANCH   2  17
ATOM     17  C   UNL     1       0.500  13.119  18.249  0.00  0.00    +0.000 C 
ATOM     18  N   UNL     1      -0.716  13.173  17.625  0.00  0.00    +0.000 N 
ATOM     19  O   UNL     1       1.358  13.963  18.019  0.00  0.00    +0.000 OA
ATOM     20  H   UNL     1      -1.418  12.477  17.845  0.00  0.00    +0.000 HD
ATOM     21  H   UNL     1      -0.917  13.952  17.018  0.00  0.00    +0.000 HD
ENDBRANCH   2  17
BRANCH  14  22
ATOM     22  C   UNL     1       4.040   6.505  17.855  0.00  0.00    +0.000 C 
ATOM     23  C   UNL     1       4.938   6.126  17.147  0.00  0.00    +0.000 C 
BRANCH  23  24
ATOM     24  C   UNL     1       6.028   5.647  16.280  0.00  0.00    +0.000 C 
ATOM     25  C   UNL     1       6.636   4.361  16.836  0.00  0.00    +0.000 C 
ATOM     26  C   UNL     1       5.543   5.425  14.848  0.00  0.00    +0.000 C 
BRANCH  24  27
ATOM     27  O   UNL     1       7.051   6.641  16.239  0.00  0.00    +0.000 OA
ATOM     28  H   UNL     1       7.778   6.319  16.798  0.00  0.00    +0.000 HD
ENDBRANCH  24  27
ENDBRANCH  23  24
ENDBRANCH  14  22
BRANCH   1  29
ATOM     29  C   UNL     1       0.103  13.087  21.472  0.00  0.00    +0.000 C 
BRANCH  29  30
ATOM     30  N   UNL     1      -1.328  13.239  21.769  0.00  0.00    +0.000 NA
ATOM     31  C   UNL     1      -1.826  14.458  21.125  0.00  0.00    +0.000 C 
BRANCH  30  33
ATOM     32  C   UNL     1      -2.030  14.418  23.905  0.00  0.00    +0.000 C 
ATOM     33  C   UNL     1      -1.708  13.105  23.187  0.00  0.00    +0.000 C 
ATOM     34  C   UNL     1      -2.886  12.132  23.362  0.00  0.00    +0.000 C 
ENDBRANCH  30  33
ENDBRANCH  29  30
ENDBRANCH   1  29
TORSDOF 7
ENDMDL
MODEL 3
REMARK VINA RESULT:      -6.9      0.815      1.135
REMARK  Name = 
REMARK  12 active torsions:
REMARK  status: ('A' for Active; 'I' for Inactive)
REMARK    1  A    between atoms: C_1  and  C_2
REMARK    2  A    between atoms: C_2  and  C_3
REMARK    3  A    between atoms: C_2  and  N_4
REMARK    4  A    between atoms: N_4  and  C_5
REMARK    5  A    between atoms: N_4  and  C_6
REMARK    6  A    between atoms: C_6  and  C_7
REMARK    7  A    between atoms: C_8  and  C_9
REMARK    8  A    between atoms: C_23  and  C_24
REMARK    9  A    between atoms: C_25  and  C_26
REMARK   10  A    between atoms: C_26  and  C_27
REMARK   11  A    between atoms: C_26  and  C_28
REMARK   12  A    between atoms: C_26  and  O_29
REMARK                            x       y       z     vdW  Elec       q    Type
REMARK                         _______ _______ _______ _____ _____    ______ ____
ROOT
ATOM      1  C   UNL     1      -0.313  11.952  20.332  0.00  0.00    +0.000 A 
ATOM      2  C   UNL     1      -0.275  11.810  18.954  0.00  0.00    +0.000 A 
ATOM      3  N   UNL     1       0.258  10.567  18.621  0.00  0.00    +0.000 NA
ATOM      4  C   UNL     1       0.524   9.936  19.753  0.00  0.00    +0.000 A 
ATOM      5  N   UNL     1       0.123  10.732  20.820  0.00  0.00    +0.000 N 
ATOM      6  C   UNL     1       0.056  10.369  22.222  0.00  0.00    +0.000 C 
ATOM      7  C   UNL     1      -0.810   9.096  22.420  0.00  0.00    +0.000 C 
ATOM      8  C   UNL     1       0.484   8.266  22.330  0.00  0.00    +0.000 C 
ATOM      9  C   UNL     1       1.234   9.549  22.780  0.00  0.00    +0.000 C 
ATOM     10  C   UNL     1       1.037   7.750  20.947  0.00  0.00    +0.000 A 
ATOM     11  C   UNL     1       1.644   6.479  20.892  0.00  0.00    +0.000 A 
ATOM     12  C   UNL     1       2.476   6.120  19.842  0.00  0.00    +0.000 A 
ATOM     13  F   UNL     1       3.133   4.952  19.917  0.00  0.00    +0.000 F 
ATOM     14  C   UNL     1       2.696   6.996  18.787  0.00  0.00    +0.000 A 
ATOM     15  C   UNL     1       1.994   8.204  18.747  0.00  0.00    +0.000 A 
ATOM     16  C   UNL     1       1.160   8.597  19.817  0.00  0.00    +0.000 A 
ENDROOT
BRANCH   2  17
ATOM     17  C   UNL     1      -0.691  12.785  17.936  0.00  0.00    +0.000 C 
ATOM     18  N   UNL     1      -1.624  12.300  17.063  0.00  0.00    +0.000 N 
ATOM     19  O   UNL     1      -0.272  13.932  17.830  0.00  0.00    +0.000 OA
ATOM     20  H   UNL     1      -1.973  11.356  17.182  0.00  0.00    +0.000 HD
ATOM     21  H   UNL     1      -2.006  12.919  16.365  0.00  0.00    +0.000 HD
ENDBRANCH   2  17
BRANCH  14  22
ATOM     22  C   UNL     1       3.722   6.706  17.831  0.00  0.00    +0.000 C 
ATOM     23  C   UNL     1       4.534   6.368  17.010  0.00  0.00    +0.000 C 
BRANCH  23  24
ATOM     24  C   UNL     1       5.517   5.941  15.998  0.00  0.00    +0.000 C 
ATOM     25  C   UNL     1       6.943   6.130  16.516  0.00  0.00    +0.000 C 
ATOM     26  C   UNL     1       5.294   4.487  15.584  0.00  0.00    +0.000 C 
BRANCH  24  27
ATOM     27  O   UNL     1       5.356   6.751  14.834  0.00  0.00    +0.000 OA
ATOM     28  H   UNL     1       4.400   6.847  14.689  0.00  0.00    +0.000 HD
ENDBRANCH  24  27
ENDBRANCH  23  24
ENDBRANCH  14  22
BRANCH   1  29
ATOM     29  C   UNL     1      -0.691  13.135  21.166  0.00  0.00    +0.000 C 
BRANCH  29  30
ATOM     30  N   UNL     1      -2.128  13.256  21.443  0.00  0.00    +0.000 NA
ATOM     31  C   UNL     1      -2.716  14.228  20.516  0.00  0.00    +0.000 C 
BRANCH  30  33
ATOM     32  C   UNL     1      -3.171  12.275  23.540  0.00  0.00    +0.000 C 
ATOM     33  C   UNL     1      -2.495  13.466  22.855  0.00  0.00    +0.000 C 
ATOM     34  C   UNL     1      -1.283  13.908  23.690  0.00  0.00    +0.000 C 
ENDBRANCH  30  33
ENDBRANCH  29  30
ENDBRANCH   1  29
TORSDOF 7
ENDMDL
MODEL 4
REMARK VINA RESULT:      -6.8      1.064      1.341
REMARK  Name = 
REMARK  12 active torsions:
REMARK  status: ('A' for Active; 'I' for Inactive)
REMARK    1  A    between atoms: C_1  and  C_2
REMARK    2  A    between atoms: C_2  and  C_3
REMARK    3  A    between atoms: C_2  and  N_4
REMARK    4  A    between atoms: N_4  and  C_5
REMARK    5  A    between atoms: N_4  and  C_6
REMARK    6  A    between atoms: C_6  and  C_7
REMARK    7  A    between atoms: C_8  and  C_9
REMARK    8  A    between atoms: C_23  and  C_24
REMARK    9  A    between atoms: C_25  and  C_26
REMARK   10  A    between atoms: C_26  and  C_27
REMARK   11  A    between atoms: C_26  and  C_28
REMARK   12  A    between atoms: C_26  and  O_29
REMARK                            x       y       z     vdW  Elec       q    Type
REMARK                         _______ _______ _______ _____ _____    ______ ____
ROOT
ATOM      1  C   UNL     1       0.764  11.961  20.459  0.00  0.00    +0.000 A 
ATOM      2  C   UNL     1       0.966  11.941  19.088  0.00  0.00    +0.000 A 
ATOM      3  N   UNL     1       1.273  10.647  18.674  0.00  0.00    +0.000 NA
ATOM      4  C   UNL     1       1.241   9.872  19.745  0.00  0.00    +0.000 A 
ATOM      5  N   UNL     1       0.867  10.636  20.845  0.00  0.00    +0.000 N 
ATOM      6  C   UNL     1       0.529  10.169  22.176  0.00  0.00    +0.000 C 
ATOM      7  C   UNL     1      -0.600   9.105  22.117  0.00  0.00    +0.000 C 
ATOM      8  C   UNL     1       0.495   8.023  22.081  0.00  0.00    +0.000 C 
ATOM      9  C   UNL     1       1.423   9.062  22.766  0.00  0.00    +0.000 C 
ATOM     10  C   UNL     1       1.118   7.527  20.721  0.00  0.00    +0.000 A 
ATOM     11  C   UNL     1       1.451   6.163  20.585  0.00  0.00    +0.000 A 
ATOM     12  C   UNL     1       2.331   5.728  19.605  0.00  0.00    +0.000 A 
ATOM     13  F   UNL     1       2.716   4.442  19.617  0.00  0.00    +0.000 F 
ATOM     14  C   UNL     1       2.873   6.627  18.696  0.00  0.00    +0.000 A 
ATOM     15  C   UNL     1       2.448   7.958  18.719  0.00  0.00    +0.000 A 
ATOM     16  C   UNL     1       1.571   8.426  19.722  0.00  0.00    +0.000 A 
ENDROOT
BRANCH   2  17
ATOM     17  C   UNL     1       0.908  13.073  18.153  0.00  0.00    +0.000 C 
ATOM     18  N   UNL     1       2.087  13.309  17.504  0.00  0.00    +0.000 N 
ATOM     19  O   UNL     1      -0.074  13.775  17.940  0.00  0.00    +0.000 OA
ATOM     20  H   UNL     1       2.880  12.703  17.679  0.00  0.00    +0.000 HD
ATOM     21  H   UNL     1       2.121  14.033  16.803  0.00  0.00    +0.000 HD
ENDBRANCH   2  17
BRANCH  14  22
ATOM     22  C   UNL     1       3.941   6.208  17.840  0.00  0.00    +0.000 C 
ATOM     23  C   UNL     1       4.844   5.764  17.178  0.00  0.00    +0.000 C 
BRANCH  23  24
ATOM     24  C   UNL     1       5.945   5.204  16.375  0.00  0.00    +0.000 C 
ATOM     25  C   UNL     1       5.602   5.239  14.887  0.00  0.00    +0.000 C 
ATOM     26  C   UNL     1       7.255   5.948  16.632  0.00  0.00    +0.000 C 
BRANCH  24  27
ATOM     27  O   UNL     1       6.141   3.843  16.754  0.00  0.00    +0.000 OA
ATOM     28  H   UNL     1       6.995   3.567  16.379  0.00  0.00    +0.000 HD
ENDBRANCH  24  27
ENDBRANCH  23  24
ENDBRANCH  14  22
BRANCH   1  29
ATOM     29  C   UNL     1       0.526  13.117  21.378  0.00  0.00    +0.000 C 
BRANCH  29  30
ATOM     30  N   UNL     1      -0.887  13.371  21.689  0.00  0.00    +0.000 NA
ATOM     31  C   UNL     1      -1.264  14.687  21.165  0.00  0.00    +0.000 C 
BRANCH  30  33
ATOM     32  C   UNL     1      -1.570  14.400  23.907  0.00  0.00    +0.000 C 
ATOM     33  C   UNL     1      -1.291  13.137  23.087  0.00  0.00    +0.000 C 
ATOM     34  C   UNL     1      -2.507  12.201  23.170  0.00  0.00    +0.000 C 
ENDBRANCH  30  33
ENDBRANCH  29  30
ENDBRANCH   1  29
TORSDOF 7
ENDMDL
MODEL 5
REMARK VINA RESULT:      -6.5      7.351      8.815
REMARK  Name = 
REMARK  12 active torsions:
REMARK  status: ('A' for Active; 'I' for Inactive)
REMARK    1  A    between atoms: C_1  and  C_2
REMARK    2  A    between atoms: C_2  and  C_3
REMARK    3  A    between atoms: C_2  and  N_4
REMARK    4  A    between atoms: N_4  and  C_5
REMARK    5  A    between atoms: N_4  and  C_6
REMARK    6  A    between atoms: C_6  and  C_7
REMARK    7  A    between atoms: C_8  and  C_9
REMARK    8  A    between atoms: C_23  and  C_24
REMARK    9  A    between atoms: C_25  and  C_26
REMARK   10  A    between atoms: C_26  and  C_27
REMARK   11  A    between atoms: C_26  and  C_28
REMARK   12  A    between atoms: C_26  and  O_29
REMARK                            x       y       z     vdW  Elec       q    Type
REMARK                         _______ _______ _______ _____ _____    ______ ____
ROOT
ATOM      1  C   UNL     1       8.056  13.980  23.752  0.00  0.00    +0.000 A 
ATOM      2  C   UNL     1       7.947  12.640  24.090  0.00  0.00    +0.000 A 
ATOM      3  N   UNL     1       8.410  11.849  23.040  0.00  0.00    +0.000 NA
ATOM      4  C   UNL     1       8.820  12.664  22.083  0.00  0.00    +0.000 A 
ATOM      5  N   UNL     1       8.678  13.978  22.516  0.00  0.00    +0.000 N 
ATOM      6  C   UNL     1       9.166  15.182  21.872  0.00  0.00    +0.000 C 
ATOM      7  C   UNL     1      10.694  15.087  21.612  0.00  0.00    +0.000 C 
ATOM      8  C   UNL     1      10.367  14.543  20.209  0.00  0.00    +0.000 C 
ATOM      9  C   UNL     1       8.999  15.264  20.343  0.00  0.00    +0.000 C 
ATOM     10  C   UNL     1      10.165  13.001  19.951  0.00  0.00    +0.000 A 
ATOM     11  C   UNL     1      10.634  12.450  18.741  0.00  0.00    +0.000 A 
ATOM     12  C   UNL     1      10.170  11.228  18.276  0.00  0.00    +0.000 A 
ATOM     13  F   UNL     1      10.547  10.824  17.053  0.00  0.00    +0.000 F 
ATOM     14  C   UNL     1       9.259  10.491  19.021  0.00  0.00    +0.000 A 
ATOM     15  C   UNL     1       8.889  10.947  20.289  0.00  0.00    +0.000 A 
ATOM     16  C   UNL     1       9.333  12.198  20.771  0.00  0.00    +0.000 A 
ENDROOT
BRANCH   2  17
ATOM     17  C   UNL     1       7.414  12.064  25.332  0.00  0.00    +0.000 C 
ATOM     18  N   UNL     1       8.169  12.349  26.435  0.00  0.00    +0.000 N 
ATOM     19  O   UNL     1       6.400  11.383  25.427  0.00  0.00    +0.000 OA
ATOM     20  H   UNL     1       8.991  12.932  26.337  0.00  0.00    +0.000 HD
ATOM     21  H   UNL     1       7.847  12.039  27.339  0.00  0.00    +0.000 HD
ENDBRANCH   2  17
BRANCH  14  22
ATOM     22  C   UNL     1       8.624   9.350  18.433  0.00  0.00    +0.000 C 
ATOM     23  C   UNL     1       8.092   8.345  18.036  0.00  0.00    +0.000 C 
BRANCH  23  24
ATOM     24  C   UNL     1       7.438   7.111  17.568  0.00  0.00    +0.000 C 
ATOM     25  C   UNL     1       7.691   5.961  18.541  0.00  0.00    +0.000 C 
ATOM     26  C   UNL     1       5.936   7.317  17.374  0.00  0.00    +0.000 C 
BRANCH  24  27
ATOM     27  O   UNL     1       7.990   6.752  16.302  0.00  0.00    +0.000 OA
ATOM     28  H   UNL     1       7.604   5.894  16.060  0.00  0.00    +0.000 HD
ENDBRANCH  24  27
ENDBRANCH  23  24
ENDBRANCH  14  22
BRANCH   1  29
ATOM     29  C   UNL     1       7.592  15.196  24.489  0.00  0.00    +0.000 C 
BRANCH  29  30
ATOM     30  N   UNL     1       6.161  15.491  24.347  0.00  0.00    +0.000 NA
ATOM     31  C   UNL     1       5.988  16.580  23.381  0.00  0.00    +0.000 C 
BRANCH  30  33
ATOM     32  C   UNL     1       6.182  15.315  26.880  0.00  0.00    +0.000 C 
ATOM     33  C   UNL     1       5.413  15.672  25.604  0.00  0.00    +0.000 C 
ATOM     34  C   UNL     1       4.865  17.103  25.729  0.00  0.00    +0.000 C 
ENDBRANCH  30  33
ENDBRANCH  29  30
ENDBRANCH   1  29
TORSDOF 7
ENDMDL
MODEL 6
REMARK VINA RESULT:      -6.5      7.242      8.712
REMARK  Name = 
REMARK  12 active torsions:
REMARK  status: ('A' for Active; 'I' for Inactive)
REMARK    1  A    between atoms: C_1  and  C_2
REMARK    2  A    between atoms: C_2  and  C_3
REMARK    3  A    between atoms: C_2  and  N_4
REMARK    4  A    between atoms: N_4  and  C_5
REMARK    5  A    between atoms: N_4  and  C_6
REMARK    6  A    between atoms: C_6  and  C_7
REMARK    7  A    between atoms: C_8  and  C_9
REMARK    8  A    between atoms: C_23  and  C_24
REMARK    9  A    between atoms: C_25  and  C_26
REMARK   10  A    between atoms: C_26  and  C_27
REMARK   11  A    between atoms: C_26  and  C_28
REMARK   12  A    between atoms: C_26  and  O_29
REMARK                            x       y       z     vdW  Elec       q    Type
REMARK                         _______ _______ _______ _____ _____    ______ ____
ROOT
ATOM      1  C   UNL     1       8.157  14.140  23.697  0.00  0.00    +0.000 A 
ATOM      2  C   UNL     1       8.008  12.810  24.056  0.00  0.00    +0.000 A 
ATOM      3  N   UNL     1       8.457  11.989  23.024  0.00  0.00    +0.000 NA
ATOM      4  C   UNL     1       8.897  12.776  22.057  0.00  0.00    +0.000 A 
ATOM      5  N   UNL     1       8.788  14.101  22.466  0.00  0.00    +0.000 N 
ATOM      6  C   UNL     1       9.315  15.280  21.807  0.00  0.00    +0.000 C 
ATOM      7  C   UNL     1      10.841  15.137  21.561  0.00  0.00    +0.000 C 
ATOM      8  C   UNL     1      10.511  14.579  20.165  0.00  0.00    +0.000 C 
ATOM      9  C   UNL     1       9.162  15.341  20.276  0.00  0.00    +0.000 C 
ATOM     10  C   UNL     1      10.267  13.040  19.931  0.00  0.00    +0.000 A 
ATOM     11  C   UNL     1      10.729  12.455  18.733  0.00  0.00    +0.000 A 
ATOM     12  C   UNL     1      10.235  11.239  18.285  0.00  0.00    +0.000 A 
ATOM     13  F   UNL     1      10.610  10.805  17.072  0.00  0.00    +0.000 F 
ATOM     14  C   UNL     1       9.298  10.540  19.035  0.00  0.00    +0.000 A 
ATOM     15  C   UNL     1       8.931  11.028  20.292  0.00  0.00    +0.000 A 
ATOM     16  C   UNL     1       9.406  12.274  20.757  0.00  0.00    +0.000 A 
ENDROOT
BRANCH   2  17
ATOM     17  C   UNL     1       7.449  12.270  25.303  0.00  0.00    +0.000 C 
ATOM     18  N   UNL     1       6.427  11.385  25.108  0.00  0.00    +0.000 N 
ATOM     19  O   UNL     1       7.821  12.556  26.436  0.00  0.00    +0.000 OA
ATOM     20  H   UNL     1       6.150  11.147  24.162  0.00  0.00    +0.000 HD
ATOM     21  H   UNL     1       6.021  10.925  25.907  0.00  0.00    +0.000 HD
ENDBRANCH   2  17
BRANCH  14  22
ATOM     22  C   UNL     1       8.636   9.409  18.460  0.00  0.00    +0.000 C 
ATOM     23  C   UNL     1       8.108   8.401  18.065  0.00  0.00    +0.000 C 
BRANCH  23  24
ATOM     24  C   UNL     1       7.462   7.161  17.599  0.00  0.00    +0.000 C 
ATOM     25  C   UNL     1       7.729   6.013  18.571  0.00  0.00    +0.000 C 
ATOM     26  C   UNL     1       5.958   7.354  17.411  0.00  0.00    +0.000 C 
BRANCH  24  27
ATOM     27  O   UNL     1       8.013   6.808  16.331  0.00  0.00    +0.000 OA
ATOM     28  H   UNL     1       8.030   7.619  15.796  0.00  0.00    +0.000 HD
ENDBRANCH  24  27
ENDBRANCH  23  24
ENDBRANCH  14  22
BRANCH   1  29
ATOM     29  C   UNL     1       7.722  15.381  24.410  0.00  0.00    +0.000 C 
BRANCH  29  30
ATOM     30  N   UNL     1       6.341  15.796  24.133  0.00  0.00    +0.000 NA
ATOM     31  C   UNL     1       5.468  15.303  25.202  0.00  0.00    +0.000 C 
BRANCH  30  33
ATOM     32  C   UNL     1       4.553  14.706  22.697  0.00  0.00    +0.000 C 
ATOM     33  C   UNL     1       5.848  15.521  22.772  0.00  0.00    +0.000 C 
ATOM     34  C   UNL     1       5.676  16.818  21.964  0.00  0.00    +0.000 C 
ENDBRANCH  30  33
ENDBRANCH  29  30
ENDBRANCH   1  29
TORSDOF 7
ENDMDL
MODEL 7
REMARK VINA RESULT:      -6.3      1.103      1.598
REMARK  Name = 
REMARK  12 active torsions:
REMARK  status: ('A' for Active; 'I' for Inactive)
REMARK    1  A    between atoms: C_1  and  C_2
REMARK    2  A    between atoms: C_2  and  C_3
REMARK    3  A    between atoms: C_2  and  N_4
REMARK    4  A    between atoms: N_4  and  C_5
REMARK    5  A    between atoms: N_4  and  C_6
REMARK    6  A    between atoms: C_6  and  C_7
REMARK    7  A    between atoms: C_8  and  C_9
REMARK    8  A    between atoms: C_23  and  C_24
REMARK    9  A    between atoms: C_25  and  C_26
REMARK   10  A    between atoms: C_26  and  C_27
REMARK   11  A    between atoms: C_26  and  C_28
REMARK   12  A    between atoms: C_26  and  O_29
REMARK                            x       y       z     vdW  Elec       q    Type
REMARK                         _______ _______ _______ _____ _____    ______ ____
ROOT
ATOM      1  C   UNL     1       0.475  12.046  20.535  0.00  0.00    +0.000 A 
ATOM      2  C   UNL     1       0.587  12.031  19.153  0.00  0.00    +0.000 A 
ATOM      3  N   UNL     1       0.945  10.756  18.722  0.00  0.00    +0.000 NA
ATOM      4  C   UNL     1       1.031   9.987  19.794  0.00  0.00    +0.000 A 
ATOM      5  N   UNL     1       0.684  10.732  20.916  0.00  0.00    +0.000 N 
ATOM      6  C   UNL     1       0.463  10.253  22.266  0.00  0.00    +0.000 C 
ATOM      7  C   UNL     1      -0.599   9.121  22.283  0.00  0.00    +0.000 C 
ATOM      8  C   UNL     1       0.555   8.108  22.177  0.00  0.00    +0.000 C 
ATOM      9  C   UNL     1       1.460   9.206  22.799  0.00  0.00    +0.000 C 
ATOM     10  C   UNL     1       1.118   7.644  20.780  0.00  0.00    +0.000 A 
ATOM     11  C   UNL     1       1.525   6.302  20.625  0.00  0.00    +0.000 A 
ATOM     12  C   UNL     1       2.363   5.916  19.590  0.00  0.00    +0.000 A 
ATOM     13  F   UNL     1       2.827   4.657  19.578  0.00  0.00    +0.000 F 
ATOM     14  C   UNL     1       2.788   6.842  18.646  0.00  0.00    +0.000 A 
ATOM     15  C   UNL     1       2.284   8.145  18.694  0.00  0.00    +0.000 A 
ATOM     16  C   UNL     1       1.448   8.563  19.753  0.00  0.00    +0.000 A 
ENDROOT
BRANCH   2  17
ATOM     17  C   UNL     1       0.398  13.152  18.222  0.00  0.00    +0.000 C 
ATOM     18  N   UNL     1      -0.841  13.181  17.645  0.00  0.00    +0.000 N 
ATOM     19  O   UNL     1       1.235  14.003  17.947  0.00  0.00    +0.000 OA
ATOM     20  H   UNL     1      -1.526  12.479  17.903  0.00  0.00    +0.000 HD
ATOM     21  H   UNL     1      -1.076  13.947  17.034  0.00  0.00    +0.000 HD
ENDBRANCH   2  17
BRANCH  14  22
ATOM     22  C   UNL     1       3.822   6.484  17.722  0.00  0.00    +0.000 C 
ATOM     23  C   UNL     1       4.724   6.110  17.017  0.00  0.00    +0.000 C 
BRANCH  23  24
ATOM     24  C   UNL     1       5.829   5.636  16.165  0.00  0.00    +0.000 C 
ATOM     25  C   UNL     1       7.180   5.977  16.792  0.00  0.00    +0.000 C 
ATOM     26  C   UNL     1       5.730   4.133  15.910  0.00  0.00    +0.000 C 
BRANCH  24  27
ATOM     27  O   UNL     1       5.746   6.294  14.902  0.00  0.00    +0.000 OA
ATOM     28  H   UNL     1       6.341   5.818  14.298  0.00  0.00    +0.000 HD
ENDBRANCH  24  27
ENDBRANCH  23  24
ENDBRANCH  14  22
BRANCH   1  29
ATOM     29  C   UNL     1       0.226  13.190  21.466  0.00  0.00    +0.000 C 
BRANCH  29  30
ATOM     30  N   UNL     1       0.843  14.458  21.057  0.00  0.00    +0.000 NA
ATOM     31  C   UNL     1       2.166  14.571  21.679  0.00  0.00    +0.000 C 
BRANCH  30  33
ATOM     32  C   UNL     1       0.644  16.969  20.734  0.00  0.00    +0.000 C 
ATOM     33  C   UNL     1       0.002  15.660  21.201  0.00  0.00    +0.000 C 
ATOM     34  C   UNL     1      -1.354  15.483  20.498  0.00  0.00    +0.000 C 
ENDBRANCH  30  33
ENDBRANCH  29  30
ENDBRANCH   1  29
TORSDOF 7
ENDMDL
MODEL 8
REMARK VINA RESULT:      -6.3      1.046      1.429
REMARK  Name = 
REMARK  12 active torsions:
REMARK  status: ('A' for Active; 'I' for Inactive)
REMARK    1  A    between atoms: C_1  and  C_2
REMARK    2  A    between atoms: C_2  and  C_3
REMARK    3  A    between atoms: C_2  and  N_4
REMARK    4  A    between atoms: N_4  and  C_5
REMARK    5  A    between atoms: N_4  and  C_6
REMARK    6  A    between atoms: C_6  and  C_7
REMARK    7  A    between atoms: C_8  and  C_9
REMARK    8  A    between atoms: C_23  and  C_24
REMARK    9  A    between atoms: C_25  and  C_26
REMARK   10  A    between atoms: C_26  and  C_27
REMARK   11  A    between atoms: C_26  and  C_28
REMARK   12  A    between atoms: C_26  and  O_29
REMARK                            x       y       z     vdW  Elec       q    Type
REMARK                         _______ _______ _______ _____ _____    ______ ____
ROOT
ATOM      1  C   UNL     1       0.835  11.799  20.342  0.00  0.00    +0.000 A 
ATOM      2  C   UNL     1       1.104  11.814  18.983  0.00  0.00    +0.000 A 
ATOM      3  N   UNL     1       1.464  10.536  18.559  0.00  0.00    +0.000 NA
ATOM      4  C   UNL     1       1.399   9.739  19.611  0.00  0.00    +0.000 A 
ATOM      5  N   UNL     1       0.952  10.469  20.707  0.00  0.00    +0.000 N 
ATOM      6  C   UNL     1       0.561   9.967  22.010  0.00  0.00    +0.000 C 
ATOM      7  C   UNL     1      -0.535   8.876  21.873  0.00  0.00    +0.000 C 
ATOM      8  C   UNL     1       0.587   7.823  21.870  0.00  0.00    +0.000 C 
ATOM      9  C   UNL     1       1.453   8.870  22.621  0.00  0.00    +0.000 C 
ATOM     10  C   UNL     1       1.289   7.371  20.533  0.00  0.00    +0.000 A 
ATOM     11  C   UNL     1       1.664   6.019  20.388  0.00  0.00    +0.000 A 
ATOM     12  C   UNL     1       2.601   5.626  19.444  0.00  0.00    +0.000 A 
ATOM     13  F   UNL     1       3.018   4.351  19.449  0.00  0.00    +0.000 F 
ATOM     14  C   UNL     1       3.164   6.558  18.581  0.00  0.00    +0.000 A 
ATOM     15  C   UNL     1       2.704   7.878  18.609  0.00  0.00    +0.000 A 
ATOM     16  C   UNL     1       1.767   8.302  19.577  0.00  0.00    +0.000 A 
ENDROOT
BRANCH   2  17
ATOM     17  C   UNL     1       1.062  12.963  18.068  0.00  0.00    +0.000 C 
ATOM     18  N   UNL     1       2.258  13.223  17.460  0.00  0.00    +0.000 N 
ATOM     19  O   UNL     1       0.080  13.660  17.839  0.00  0.00    +0.000 OA
ATOM     20  H   UNL     1       3.052  12.621  17.647  0.00  0.00    +0.000 HD
ATOM     21  H   UNL     1       2.306  13.961  16.775  0.00  0.00    +0.000 HD
ENDBRANCH   2  17
BRANCH  14  22
ATOM     22  C   UNL     1       4.283   6.183  17.770  0.00  0.00    +0.000 C 
ATOM     23  C   UNL     1       5.285   5.931  17.153  0.00  0.00    +0.000 C 
BRANCH  23  24
ATOM     24  C   UNL     1       6.522   5.627  16.411  0.00  0.00    +0.000 C 
ATOM     25  C   UNL     1       7.294   4.495  17.088  0.00  0.00    +0.000 C 
ATOM     26  C   UNL     1       6.225   5.267  14.956  0.00  0.00    +0.000 C 
BRANCH  24  27
ATOM     27  O   UNL     1       7.349   6.789  16.407  0.00  0.00    +0.000 OA
ATOM     28  H   UNL     1       7.076   7.331  17.167  0.00  0.00    +0.000 HD
ENDBRANCH  24  27
ENDBRANCH  23  24
ENDBRANCH  14  22
BRANCH   1  29
ATOM     29  C   UNL     1       0.521  12.929  21.271  0.00  0.00    +0.000 C 
BRANCH  29  30
ATOM     30  N   UNL     1      -0.880  12.996  21.705  0.00  0.00    +0.000 NA
ATOM     31  C   UNL     1      -1.747  12.602  20.589  0.00  0.00    +0.000 C 
BRANCH  30  33
ATOM     32  C   UNL     1      -1.671  14.095  23.853  0.00  0.00    +0.000 C 
ATOM     33  C   UNL     1      -1.288  14.242  22.377  0.00  0.00    +0.000 C 
ATOM     34  C   UNL     1      -0.211  15.331  22.241  0.00  0.00    +0.000 C 
ENDBRANCH  30  33
ENDBRANCH  29  30
ENDBRANCH   1  29
TORSDOF 7
ENDMDL
MODEL 9
REMARK VINA RESULT:      -6.3      1.157      1.948
REMARK  Name = 
REMARK  12 active torsions:
REMARK  status: ('A' for Active; 'I' for Inactive)
REMARK    1  A    between atoms: C_1  and  C_2
REMARK    2  A    between atoms: C_2  and  C_3
REMARK    3  A    between atoms: C_2  and  N_4
REMARK    4  A    between atoms: N_4  and  C_5
REMARK    5  A    between atoms: N_4  and  C_6
REMARK    6  A    between atoms: C_6  and  C_7
REMARK    7  A    between atoms: C_8  and  C_9
REMARK    8  A    between atoms: C_23  and  C_24
REMARK    9  A    between atoms: C_25  and  C_26
REMARK   10  A    between atoms: C_26  and  C_27
REMARK   11  A    between atoms: C_26  and  C_28
REMARK   12  A    between atoms: C_26  and  O_29
REMARK                            x       y       z     vdW  Elec       q    Type
REMARK                         _______ _______ _______ _____ _____    ______ ____
ROOT
ATOM      1  C   UNL     1      -0.199  11.890  20.320  0.00  0.00    +0.000 A 
ATOM      2  C   UNL     1      -0.143  11.738  18.943  0.00  0.00    +0.000 A 
ATOM      3  N   UNL     1       0.377  10.484  18.628  0.00  0.00    +0.000 NA
ATOM      4  C   UNL     1       0.617   9.859  19.768  0.00  0.00    +0.000 A 
ATOM      5  N   UNL     1       0.212  10.669  20.824  0.00  0.00    +0.000 N 
ATOM      6  C   UNL     1       0.119  10.318  22.227  0.00  0.00    +0.000 C 
ATOM      7  C   UNL     1      -0.768   9.058  22.422  0.00  0.00    +0.000 C 
ATOM      8  C   UNL     1       0.515   8.210  22.358  0.00  0.00    +0.000 C 
ATOM      9  C   UNL     1       1.277   9.486  22.809  0.00  0.00    +0.000 C 
ATOM     10  C   UNL     1       1.081   7.675  20.987  0.00  0.00    +0.000 A 
ATOM     11  C   UNL     1       1.670   6.395  20.951  0.00  0.00    +0.000 A 
ATOM     12  C   UNL     1       2.512   6.015  19.916  0.00  0.00    +0.000 A 
ATOM     13  F   UNL     1       3.151   4.839  20.010  0.00  0.00    +0.000 F 
ATOM     14  C   UNL     1       2.760   6.880  18.858  0.00  0.00    +0.000 A 
ATOM     15  C   UNL     1       2.076   8.098  18.798  0.00  0.00    +0.000 A 
ATOM     16  C   UNL     1       1.232   8.511  19.852  0.00  0.00    +0.000 A 
ENDROOT
BRANCH   2  17
ATOM     17  C   UNL     1      -0.530  12.710  17.912  0.00  0.00    +0.000 C 
ATOM     18  N   UNL     1      -1.507  12.257  17.071  0.00  0.00    +0.000 N 
ATOM     19  O   UNL     1      -0.053  13.830  17.769  0.00  0.00    +0.000 OA
ATOM     20  H   UNL     1      -1.903  11.336  17.220  0.00  0.00    +0.000 HD
ATOM     21  H   UNL     1      -1.872  12.879  16.368  0.00  0.00    +0.000 HD
ENDBRANCH   2  17
BRANCH  14  22
ATOM     22  C   UNL     1       3.796   6.568  17.919  0.00  0.00    +0.000 C 
ATOM     23  C   UNL     1       4.733   6.292  17.215  0.00  0.00    +0.000 C 
BRANCH  23  24
ATOM     24  C   UNL     1       5.887   5.946  16.368  0.00  0.00    +0.000 C 
ATOM     25  C   UNL     1       6.565   4.673  16.871  0.00  0.00    +0.000 C 
ATOM     26  C   UNL     1       5.475   5.782  14.905  0.00  0.00    +0.000 C 
BRANCH  24  27
ATOM     27  O   UNL     1       6.836   7.010  16.431  0.00  0.00    +0.000 OA
ATOM     28  H   UNL     1       7.718   6.603  16.389  0.00  0.00    +0.000 HD
ENDBRANCH  24  27
ENDBRANCH  23  24
ENDBRANCH  14  22
BRANCH   1  29
ATOM     29  C   UNL     1      -0.572  13.086  21.138  0.00  0.00    +0.000 C 
BRANCH  29  30
ATOM     30  N   UNL     1       0.564  13.796  21.739  0.00  0.00    +0.000 NA
ATOM     31  C   UNL     1       0.059  14.820  22.659  0.00  0.00    +0.000 C 
BRANCH  30  33
ATOM     32  C   UNL     1       1.488  15.762  20.424  0.00  0.00    +0.000 C 
ATOM     33  C   UNL     1       1.590  14.280  20.799  0.00  0.00    +0.000 C 
ATOM     34  C   UNL     1       3.008  13.986  21.315  0.00  0.00    +0.000 C 
ENDBRANCH  30  33
ENDBRANCH  29  30
ENDBRANCH   1  29
TORSDOF 7
ENDMDL
