MODEL 1
REMARK VINA RESULT:      -8.2      0.000      0.000
REMARK  Name = 
REMARK  12 active torsions:
REMARK  status: ('A' for Active; 'I' for Inactive)
REMARK    1  A    between atoms: C_1  and  C_2
REMARK    2  A    between atoms: C_2  and  C_3
REMARK    3  A    between atoms: C_2  and  C_4
REMARK    4  A    between atoms: C_4  and  N_5
REMARK    5  A    between atoms: N_8  and  C_9
REMARK    6  A    between atoms: C_14  and  C_15
REMARK    7  A    between atoms: C_15  and  C_16
REMARK    8  A    between atoms: C_16  and  C_17
REMARK    9  A    between atoms: C_17  and  C_18
REMARK   10  A    between atoms: C_18  and  O_19
REMARK   11  A    between atoms: C_20  and  C_21
REMARK   12  A    between atoms: C_21  and  C_22
REMARK                            x       y       z     vdW  Elec       q    Type
REMARK                         _______ _______ _______ _____ _____    ______ ____
ROOT
ATOM      1  N   UNL     1       5.381   6.351  17.123  0.00  0.00    +0.000 N 
ATOM      2  C   UNL     1       5.778   5.549  16.060  0.00  0.00    +0.000 A 
ATOM      3  O   UNL     1       6.499   5.972  15.155  0.00  0.00    +0.000 OA
ATOM      4  N   UNL     1       5.322   4.238  16.071  0.00  0.00    +0.000 N 
ATOM      5  C   UNL     1       5.863   3.301  15.102  0.00  0.00    +0.000 C 
ATOM      6  C   UNL     1       4.274   3.782  16.855  0.00  0.00    +0.000 A 
ATOM      7  O   UNL     1       3.820   2.649  16.759  0.00  0.00    +0.000 OA
ATOM      8  C   UNL     1       3.729   4.730  17.835  0.00  0.00    +0.000 A 
ATOM      9  N   UNL     1       2.654   4.324  18.552  0.00  0.00    +0.000 NA
ATOM     10  C   UNL     1       2.145   5.190  19.454  0.00  0.00    +0.000 A 
ATOM     11  C   UNL     1       2.734   6.449  19.650  0.00  0.00    +0.000 A 
ATOM     12  N   UNL     1       3.824   6.844  18.900  0.00  0.00    +0.000 NA
ATOM     13  C   UNL     1       4.315   5.974  17.977  0.00  0.00    +0.000 A 
ENDROOT
BRANCH   1  14
ATOM     14  C   UNL     1       6.025   7.656  17.307  0.00  0.00    +0.000 C 
BRANCH  14  16
ATOM     15  C   UNL     1       8.152   8.936  17.961  0.00  0.00    +0.000 C 
ATOM     16  C   UNL     1       7.550   7.586  17.560  0.00  0.00    +0.000 C 
ATOM     17  C   UNL     1       7.861   6.560  18.656  0.00  0.00    +0.000 C 
ENDBRANCH  14  16
ENDBRANCH   1  14
BRANCH  10  18
ATOM     18  C   UNL     1       0.914   4.679  20.151  0.00  0.00    +0.000 C 
BRANCH  18  19
ATOM     19  C   UNL     1       0.855   3.151  20.301  0.00  0.00    +0.000 C 
BRANCH  19  20
ATOM     20  C   UNL     1       1.570   2.621  21.556  0.00  0.00    +0.000 C 
BRANCH  20  21
ATOM     21  C   UNL     1       3.061   2.387  21.328  0.00  0.00    +0.000 C 
BRANCH  21  22
ATOM     22  O   UNL     1       3.316   2.010  19.983  0.00  0.00    +0.000 OA
ATOM     23  H   UNL     1       2.839   2.638  19.412  0.00  0.00    +0.000 HD
ENDBRANCH  21  22
ENDBRANCH  20  21
ENDBRANCH  19  20
ENDBRANCH  18  19
ENDBRANCH  10  18
BRANCH  11  24
ATOM     24  C   UNL     1       2.240   7.439  20.697  0.00  0.00    +0.000 C 
BRANCH  24  25
ATOM     25  C   UNL     1       1.364   8.555  20.135  0.00  0.00    +0.000 A 
ATOM     26  C   UNL     1       1.403   8.761  18.741  0.00  0.00    +0.000 A 
ATOM     27  C   UNL     1       0.749   9.835  18.151  0.00  0.00    +0.000 A 
ATOM     28  C   UNL     1       0.032  10.723  18.942  0.00  0.00    +0.000 A 
ATOM     29  C   UNL     1      -0.107  10.507  20.318  0.00  0.00    +0.000 A 
ATOM     30  C   UNL     1      -0.896  11.390  21.074  0.00  0.00    +0.000 A 
ATOM     31  C   UNL     1      -1.113  11.176  22.431  0.00  0.00    +0.000 A 
ATOM     32  C   UNL     1      -0.543  10.072  23.048  0.00  0.00    +0.000 A 
ATOM     33  C   UNL     1       0.270   9.201  22.315  0.00  0.00    +0.000 A 
ATOM     34  C   UNL     1       0.531   9.396  20.935  0.00  0.00    +0.000 A 
ENDBRANCH  24  25
ENDBRANCH  11  24
TORSDOF 9
ENDMDL
MODEL 2
REMARK VINA RESULT:      -7.9      2.475      4.365
REMARK  Name = 
REMARK  12 active torsions:
REMARK  status: ('A' for Active; 'I' for Inactive)
REMARK    1  A    between atoms: C_1  and  C_2
REMARK    2  A    between atoms: C_2  and  C_3
REMARK    3  A    between atoms: C_2  and  C_4
REMARK    4  A    between atoms: C_4  and  N_5
REMARK    5  A    between atoms: N_8  and  C_9
REMARK    6  A    between atoms: C_14  and  C_15
REMARK    7  A    between atoms: C_15  and  C_16
REMARK    8  A    between atoms: C_16  and  C_17
REMARK    9  A    between atoms: C_17  and  C_18
REMARK   10  A    between atoms: C_18  and  O_19
REMARK   11  A    between atoms: C_20  and  C_21
REMARK   12  A    between atoms: C_21  and  C_22
REMARK                            x       y       z     vdW  Elec       q    Type
REMARK                         _______ _______ _______ _____ _____    ______ ____
ROOT
ATOM      1  N   UNL     1       3.863   5.213  18.017  0.00  0.00    +0.000 N 
ATOM      2  C   UNL     1       3.896   3.890  18.438  0.00  0.00    +0.000 A 
ATOM      3  O   UNL     1       4.303   2.982  17.711  0.00  0.00    +0.000 OA
ATOM      4  N   UNL     1       3.448   3.640  19.728  0.00  0.00    +0.000 N 
ATOM      5  C   UNL     1       3.646   2.317  20.293  0.00  0.00    +0.000 C 
ATOM      6  C   UNL     1       2.693   4.527  20.479  0.00  0.00    +0.000 A 
ATOM      7  O   UNL     1       2.217   4.234  21.568  0.00  0.00    +0.000 OA
ATOM      8  C   UNL     1       2.495   5.865  19.906  0.00  0.00    +0.000 A 
ATOM      9  N   UNL     1       1.694   6.715  20.592  0.00  0.00    +0.000 NA
ATOM     10  C   UNL     1       1.505   7.946  20.072  0.00  0.00    +0.000 A 
ATOM     11  C   UNL     1       2.142   8.328  18.880  0.00  0.00    +0.000 A 
ATOM     12  N   UNL     1       2.947   7.440  18.195  0.00  0.00    +0.000 NA
ATOM     13  C   UNL     1       3.112   6.193  18.714  0.00  0.00    +0.000 A 
ENDROOT
BRANCH   1  14
ATOM     14  C   UNL     1       4.550   5.580  16.774  0.00  0.00    +0.000 C 
BRANCH  14  16
ATOM     15  C   UNL     1       6.812   5.176  15.633  0.00  0.00    +0.000 C 
ATOM     16  C   UNL     1       6.090   5.657  16.894  0.00  0.00    +0.000 C 
ATOM     17  C   UNL     1       6.529   7.095  17.198  0.00  0.00    +0.000 C 
ENDBRANCH  14  16
ENDBRANCH   1  14
BRANCH  10  18
ATOM     18  C   UNL     1       0.547   8.793  20.864  0.00  0.00    +0.000 C 
BRANCH  18  19
ATOM     19  C   UNL     1       1.041   9.168  22.270  0.00  0.00    +0.000 C 
BRANCH  19  20
ATOM     20  C   UNL     1      -0.079   9.629  23.220  0.00  0.00    +0.000 C 
BRANCH  20  21
ATOM     21  C   UNL     1      -0.699  10.958  22.798  0.00  0.00    +0.000 C 
BRANCH  21  22
ATOM     22  O   UNL     1      -1.978  11.131  23.388  0.00  0.00    +0.000 OA
ATOM     23  H   UNL     1      -1.841  11.261  24.343  0.00  0.00    +0.000 HD
ENDBRANCH  21  22
ENDBRANCH  20  21
ENDBRANCH  19  20
ENDBRANCH  18  19
ENDBRANCH  10  18
BRANCH  11  24
ATOM     24  C   UNL     1       2.014   9.723  18.284  0.00  0.00    +0.000 C 
BRANCH  24  25
ATOM     25  C   UNL     1       0.619  10.329  18.410  0.00  0.00    +0.000 A 
ATOM     26  C   UNL     1      -0.435   9.650  17.765  0.00  0.00    +0.000 A 
ATOM     27  C   UNL     1      -1.713  10.192  17.707  0.00  0.00    +0.000 A 
ATOM     28  C   UNL     1      -1.969  11.420  18.302  0.00  0.00    +0.000 A 
ATOM     29  C   UNL     1      -0.974  12.086  19.029  0.00  0.00    +0.000 A 
ATOM     30  C   UNL     1      -1.289  13.294  19.673  0.00  0.00    +0.000 A 
ATOM     31  C   UNL     1      -0.349  13.954  20.458  0.00  0.00    +0.000 A 
ATOM     32  C   UNL     1       0.918  13.410  20.608  0.00  0.00    +0.000 A 
ATOM     33  C   UNL     1       1.256  12.224  19.948  0.00  0.00    +0.000 A 
ATOM     34  C   UNL     1       0.333  11.533  19.124  0.00  0.00    +0.000 A 
ENDBRANCH  24  25
ENDBRANCH  11  24
TORSDOF 9
ENDMDL
MODEL 3
REMARK VINA RESULT:      -7.7      6.232     10.646
REMARK  Name = 
REMARK  12 active torsions:
REMARK  status: ('A' for Active; 'I' for Inactive)
REMARK    1  A    between atoms: C_1  and  C_2
REMARK    2  A    between atoms: C_2  and  C_3
REMARK    3  A    between atoms: C_2  and  C_4
REMARK    4  A    between atoms: C_4  and  N_5
REMARK    5  A    between atoms: N_8  and  C_9
REMARK    6  A    between atoms: C_14  and  C_15
REMARK    7  A    between atoms: C_15  and  C_16
REMARK    8  A    between atoms: C_16  and  C_17
REMARK    9  A    between atoms: C_17  and  C_18
REMARK   10  A    between atoms: C_18  and  O_19
REMARK   11  A    between atoms: C_20  and  C_21
REMARK   12  A    between atoms: C_21  and  C_22
REMARK                            x       y       z     vdW  Elec       q    Type
REMARK                         _______ _______ _______ _____ _____    ______ ____
ROOT
ATOM      1  N   UNL     1      -4.088  13.112  22.674  0.00  0.00    +0.000 N 
ATOM      2  C   UNL     1      -5.463  13.181  22.864  0.00  0.00    +0.000 A 
ATOM      3  O   UNL     1      -5.967  13.225  23.987  0.00  0.00    +0.000 OA
ATOM      4  N   UNL     1      -6.244  13.202  21.717  0.00  0.00    +0.000 N 
ATOM      5  C   UNL     1      -7.665  13.476  21.844  0.00  0.00    +0.000 C 
ATOM      6  C   UNL     1      -5.794  12.841  20.457  0.00  0.00    +0.000 A 
ATOM      7  O   UNL     1      -6.536  12.760  19.487  0.00  0.00    +0.000 OA
ATOM      8  C   UNL     1      -4.357  12.565  20.330  0.00  0.00    +0.000 A 
ATOM      9  N   UNL     1      -3.917  12.134  19.124  0.00  0.00    +0.000 NA
ATOM     10  C   UNL     1      -2.598  11.877  18.999  0.00  0.00    +0.000 A 
ATOM     11  C   UNL     1      -1.722  12.079  20.078  0.00  0.00    +0.000 A 
ATOM     12  N   UNL     1      -2.197  12.509  21.301  0.00  0.00    +0.000 NA
ATOM     13  C   UNL     1      -3.531  12.743  21.424  0.00  0.00    +0.000 A 
ENDROOT
BRANCH   1  14
ATOM     14  C   UNL     1      -3.201  13.340  23.820  0.00  0.00    +0.000 C 
BRANCH  14  16
ATOM     15  C   UNL     1      -3.046  15.384  25.364  0.00  0.00    +0.000 C 
ATOM     16  C   UNL     1      -2.730  14.805  23.982  0.00  0.00    +0.000 C 
ATOM     17  C   UNL     1      -1.221  14.908  23.734  0.00  0.00    +0.000 C 
ENDBRANCH  14  16
ENDBRANCH   1  14
BRANCH  10  18
ATOM     18  C   UNL     1      -2.215  11.339  17.647  0.00  0.00    +0.000 C 
BRANCH  18  19
ATOM     19  C   UNL     1      -3.064  10.150  17.171  0.00  0.00    +0.000 C 
BRANCH  19  20
ATOM     20  C   UNL     1      -2.709   9.660  15.756  0.00  0.00    +0.000 C 
BRANCH  20  21
ATOM     21  C   UNL     1      -3.370  10.494  14.662  0.00  0.00    +0.000 C 
BRANCH  21  22
ATOM     22  O   UNL     1      -4.487   9.815  14.109  0.00  0.00    +0.000 OA
ATOM     23  H   UNL     1      -4.706   9.082  14.712  0.00  0.00    +0.000 HD
ENDBRANCH  21  22
ENDBRANCH  20  21
ENDBRANCH  19  20
ENDBRANCH  18  19
ENDBRANCH  10  18
BRANCH  11  24
ATOM     24  C   UNL     1      -0.218  11.864  19.973  0.00  0.00    +0.000 C 
BRANCH  24  25
ATOM     25  C   UNL     1       0.257  10.512  20.498  0.00  0.00    +0.000 A 
ATOM     26  C   UNL     1      -0.017  10.217  21.849  0.00  0.00    +0.000 A 
ATOM     27  C   UNL     1       0.491   9.074  22.455  0.00  0.00    +0.000 A 
ATOM     28  C   UNL     1       1.276   8.195  21.720  0.00  0.00    +0.000 A 
ATOM     29  C   UNL     1       1.498   8.404  20.353  0.00  0.00    +0.000 A 
ATOM     30  C   UNL     1       2.241   7.457  19.628  0.00  0.00    +0.000 A 
ATOM     31  C   UNL     1       2.431   7.592  18.257  0.00  0.00    +0.000 A 
ATOM     32  C   UNL     1       1.876   8.677  17.594  0.00  0.00    +0.000 A 
ATOM     33  C   UNL     1       1.160   9.644  18.308  0.00  0.00    +0.000 A 
ATOM     34  C   UNL     1       0.962   9.552  19.709  0.00  0.00    +0.000 A 
ENDBRANCH  24  25
ENDBRANCH  11  24
TORSDOF 9
ENDMDL
MODEL 4
REMARK VINA RESULT:      -7.3      6.353     10.218
REMARK  Name = 
REMARK  12 active torsions:
REMARK  status: ('A' for Active; 'I' for Inactive)
REMARK    1  A    between atoms: C_1  and  C_2
REMARK    2  A    between atoms: C_2  and  C_3
REMARK    3  A    between atoms: C_2  and  C_4
REMARK    4  A    between atoms: C_4  and  N_5
REMARK    5  A    between atoms: N_8  and  C_9
REMARK    6  A    between atoms: C_14  and  C_15
REMARK    7  A    between atoms: C_15  and  C_16
REMARK    8  A    between atoms: C_16  and  C_17
REMARK    9  A    between atoms: C_17  and  C_18
REMARK   10  A    between atoms: C_18  and  O_19
REMARK   11  A    between atoms: C_20  and  C_21
REMARK   12  A    between atoms: C_21  and  C_22
REMARK                            x       y       z     vdW  Elec       q    Type
REMARK                         _______ _______ _______ _____ _____    ______ ____
ROOT
ATOM      1  N   UNL     1      -4.135  12.074  17.986  0.00  0.00    +0.000 N 
ATOM      2  C   UNL     1      -5.469  12.383  17.751  0.00  0.00    +0.000 A 
ATOM      3  O   UNL     1      -5.920  12.510  16.611  0.00  0.00    +0.000 OA
ATOM      4  N   UNL     1      -6.273  12.539  18.872  0.00  0.00    +0.000 N 
ATOM      5  C   UNL     1      -7.709  12.661  18.690  0.00  0.00    +0.000 C 
ATOM      6  C   UNL     1      -5.794  12.728  20.158  0.00  0.00    +0.000 A 
ATOM      7  O   UNL     1      -6.525  12.976  21.107  0.00  0.00    +0.000 OA
ATOM      8  C   UNL     1      -4.341  12.603  20.340  0.00  0.00    +0.000 A 
ATOM      9  N   UNL     1      -3.852  12.863  21.576  0.00  0.00    +0.000 NA
ATOM     10  C   UNL     1      -2.518  12.752  21.751  0.00  0.00    +0.000 A 
ATOM     11  C   UNL     1      -1.685  12.355  20.692  0.00  0.00    +0.000 A 
ATOM     12  N   UNL     1      -2.208  12.104  19.439  0.00  0.00    +0.000 NA
ATOM     13  C   UNL     1      -3.550  12.241  19.266  0.00  0.00    +0.000 A 
ENDROOT
BRANCH   1  14
ATOM     14  C   UNL     1      -3.296  11.650  16.859  0.00  0.00    +0.000 C 
BRANCH  14  16
ATOM     15  C   UNL     1      -3.391   9.746  15.142  0.00  0.00    +0.000 C 
ATOM     16  C   UNL     1      -3.270  10.122  16.621  0.00  0.00    +0.000 C 
ATOM     17  C   UNL     1      -1.978   9.517  17.182  0.00  0.00    +0.000 C 
ENDBRANCH  14  16
ENDBRANCH   1  14
BRANCH  10  18
ATOM     18  C   UNL     1      -2.060  13.127  23.134  0.00  0.00    +0.000 C 
BRANCH  18  19
ATOM     19  C   UNL     1      -3.043  14.013  23.913  0.00  0.00    +0.000 C 
BRANCH  19  20
ATOM     20  C   UNL     1      -3.638  13.336  25.160  0.00  0.00    +0.000 C 
BRANCH  20  21
ATOM     21  C   UNL     1      -4.758  12.356  24.819  0.00  0.00    +0.000 C 
BRANCH  21  22
ATOM     22  O   UNL     1      -5.669  12.929  23.894  0.00  0.00    +0.000 OA
ATOM     23  H   UNL     1      -6.484  13.140  24.384  0.00  0.00    +0.000 HD
ENDBRANCH  21  22
ENDBRANCH  20  21
ENDBRANCH  19  20
ENDBRANCH  18  19
ENDBRANCH  10  18
BRANCH  11  24
ATOM     24  C   UNL     1      -0.184  12.153  20.852  0.00  0.00    +0.000 C 
BRANCH  24  25
ATOM     25  C   UNL     1       0.235  10.697  21.024  0.00  0.00    +0.000 A 
ATOM     26  C   UNL     1      -0.050  10.090  22.265  0.00  0.00    +0.000 A 
ATOM     27  C   UNL     1       0.410   8.815  22.567  0.00  0.00    +0.000 A 
ATOM     28  C   UNL     1       1.158   8.112  21.631  0.00  0.00    +0.000 A 
ATOM     29  C   UNL     1       1.388   8.640  20.354  0.00  0.00    +0.000 A 
ATOM     30  C   UNL     1       2.092   7.872  19.412  0.00  0.00    +0.000 A 
ATOM     31  C   UNL     1       2.286   8.331  18.114  0.00  0.00    +0.000 A 
ATOM     32  C   UNL     1       1.777   9.567  17.743  0.00  0.00    +0.000 A 
ATOM     33  C   UNL     1       1.101  10.357  18.679  0.00  0.00    +0.000 A 
ATOM     34  C   UNL     1       0.900   9.932  20.017  0.00  0.00    +0.000 A 
ENDBRANCH  24  25
ENDBRANCH  11  24
TORSDOF 9
ENDMDL
MODEL 5
REMARK VINA RESULT:      -7.2      2.536      4.552
REMARK  Name = 
REMARK  12 active torsions:
REMARK  status: ('A' for Active; 'I' for Inactive)
REMARK    1  A    between atoms: C_1  and  C_2
REMARK    2  A    between atoms: C_2  and  C_3
REMARK    3  A    between atoms: C_2  and  C_4
REMARK    4  A    between atoms: C_4  and  N_5
REMARK    5  A    between atoms: N_8  and  C_9
REMARK    6  A    between atoms: C_14  and  C_15
REMARK    7  A    between atoms: C_15  and  C_16
REMARK    8  A    between atoms: C_16  and  C_17
REMARK    9  A    between atoms: C_17  and  C_18
REMARK   10  A    between atoms: C_18  and  O_19
REMARK   11  A    between atoms: C_20  and  C_21
REMARK   12  A    between atoms: C_21  and  C_22
REMARK                            x       y       z     vdW  Elec       q    Type
REMARK                         _______ _______ _______ _____ _____    ______ ____
ROOT
ATOM      1  N   UNL     1       3.751   5.277  17.895  0.00  0.00    +0.000 N 
ATOM      2  C   UNL     1       3.768   3.984  18.404  0.00  0.00    +0.000 A 
ATOM      3  O   UNL     1       4.126   3.019  17.726  0.00  0.00    +0.000 OA
ATOM      4  N   UNL     1       3.363   3.835  19.723  0.00  0.00    +0.000 N 
ATOM      5  C   UNL     1       3.550   2.548  20.370  0.00  0.00    +0.000 C 
ATOM      6  C   UNL     1       2.658   4.790  20.438  0.00  0.00    +0.000 A 
ATOM      7  O   UNL     1       2.216   4.584  21.561  0.00  0.00    +0.000 OA
ATOM      8  C   UNL     1       2.471   6.091  19.782  0.00  0.00    +0.000 A 
ATOM      9  N   UNL     1       1.717   7.006  20.436  0.00  0.00    +0.000 NA
ATOM     10  C   UNL     1       1.538   8.204  19.840  0.00  0.00    +0.000 A 
ATOM     11  C   UNL     1       2.139   8.487  18.603  0.00  0.00    +0.000 A 
ATOM     12  N   UNL     1       2.896   7.534  17.952  0.00  0.00    +0.000 NA
ATOM     13  C   UNL     1       3.051   6.321  18.549  0.00  0.00    +0.000 A 
ENDROOT
BRANCH   1  14
ATOM     14  C   UNL     1       4.399   5.541  16.605  0.00  0.00    +0.000 C 
BRANCH  14  16
ATOM     15  C   UNL     1       6.403   5.986  18.146  0.00  0.00    +0.000 C 
ATOM     16  C   UNL     1       5.911   5.855  16.702  0.00  0.00    +0.000 C 
ATOM     17  C   UNL     1       6.727   4.765  15.997  0.00  0.00    +0.000 C 
ENDBRANCH  14  16
ENDBRANCH   1  14
BRANCH  10  18
ATOM     18  C   UNL     1       0.631   9.128  20.607  0.00  0.00    +0.000 C 
BRANCH  18  19
ATOM     19  C   UNL     1       0.054   8.529  21.898  0.00  0.00    +0.000 C 
BRANCH  19  20
ATOM     20  C   UNL     1       0.095   9.488  23.101  0.00  0.00    +0.000 C 
BRANCH  20  21
ATOM     21  C   UNL     1      -1.081  10.459  23.119  0.00  0.00    +0.000 C 
BRANCH  21  22
ATOM     22  O   UNL     1      -0.636  11.794  23.303  0.00  0.00    +0.000 OA
ATOM     23  H   UNL     1      -0.160  11.825  24.152  0.00  0.00    +0.000 HD
ENDBRANCH  21  22
ENDBRANCH  20  21
ENDBRANCH  19  20
ENDBRANCH  18  19
ENDBRANCH  10  18
BRANCH  11  24
ATOM     24  C   UNL     1       2.021   9.842  17.917  0.00  0.00    +0.000 C 
BRANCH  24  25
ATOM     25  C   UNL     1       0.961  10.757  18.522  0.00  0.00    +0.000 A 
ATOM     26  C   UNL     1       1.407  11.755  19.412  0.00  0.00    +0.000 A 
ATOM     27  C   UNL     1       0.509  12.547  20.116  0.00  0.00    +0.000 A 
ATOM     28  C   UNL     1      -0.857  12.367  19.938  0.00  0.00    +0.000 A 
ATOM     29  C   UNL     1      -1.342  11.449  18.998  0.00  0.00    +0.000 A 
ATOM     30  C   UNL     1      -2.728  11.343  18.798  0.00  0.00    +0.000 A 
ATOM     31  C   UNL     1      -3.249  10.491  17.829  0.00  0.00    +0.000 A 
ATOM     32  C   UNL     1      -2.387   9.736  17.048  0.00  0.00    +0.000 A 
ATOM     33  C   UNL     1      -1.005   9.809  17.257  0.00  0.00    +0.000 A 
ATOM     34  C   UNL     1      -0.437  10.649  18.247  0.00  0.00    +0.000 A 
ENDBRANCH  24  25
ENDBRANCH  11  24
TORSDOF 9
ENDMDL
MODEL 6
REMARK VINA RESULT:      -7.2      8.145     10.807
REMARK  Name = 
REMARK  12 active torsions:
REMARK  status: ('A' for Active; 'I' for Inactive)
REMARK    1  A    between atoms: C_1  and  C_2
REMARK    2  A    between atoms: C_2  and  C_3
REMARK    3  A    between atoms: C_2  and  C_4
REMARK    4  A    between atoms: C_4  and  N_5
REMARK    5  A    between atoms: N_8  and  C_9
REMARK    6  A    between atoms: C_14  and  C_15
REMARK    7  A    between atoms: C_15  and  C_16
REMARK    8  A    between atoms: C_16  and  C_17
REMARK    9  A    between atoms: C_17  and  C_18
REMARK   10  A    between atoms: C_18  and  O_19
REMARK   11  A    between atoms: C_20  and  C_21
REMARK   12  A    between atoms: C_21  and  C_22
REMARK                            x       y       z     vdW  Elec       q    Type
REMARK                         _______ _______ _______ _____ _____    ______ ____
ROOT
ATOM      1  N   UNL     1       5.780  15.890  20.312  0.00  0.00    +0.000 N 
ATOM      2  C   UNL     1       4.564  16.543  20.154  0.00  0.00    +0.000 A 
ATOM      3  O   UNL     1       4.469  17.612  19.550  0.00  0.00    +0.000 OA
ATOM      4  N   UNL     1       3.454  15.923  20.713  0.00  0.00    +0.000 N 
ATOM      5  C   UNL     1       2.134  16.450  20.410  0.00  0.00    +0.000 C 
ATOM      6  C   UNL     1       3.515  14.914  21.659  0.00  0.00    +0.000 A 
ATOM      7  O   UNL     1       2.521  14.467  22.217  0.00  0.00    +0.000 OA
ATOM      8  C   UNL     1       4.851  14.382  21.963  0.00  0.00    +0.000 A 
ATOM      9  N   UNL     1       4.933  13.451  22.943  0.00  0.00    +0.000 NA
ATOM     10  C   UNL     1       6.157  12.959  23.230  0.00  0.00    +0.000 A 
ATOM     11  C   UNL     1       7.288  13.383  22.514  0.00  0.00    +0.000 A 
ATOM     12  N   UNL     1       7.178  14.341  21.525  0.00  0.00    +0.000 NA
ATOM     13  C   UNL     1       5.945  14.849  21.260  0.00  0.00    +0.000 A 
ENDROOT
BRANCH   1  14
ATOM     14  C   UNL     1       6.938  16.351  19.539  0.00  0.00    +0.000 C 
BRANCH  14  16
ATOM     15  C   UNL     1       6.628  14.639  17.652  0.00  0.00    +0.000 C 
ATOM     16  C   UNL     1       7.597  15.260  18.661  0.00  0.00    +0.000 C 
ATOM     17  C   UNL     1       8.798  15.840  17.904  0.00  0.00    +0.000 C 
ENDBRANCH  14  16
ENDBRANCH   1  14
BRANCH  10  18
ATOM     18  C   UNL     1       6.160  11.984  24.376  0.00  0.00    +0.000 C 
BRANCH  18  19
ATOM     19  C   UNL     1       5.870  12.612  25.747  0.00  0.00    +0.000 C 
BRANCH  19  20
ATOM     20  C   UNL     1       5.061  11.702  26.689  0.00  0.00    +0.000 C 
BRANCH  20  21
ATOM     21  C   UNL     1       4.813  10.317  26.099  0.00  0.00    +0.000 C 
BRANCH  21  22
ATOM     22  O   UNL     1       3.460   9.924  26.277  0.00  0.00    +0.000 OA
ATOM     23  H   UNL     1       3.270   9.968  27.231  0.00  0.00    +0.000 HD
ENDBRANCH  21  22
ENDBRANCH  20  21
ENDBRANCH  19  20
ENDBRANCH  18  19
ENDBRANCH  10  18
BRANCH  11  24
ATOM     24  C   UNL     1       8.680  12.815  22.754  0.00  0.00    +0.000 C 
BRANCH  24  25
ATOM     25  C   UNL     1       9.460  12.516  21.477  0.00  0.00    +0.000 A 
ATOM     26  C   UNL     1       9.272  11.246  20.894  0.00  0.00    +0.000 A 
ATOM     27  C   UNL     1      10.036  10.829  19.811  0.00  0.00    +0.000 A 
ATOM     28  C   UNL     1      10.999  11.678  19.279  0.00  0.00    +0.000 A 
ATOM     29  C   UNL     1      11.157  12.979  19.770  0.00  0.00    +0.000 A 
ATOM     30  C   UNL     1      12.095  13.831  19.163  0.00  0.00    +0.000 A 
ATOM     31  C   UNL     1      12.238  15.151  19.576  0.00  0.00    +0.000 A 
ATOM     32  C   UNL     1      11.442  15.635  20.604  0.00  0.00    +0.000 A 
ATOM     33  C   UNL     1      10.525  14.790  21.239  0.00  0.00    +0.000 A 
ATOM     34  C   UNL     1      10.364  13.434  20.860  0.00  0.00    +0.000 A 
ENDBRANCH  24  25
ENDBRANCH  11  24
TORSDOF 9
ENDMDL
MODEL 7
REMARK VINA RESULT:      -7.0      6.867     11.305
REMARK  Name = 
REMARK  12 active torsions:
REMARK  status: ('A' for Active; 'I' for Inactive)
REMARK    1  A    between atoms: C_1  and  C_2
REMARK    2  A    between atoms: C_2  and  C_3
REMARK    3  A    between atoms: C_2  and  C_4
REMARK    4  A    between atoms: C_4  and  N_5
REMARK    5  A    between atoms: N_8  and  C_9
REMARK    6  A    between atoms: C_14  and  C_15
REMARK    7  A    between atoms: C_15  and  C_16
REMARK    8  A    between atoms: C_16  and  C_17
REMARK    9  A    between atoms: C_17  and  C_18
REMARK   10  A    between atoms: C_18  and  O_19
REMARK   11  A    between atoms: C_20  and  C_21
REMARK   12  A    between atoms: C_21  and  C_22
REMARK                            x       y       z     vdW  Elec       q    Type
REMARK                         _______ _______ _______ _____ _____    ______ ____
ROOT
ATOM      1  N   UNL     1      -5.682  14.660  21.509  0.00  0.00    +0.000 N 
ATOM      2  C   UNL     1      -6.692  14.672  22.463  0.00  0.00    +0.000 A 
ATOM      3  O   UNL     1      -7.617  15.486  22.427  0.00  0.00    +0.000 OA
ATOM      4  N   UNL     1      -6.609  13.711  23.461  0.00  0.00    +0.000 N 
ATOM      5  C   UNL     1      -7.735  13.543  24.365  0.00  0.00    +0.000 C 
ATOM      6  C   UNL     1      -5.466  12.985  23.755  0.00  0.00    +0.000 A 
ATOM      7  O   UNL     1      -5.391  12.229  24.714  0.00  0.00    +0.000 OA
ATOM      8  C   UNL     1      -4.330  13.156  22.840  0.00  0.00    +0.000 A 
ATOM      9  N   UNL     1      -3.181  12.514  23.160  0.00  0.00    +0.000 NA
ATOM     10  C   UNL     1      -2.131  12.667  22.326  0.00  0.00    +0.000 A 
ATOM     11  C   UNL     1      -2.247  13.442  21.161  0.00  0.00    +0.000 A 
ATOM     12  N   UNL     1      -3.426  14.094  20.862  0.00  0.00    +0.000 NA
ATOM     13  C   UNL     1      -4.472  13.953  21.721  0.00  0.00    +0.000 A 
ENDROOT
BRANCH   1  14
ATOM     14  C   UNL     1      -5.841  15.472  20.297  0.00  0.00    +0.000 C 
BRANCH  14  16
ATOM     15  C   UNL     1      -7.383  13.636  19.381  0.00  0.00    +0.000 C 
ATOM     16  C   UNL     1      -6.311  14.680  19.054  0.00  0.00    +0.000 C 
ATOM     17  C   UNL     1      -6.859  15.637  17.990  0.00  0.00    +0.000 C 
ENDBRANCH  14  16
ENDBRANCH   1  14
BRANCH  10  18
ATOM     18  C   UNL     1      -0.882  11.975  22.798  0.00  0.00    +0.000 C 
BRANCH  18  19
ATOM     19  C   UNL     1      -1.057  10.479  23.099  0.00  0.00    +0.000 C 
BRANCH  19  20
ATOM     20  C   UNL     1      -0.598   9.556  21.956  0.00  0.00    +0.000 C 
BRANCH  20  21
ATOM     21  C   UNL     1       0.726   8.860  22.258  0.00  0.00    +0.000 C 
BRANCH  21  22
ATOM     22  O   UNL     1       1.761   9.808  22.474  0.00  0.00    +0.000 OA
ATOM     23  H   UNL     1       1.416  10.475  23.093  0.00  0.00    +0.000 HD
ENDBRANCH  21  22
ENDBRANCH  20  21
ENDBRANCH  19  20
ENDBRANCH  18  19
ENDBRANCH  10  18
BRANCH  11  24
ATOM     24  C   UNL     1      -1.115  13.596  20.154  0.00  0.00    +0.000 C 
BRANCH  24  25
ATOM     25  C   UNL     1      -0.711  12.296  19.465  0.00  0.00    +0.000 A 
ATOM     26  C   UNL     1       0.621  11.868  19.634  0.00  0.00    +0.000 A 
ATOM     27  C   UNL     1       1.121  10.773  18.940  0.00  0.00    +0.000 A 
ATOM     28  C   UNL     1       0.296  10.075  18.068  0.00  0.00    +0.000 A 
ATOM     29  C   UNL     1      -1.057  10.411  17.938  0.00  0.00    +0.000 A 
ATOM     30  C   UNL     1      -1.876   9.639  17.096  0.00  0.00    +0.000 A 
ATOM     31  C   UNL     1      -3.238   9.898  16.987  0.00  0.00    +0.000 A 
ATOM     32  C   UNL     1      -3.797  10.934  17.722  0.00  0.00    +0.000 A 
ATOM     33  C   UNL     1      -2.989  11.730  18.540  0.00  0.00    +0.000 A 
ATOM     34  C   UNL     1      -1.594  11.510  18.662  0.00  0.00    +0.000 A 
ENDBRANCH  24  25
ENDBRANCH  11  24
TORSDOF 9
ENDMDL
MODEL 8
REMARK VINA RESULT:      -7.0      6.333     10.289
REMARK  Name = 
REMARK  12 active torsions:
REMARK  status: ('A' for Active; 'I' for Inactive)
REMARK    1  A    between atoms: C_1  and  C_2
REMARK    2  A    between atoms: C_2  and  C_3
REMARK    3  A    between atoms: C_2  and  C_4
REMARK    4  A    between atoms: C_4  and  N_5
REMARK    5  A    between atoms: N_8  and  C_9
REMARK    6  A    between atoms: C_14  and  C_15
REMARK    7  A    between atoms: C_15  and  C_16
REMARK    8  A    between atoms: C_16  and  C_17
REMARK    9  A    between atoms: C_17  and  C_18
REMARK   10  A    between atoms: C_18  and  O_19
REMARK   11  A    between atoms: C_20  and  C_21
REMARK   12  A    between atoms: C_21  and  C_22
REMARK                            x       y       z     vdW  Elec       q    Type
REMARK                         _______ _______ _______ _____ _____    ______ ____
ROOT
ATOM      1  N   UNL     1      -4.104  12.060  18.031  0.00  0.00    +0.000 N 
ATOM      2  C   UNL     1      -5.436  12.377  17.796  0.00  0.00    +0.000 A 
ATOM      3  O   UNL     1      -5.879  12.540  16.658  0.00  0.00    +0.000 OA
ATOM      4  N   UNL     1      -6.249  12.497  18.915  0.00  0.00    +0.000 N 
ATOM      5  C   UNL     1      -7.684  12.627  18.726  0.00  0.00    +0.000 C 
ATOM      6  C   UNL     1      -5.780  12.645  20.210  0.00  0.00    +0.000 A 
ATOM      7  O   UNL     1      -6.519  12.863  21.161  0.00  0.00    +0.000 OA
ATOM      8  C   UNL     1      -4.329  12.513  20.399  0.00  0.00    +0.000 A 
ATOM      9  N   UNL     1      -3.849  12.732  21.646  0.00  0.00    +0.000 NA
ATOM     10  C   UNL     1      -2.516  12.615  21.829  0.00  0.00    +0.000 A 
ATOM     11  C   UNL     1      -1.676  12.251  20.764  0.00  0.00    +0.000 A 
ATOM     12  N   UNL     1      -2.189  12.041  19.500  0.00  0.00    +0.000 NA
ATOM     13  C   UNL     1      -3.530  12.185  19.321  0.00  0.00    +0.000 A 
ENDROOT
BRANCH   1  14
ATOM     14  C   UNL     1      -3.257  11.671  16.898  0.00  0.00    +0.000 C 
BRANCH  14  16
ATOM     15  C   UNL     1      -3.356   9.795  15.150  0.00  0.00    +0.000 C 
ATOM     16  C   UNL     1      -3.204  10.148  16.632  0.00  0.00    +0.000 C 
ATOM     17  C   UNL     1      -1.885   9.563  17.148  0.00  0.00    +0.000 C 
ENDBRANCH  14  16
ENDBRANCH   1  14
BRANCH  10  18
ATOM     18  C   UNL     1      -2.069  12.945  23.226  0.00  0.00    +0.000 C 
BRANCH  18  19
ATOM     19  C   UNL     1      -2.083  14.443  23.563  0.00  0.00    +0.000 C 
BRANCH  19  20
ATOM     20  C   UNL     1      -1.427  15.328  22.489  0.00  0.00    +0.000 C 
BRANCH  20  21
ATOM     21  C   UNL     1      -2.448  16.110  21.667  0.00  0.00    +0.000 C 
BRANCH  21  22
ATOM     22  O   UNL     1      -2.363  15.768  20.292  0.00  0.00    +0.000 OA
ATOM     23  H   UNL     1      -3.234  15.947  19.896  0.00  0.00    +0.000 HD
ENDBRANCH  21  22
ENDBRANCH  20  21
ENDBRANCH  19  20
ENDBRANCH  18  19
ENDBRANCH  10  18
BRANCH  11  24
ATOM     24  C   UNL     1      -0.176  12.043  20.929  0.00  0.00    +0.000 C 
BRANCH  24  25
ATOM     25  C   UNL     1       0.246  10.579  21.005  0.00  0.00    +0.000 A 
ATOM     26  C   UNL     1      -0.058   9.885  22.194  0.00  0.00    +0.000 A 
ATOM     27  C   UNL     1       0.402   8.593  22.413  0.00  0.00    +0.000 A 
ATOM     28  C   UNL     1       1.169   7.961  21.443  0.00  0.00    +0.000 A 
ATOM     29  C   UNL     1       1.420   8.579  20.212  0.00  0.00    +0.000 A 
ATOM     30  C   UNL     1       2.143   7.882  19.231  0.00  0.00    +0.000 A 
ATOM     31  C   UNL     1       2.359   8.433  17.972  0.00  0.00    +0.000 A 
ATOM     32  C   UNL     1       1.851   9.691  17.681  0.00  0.00    +0.000 A 
ATOM     33  C   UNL     1       1.155  10.410  18.658  0.00  0.00    +0.000 A 
ATOM     34  C   UNL     1       0.932   9.891  19.958  0.00  0.00    +0.000 A 
ENDBRANCH  24  25
ENDBRANCH  11  24
TORSDOF 9
ENDMDL
MODEL 9
REMARK VINA RESULT:      -7.0      6.499     10.107
REMARK  Name = 
REMARK  12 active torsions:
REMARK  status: ('A' for Active; 'I' for Inactive)
REMARK    1  A    between atoms: C_1  and  C_2
REMARK    2  A    between atoms: C_2  and  C_3
REMARK    3  A    between atoms: C_2  and  C_4
REMARK    4  A    between atoms: C_4  and  N_5
REMARK    5  A    between atoms: N_8  and  C_9
REMARK    6  A    between atoms: C_14  and  C_15
REMARK    7  A    between atoms: C_15  and  C_16
REMARK    8  A    between atoms: C_16  and  C_17
REMARK    9  A    between atoms: C_17  and  C_18
REMARK   10  A    between atoms: C_18  and  O_19
REMARK   11  A    between atoms: C_20  and  C_21
REMARK   12  A    between atoms: C_21  and  C_22
REMARK                            x       y       z     vdW  Elec       q    Type
REMARK                         _______ _______ _______ _____ _____    ______ ____
ROOT
ATOM      1  N   UNL     1      -3.922  11.977  18.233  0.00  0.00    +0.000 N 
ATOM      2  C   UNL     1      -5.222  12.224  17.810  0.00  0.00    +0.000 A 
ATOM      3  O   UNL     1      -5.507  12.365  16.619  0.00  0.00    +0.000 OA
ATOM      4  N   UNL     1      -6.190  12.301  18.802  0.00  0.00    +0.000 N 
ATOM      5  C   UNL     1      -7.588  12.355  18.411  0.00  0.00    +0.000 C 
ATOM      6  C   UNL     1      -5.917  12.471  20.149  0.00  0.00    +0.000 A 
ATOM      7  O   UNL     1      -6.793  12.650  20.985  0.00  0.00    +0.000 OA
ATOM      8  C   UNL     1      -4.502  12.416  20.542  0.00  0.00    +0.000 A 
ATOM      9  N   UNL     1      -4.216  12.659  21.844  0.00  0.00    +0.000 NA
ATOM     10  C   UNL     1      -2.918  12.611  22.213  0.00  0.00    +0.000 A 
ATOM     11  C   UNL     1      -1.918  12.293  21.280  0.00  0.00    +0.000 A 
ATOM     12  N   UNL     1      -2.235  12.058  19.958  0.00  0.00    +0.000 NA
ATOM     13  C   UNL     1      -3.543  12.131  19.590  0.00  0.00    +0.000 A 
ENDROOT
BRANCH   1  14
ATOM     14  C   UNL     1      -2.904  11.635  17.234  0.00  0.00    +0.000 C 
BRANCH  14  16
ATOM     15  C   UNL     1      -3.035   9.781  15.463  0.00  0.00    +0.000 C 
ATOM     16  C   UNL     1      -2.785  10.121  16.935  0.00  0.00    +0.000 C 
ATOM     17  C   UNL     1      -1.396   9.608  17.333  0.00  0.00    +0.000 C 
ENDBRANCH  14  16
ENDBRANCH   1  14
BRANCH  10  18
ATOM     18  C   UNL     1      -2.690  12.963  23.658  0.00  0.00    +0.000 C 
BRANCH  18  19
ATOM     19  C   UNL     1      -3.939  13.472  24.394  0.00  0.00    +0.000 C 
BRANCH  19  20
ATOM     20  C   UNL     1      -4.927  12.359  24.785  0.00  0.00    +0.000 C 
BRANCH  20  21
ATOM     21  C   UNL     1      -6.371  12.704  24.431  0.00  0.00    +0.000 C 
BRANCH  21  22
ATOM     22  O   UNL     1      -7.059  11.565  23.938  0.00  0.00    +0.000 OA
ATOM     23  H   UNL     1      -7.884  11.881  23.529  0.00  0.00    +0.000 HD
ENDBRANCH  21  22
ENDBRANCH  20  21
ENDBRANCH  19  20
ENDBRANCH  18  19
ENDBRANCH  10  18
BRANCH  11  24
ATOM     24  C   UNL     1      -0.448  12.164  21.656  0.00  0.00    +0.000 C 
BRANCH  24  25
ATOM     25  C   UNL     1       0.504  12.167  20.464  0.00  0.00    +0.000 A 
ATOM     26  C   UNL     1       0.896  13.424  19.959  0.00  0.00    +0.000 A 
ATOM     27  C   UNL     1       1.649  13.532  18.797  0.00  0.00    +0.000 A 
ATOM     28  C   UNL     1       2.036  12.384  18.117  0.00  0.00    +0.000 A 
ATOM     29  C   UNL     1       1.745  11.114  18.631  0.00  0.00    +0.000 A 
ATOM     30  C   UNL     1       2.212   9.977  17.951  0.00  0.00    +0.000 A 
ATOM     31  C   UNL     1       2.001   8.700  18.460  0.00  0.00    +0.000 A 
ATOM     32  C   UNL     1       1.320   8.547  19.659  0.00  0.00    +0.000 A 
ATOM     33  C   UNL     1       0.824   9.668  20.332  0.00  0.00    +0.000 A 
ATOM     34  C   UNL     1       1.001  10.984  19.836  0.00  0.00    +0.000 A 
ENDBRANCH  24  25
ENDBRANCH  11  24
TORSDOF 9
ENDMDL
