MODEL 1
REMARK VINA RESULT:      -7.5      0.000      0.000
REMARK  Name = 
REMARK  4 active torsions:
REMARK  status: ('A' for Active; 'I' for Inactive)
REMARK    1  A    between atoms: C_1  and  N_2
REMARK    2  A    between atoms: C_9  and  C_10
REMARK    3  A    between atoms: N_12  and  C_13
REMARK    4  A    between atoms: C_13  and  C_14
REMARK                            x       y       z     vdW  Elec       q    Type
REMARK                         _______ _______ _______ _____ _____    ______ ____
ROOT
ATOM      1  C   UNL     1       3.910   6.120  17.563  0.00  0.00    +0.000 C 
ATOM      2  O   UNL     1       4.296   7.286  17.553  0.00  0.00    +0.000 OA
ATOM      3  N   UNL     1       2.574   5.897  17.775  0.00  0.00    +0.000 N 
ATOM      4  H   UNL     1       2.029   6.735  17.940  0.00  0.00    +0.000 HD
ENDROOT
BRANCH   1  13
ATOM      5  C   UNL     1       5.480   4.108  15.029  0.00  0.00    +0.000 C 
ATOM      6  N   UNL     1       5.743   5.005  16.149  0.00  0.00    +0.000 N 
ATOM      7  C   UNL     1       6.915   5.743  16.126  0.00  0.00    +0.000 C 
ATOM      8  O   UNL     1       7.693   5.698  15.169  0.00  0.00    +0.000 OA
ATOM      9  C   UNL     1       7.244   6.630  17.303  0.00  0.00    +0.000 C 
ATOM     10  C   UNL     1       7.574   5.865  18.573  0.00  0.00    +0.000 C 
ATOM     11  C   UNL     1       6.385   5.308  19.342  0.00  0.00    +0.000 C 
ATOM     12  C   UNL     1       5.512   4.341  18.562  0.00  0.00    +0.000 C 
ATOM     13  C   UNL     1       4.837   4.889  17.304  0.00  0.00    +0.000 C 
ENDBRANCH   1  13
BRANCH   3  14
ATOM     14  C   UNL     1       1.952   4.608  17.877  0.00  0.00    +0.000 C 
BRANCH  14  15
ATOM     15  C   UNL     1       1.884   4.105  19.274  0.00  0.00    +0.000 A 
ATOM     16  C   UNL     1       1.440   2.807  19.541  0.00  0.00    +0.000 A 
ATOM     17  C   UNL     1       1.484   2.348  20.843  0.00  0.00    +0.000 A 
ATOM     18  N   UNL     1       1.919   3.088  21.884  0.00  0.00    +0.000 NA
ATOM     19  C   UNL     1       2.316   4.348  21.614  0.00  0.00    +0.000 A 
ATOM     20  C   UNL     1       2.312   4.900  20.343  0.00  0.00    +0.000 A 
ENDBRANCH  14  15
ENDBRANCH   3  14
TORSDOF 3
ENDMDL
MODEL 2
REMARK VINA RESULT:      -7.5      2.386      6.012
REMARK  Name = 
REMARK  4 active torsions:
REMARK  status: ('A' for Active; 'I' for Inactive)
REMARK    1  A    between atoms: C_1  and  N_2
REMARK    2  A    between atoms: C_9  and  C_10
REMARK    3  A    between atoms: N_12  and  C_13
REMARK    4  A    between atoms: C_13  and  C_14
REMARK                            x       y       z     vdW  Elec       q    Type
REMARK                         _______ _______ _______ _____ _____    ______ ____
ROOT
ATOM      1  C   UNL     1       4.362   3.274  19.725  0.00  0.00    +0.000 C 
ATOM      2  O   UNL     1       4.191   2.156  20.204  0.00  0.00    +0.000 OA
ATOM      3  N   UNL     1       5.527   3.496  19.036  0.00  0.00    +0.000 N 
ATOM      4  H   UNL     1       6.162   2.707  19.020  0.00  0.00    +0.000 HD
ENDROOT
BRANCH   1  13
ATOM      5  C   UNL     1       2.852   6.008  17.941  0.00  0.00    +0.000 C 
ATOM      6  N   UNL     1       2.579   4.721  18.573  0.00  0.00    +0.000 N 
ATOM      7  C   UNL     1       1.526   3.969  18.079  0.00  0.00    +0.000 C 
ATOM      8  O   UNL     1       0.868   4.335  17.101  0.00  0.00    +0.000 OA
ATOM      9  C   UNL     1       1.179   2.664  18.754  0.00  0.00    +0.000 C 
ATOM     10  C   UNL     1       0.603   2.830  20.150  0.00  0.00    +0.000 C 
ATOM     11  C   UNL     1       1.609   3.121  21.255  0.00  0.00    +0.000 C 
ATOM     12  C   UNL     1       2.433   4.381  21.058  0.00  0.00    +0.000 C 
ATOM     13  C   UNL     1       3.318   4.433  19.813  0.00  0.00    +0.000 C 
ENDBRANCH   1  13
BRANCH   3  14
ATOM     14  C   UNL     1       5.926   4.748  18.459  0.00  0.00    +0.000 C 
BRANCH  14  15
ATOM     15  C   UNL     1       6.112   4.675  16.986  0.00  0.00    +0.000 A 
ATOM     16  C   UNL     1       7.202   5.304  16.376  0.00  0.00    +0.000 A 
ATOM     17  C   UNL     1       7.390   5.130  15.019  0.00  0.00    +0.000 A 
ATOM     18  N   UNL     1       6.571   4.396  14.236  0.00  0.00    +0.000 NA
ATOM     19  C   UNL     1       5.508   3.821  14.835  0.00  0.00    +0.000 A 
ATOM     20  C   UNL     1       5.234   3.934  16.189  0.00  0.00    +0.000 A 
ENDBRANCH  14  15
ENDBRANCH   3  14
TORSDOF 3
ENDMDL
MODEL 3
REMARK VINA RESULT:      -7.4      2.402      5.944
REMARK  Name = 
REMARK  4 active torsions:
REMARK  status: ('A' for Active; 'I' for Inactive)
REMARK    1  A    between atoms: C_1  and  N_2
REMARK    2  A    between atoms: C_9  and  C_10
REMARK    3  A    between atoms: N_12  and  C_13
REMARK    4  A    between atoms: C_13  and  C_14
REMARK                            x       y       z     vdW  Elec       q    Type
REMARK                         _______ _______ _______ _____ _____    ______ ____
ROOT
ATOM      1  C   UNL     1       4.373   3.265  19.720  0.00  0.00    +0.000 C 
ATOM      2  O   UNL     1       4.203   2.158  20.225  0.00  0.00    +0.000 OA
ATOM      3  N   UNL     1       5.529   3.465  19.009  0.00  0.00    +0.000 N 
ATOM      4  H   UNL     1       6.158   2.671  18.999  0.00  0.00    +0.000 HD
ENDROOT
BRANCH   1  13
ATOM      5  C   UNL     1       2.877   5.992  17.916  0.00  0.00    +0.000 C 
ATOM      6  N   UNL     1       2.596   4.713  18.561  0.00  0.00    +0.000 N 
ATOM      7  C   UNL     1       1.536   3.965  18.079  0.00  0.00    +0.000 C 
ATOM      8  O   UNL     1       0.877   4.326  17.100  0.00  0.00    +0.000 OA
ATOM      9  C   UNL     1       1.182   2.669  18.769  0.00  0.00    +0.000 C 
ATOM     10  C   UNL     1       0.612   2.854  20.165  0.00  0.00    +0.000 C 
ATOM     11  C   UNL     1       1.625   3.148  21.263  0.00  0.00    +0.000 C 
ATOM     12  C   UNL     1       2.458   4.400  21.050  0.00  0.00    +0.000 C 
ATOM     13  C   UNL     1       3.339   4.432  19.801  0.00  0.00    +0.000 C 
ENDBRANCH   1  13
BRANCH   3  14
ATOM     14  C   UNL     1       5.927   4.702  18.401  0.00  0.00    +0.000 C 
BRANCH  14  15
ATOM     15  C   UNL     1       6.152   4.582  16.936  0.00  0.00    +0.000 A 
ATOM     16  C   UNL     1       5.197   3.969  16.119  0.00  0.00    +0.000 A 
ATOM     17  C   UNL     1       5.402   3.964  14.753  0.00  0.00    +0.000 A 
ATOM     18  N   UNL     1       6.484   4.506  14.156  0.00  0.00    +0.000 NA
ATOM     19  C   UNL     1       7.410   5.067  14.960  0.00  0.00    +0.000 A 
ATOM     20  C   UNL     1       7.295   5.124  16.340  0.00  0.00    +0.000 A 
ENDBRANCH  14  15
ENDBRANCH   3  14
TORSDOF 3
ENDMDL
MODEL 4
REMARK VINA RESULT:      -7.4      0.105      1.082
REMARK  Name = 
REMARK  4 active torsions:
REMARK  status: ('A' for Active; 'I' for Inactive)
REMARK    1  A    between atoms: C_1  and  N_2
REMARK    2  A    between atoms: C_9  and  C_10
REMARK    3  A    between atoms: N_12  and  C_13
REMARK    4  A    between atoms: C_13  and  C_14
REMARK                            x       y       z     vdW  Elec       q    Type
REMARK                         _______ _______ _______ _____ _____    ______ ____
ROOT
ATOM      1  C   UNL     1       3.925   6.060  17.516  0.00  0.00    +0.000 C 
ATOM      2  O   UNL     1       4.286   7.234  17.481  0.00  0.00    +0.000 OA
ATOM      3  N   UNL     1       2.592   5.815  17.726  0.00  0.00    +0.000 N 
ATOM      4  H   UNL     1       2.029   6.645  17.870  0.00  0.00    +0.000 HD
ENDROOT
BRANCH   1  13
ATOM      5  C   UNL     1       5.551   4.025  15.037  0.00  0.00    +0.000 C 
ATOM      6  N   UNL     1       5.789   4.953  16.138  0.00  0.00    +0.000 N 
ATOM      7  C   UNL     1       6.945   5.714  16.104  0.00  0.00    +0.000 C 
ATOM      8  O   UNL     1       7.729   5.664  15.152  0.00  0.00    +0.000 OA
ATOM      9  C   UNL     1       7.249   6.635  17.262  0.00  0.00    +0.000 C 
ATOM     10  C   UNL     1       7.587   5.906  18.552  0.00  0.00    +0.000 C 
ATOM     11  C   UNL     1       6.405   5.341  19.327  0.00  0.00    +0.000 C 
ATOM     12  C   UNL     1       5.557   4.339  18.564  0.00  0.00    +0.000 C 
ATOM     13  C   UNL     1       4.878   4.844  17.290  0.00  0.00    +0.000 C 
ENDBRANCH   1  13
BRANCH   3  14
ATOM     14  C   UNL     1       1.997   4.515  17.855  0.00  0.00    +0.000 C 
BRANCH  14  15
ATOM     15  C   UNL     1       2.025   3.999  19.249  0.00  0.00    +0.000 A 
ATOM     16  C   UNL     1       2.352   4.846  20.312  0.00  0.00    +0.000 A 
ATOM     17  C   UNL     1       2.273   4.350  21.600  0.00  0.00    +0.000 A 
ATOM     18  N   UNL     1       1.912   3.084  21.894  0.00  0.00    +0.000 NA
ATOM     19  C   UNL     1       1.629   2.272  20.855  0.00  0.00    +0.000 A 
ATOM     20  C   UNL     1       1.677   2.675  19.530  0.00  0.00    +0.000 A 
ENDBRANCH  14  15
ENDBRANCH   3  14
TORSDOF 3
ENDMDL
MODEL 5
REMARK VINA RESULT:      -7.3      2.514      6.045
REMARK  Name = 
REMARK  4 active torsions:
REMARK  status: ('A' for Active; 'I' for Inactive)
REMARK    1  A    between atoms: C_1  and  N_2
REMARK    2  A    between atoms: C_9  and  C_10
REMARK    3  A    between atoms: N_12  and  C_13
REMARK    4  A    between atoms: C_13  and  C_14
REMARK                            x       y       z     vdW  Elec       q    Type
REMARK                         _______ _______ _______ _____ _____    ______ ____
ROOT
ATOM      1  C   UNL     1       4.486   3.214  19.493  0.00  0.00    +0.000 C 
ATOM      2  O   UNL     1       4.437   2.040  19.853  0.00  0.00    +0.000 OA
ATOM      3  N   UNL     1       5.726   3.751  19.258  0.00  0.00    +0.000 N 
ATOM      4  H   UNL     1       6.498   3.122  19.441  0.00  0.00    +0.000 HD
ENDROOT
BRANCH   1  13
ATOM      5  C   UNL     1       1.870   4.019  17.161  0.00  0.00    +0.000 C 
ATOM      6  N   UNL     1       2.136   3.474  18.488  0.00  0.00    +0.000 N 
ATOM      7  C   UNL     1       1.236   2.556  19.003  0.00  0.00    +0.000 C 
ATOM      8  O   UNL     1       0.268   2.159  18.350  0.00  0.00    +0.000 OA
ATOM      9  C   UNL     1       1.452   2.025  20.400  0.00  0.00    +0.000 C 
ATOM     10  C   UNL     1       1.245   3.064  21.489  0.00  0.00    +0.000 C 
ATOM     11  C   UNL     1       2.391   4.045  21.699  0.00  0.00    +0.000 C 
ATOM     12  C   UNL     1       2.756   4.875  20.480  0.00  0.00    +0.000 C 
ATOM     13  C   UNL     1       3.229   4.107  19.245  0.00  0.00    +0.000 C 
ENDBRANCH   1  13
BRANCH   3  14
ATOM     14  C   UNL     1       5.984   5.114  18.889  0.00  0.00    +0.000 C 
BRANCH  14  15
ATOM     15  C   UNL     1       6.105   5.304  17.420  0.00  0.00    +0.000 A 
ATOM     16  C   UNL     1       7.080   4.615  16.693  0.00  0.00    +0.000 A 
ATOM     17  C   UNL     1       7.096   4.748  15.318  0.00  0.00    +0.000 A 
ATOM     18  N   UNL     1       6.230   5.520  14.630  0.00  0.00    +0.000 NA
ATOM     19  C   UNL     1       5.315   6.202  15.349  0.00  0.00    +0.000 A 
ATOM     20  C   UNL     1       5.216   6.134  16.729  0.00  0.00    +0.000 A 
ENDBRANCH  14  15
ENDBRANCH   3  14
TORSDOF 3
ENDMDL
MODEL 6
REMARK VINA RESULT:      -7.2      2.520      5.998
REMARK  Name = 
REMARK  4 active torsions:
REMARK  status: ('A' for Active; 'I' for Inactive)
REMARK    1  A    between atoms: C_1  and  N_2
REMARK    2  A    between atoms: C_9  and  C_10
REMARK    3  A    between atoms: N_12  and  C_13
REMARK    4  A    between atoms: C_13  and  C_14
REMARK                            x       y       z     vdW  Elec       q    Type
REMARK                         _______ _______ _______ _____ _____    ______ ____
ROOT
ATOM      1  C   UNL     1       4.670   3.345  19.555  0.00  0.00    +0.000 C 
ATOM      2  O   UNL     1       4.629   2.218  20.043  0.00  0.00    +0.000 OA
ATOM      3  N   UNL     1       5.907   3.902  19.352  0.00  0.00    +0.000 N 
ATOM      4  H   UNL     1       6.682   3.328  19.663  0.00  0.00    +0.000 HD
ENDROOT
BRANCH   1  13
ATOM      5  C   UNL     1       2.206   3.764  16.970  0.00  0.00    +0.000 C 
ATOM      6  N   UNL     1       2.392   3.394  18.370  0.00  0.00    +0.000 N 
ATOM      7  C   UNL     1       1.484   2.513  18.932  0.00  0.00    +0.000 C 
ATOM      8  O   UNL     1       0.576   2.003  18.270  0.00  0.00    +0.000 OA
ATOM      9  C   UNL     1       1.613   2.163  20.396  0.00  0.00    +0.000 C 
ATOM     10  C   UNL     1       1.300   3.319  21.332  0.00  0.00    +0.000 C 
ATOM     11  C   UNL     1       2.399   4.360  21.495  0.00  0.00    +0.000 C 
ATOM     12  C   UNL     1       2.827   5.048  20.211  0.00  0.00    +0.000 C 
ATOM     13  C   UNL     1       3.409   4.154  19.115  0.00  0.00    +0.000 C 
ENDBRANCH   1  13
BRANCH   3  14
ATOM     14  C   UNL     1       6.151   5.224  18.850  0.00  0.00    +0.000 C 
BRANCH  14  15
ATOM     15  C   UNL     1       6.139   5.291  17.365  0.00  0.00    +0.000 A 
ATOM     16  C   UNL     1       5.247   6.137  16.700  0.00  0.00    +0.000 A 
ATOM     17  C   UNL     1       5.335   6.241  15.325  0.00  0.00    +0.000 A 
ATOM     18  N   UNL     1       6.228   5.558  14.578  0.00  0.00    +0.000 NA
ATOM     19  C   UNL     1       7.062   4.724  15.232  0.00  0.00    +0.000 A 
ATOM     20  C   UNL     1       7.053   4.553  16.607  0.00  0.00    +0.000 A 
ENDBRANCH  14  15
ENDBRANCH   3  14
TORSDOF 3
ENDMDL
MODEL 7
REMARK VINA RESULT:      -7.0      1.892      2.861
REMARK  Name = 
REMARK  4 active torsions:
REMARK  status: ('A' for Active; 'I' for Inactive)
REMARK    1  A    between atoms: C_1  and  N_2
REMARK    2  A    between atoms: C_9  and  C_10
REMARK    3  A    between atoms: N_12  and  C_13
REMARK    4  A    between atoms: C_13  and  C_14
REMARK                            x       y       z     vdW  Elec       q    Type
REMARK                         _______ _______ _______ _____ _____    ______ ____
ROOT
ATOM      1  C   UNL     1       4.837   3.787  17.303  0.00  0.00    +0.000 C 
ATOM      2  O   UNL     1       4.817   4.019  16.096  0.00  0.00    +0.000 OA
ATOM      3  N   UNL     1       4.484   2.526  17.710  0.00  0.00    +0.000 N 
ATOM      4  H   UNL     1       4.202   1.906  16.960  0.00  0.00    +0.000 HD
ENDROOT
BRANCH   1  13
ATOM      5  C   UNL     1       7.639   5.560  18.693  0.00  0.00    +0.000 C 
ATOM      6  N   UNL     1       6.371   5.729  17.990  0.00  0.00    +0.000 N 
ATOM      7  C   UNL     1       6.231   6.832  17.165  0.00  0.00    +0.000 C 
ATOM      8  O   UNL     1       7.159   7.624  16.974  0.00  0.00    +0.000 OA
ATOM      9  C   UNL     1       4.908   7.067  16.476  0.00  0.00    +0.000 C 
ATOM     10  C   UNL     1       3.783   7.446  17.425  0.00  0.00    +0.000 C 
ATOM     11  C   UNL     1       3.158   6.299  18.208  0.00  0.00    +0.000 C 
ATOM     12  C   UNL     1       4.121   5.525  19.090  0.00  0.00    +0.000 C 
ATOM     13  C   UNL     1       5.281   4.821  18.385  0.00  0.00    +0.000 C 
ENDBRANCH   1  13
BRANCH   3  14
ATOM     14  C   UNL     1       4.392   2.089  19.074  0.00  0.00    +0.000 C 
BRANCH  14  15
ATOM     15  C   UNL     1       3.069   2.378  19.688  0.00  0.00    +0.000 A 
ATOM     16  C   UNL     1       2.965   2.642  21.057  0.00  0.00    +0.000 A 
ATOM     17  C   UNL     1       1.733   3.000  21.568  0.00  0.00    +0.000 A 
ATOM     18  N   UNL     1       0.612   3.095  20.824  0.00  0.00    +0.000 NA
ATOM     19  C   UNL     1       0.723   2.808  19.511  0.00  0.00    +0.000 A 
ATOM     20  C   UNL     1       1.914   2.442  18.903  0.00  0.00    +0.000 A 
ENDBRANCH  14  15
ENDBRANCH   3  14
TORSDOF 3
ENDMDL
MODEL 8
REMARK VINA RESULT:      -7.0      2.447      6.122
REMARK  Name = 
REMARK  4 active torsions:
REMARK  status: ('A' for Active; 'I' for Inactive)
REMARK    1  A    between atoms: C_1  and  N_2
REMARK    2  A    between atoms: C_9  and  C_10
REMARK    3  A    between atoms: N_12  and  C_13
REMARK    4  A    between atoms: C_13  and  C_14
REMARK                            x       y       z     vdW  Elec       q    Type
REMARK                         _______ _______ _______ _____ _____    ______ ____
ROOT
ATOM      1  C   UNL     1       3.766   5.230  19.549  0.00  0.00    +0.000 C 
ATOM      2  O   UNL     1       2.833   5.915  19.962  0.00  0.00    +0.000 OA
ATOM      3  N   UNL     1       4.971   5.854  19.352  0.00  0.00    +0.000 N 
ATOM      4  H   UNL     1       4.964   6.849  19.540  0.00  0.00    +0.000 HD
ENDROOT
BRANCH   1  13
ATOM      5  C   UNL     1       4.508   1.968  20.869  0.00  0.00    +0.000 C 
ATOM      6  N   UNL     1       3.421   2.854  20.465  0.00  0.00    +0.000 N 
ATOM      7  C   UNL     1       2.195   2.701  21.089  0.00  0.00    +0.000 C 
ATOM      8  O   UNL     1       2.026   1.886  22.000  0.00  0.00    +0.000 OA
ATOM      9  C   UNL     1       1.035   3.560  20.645  0.00  0.00    +0.000 C 
ATOM     10  C   UNL     1       0.533   3.237  19.248  0.00  0.00    +0.000 C 
ATOM     11  C   UNL     1       1.366   3.787  18.098  0.00  0.00    +0.000 C 
ATOM     12  C   UNL     1       2.811   3.323  18.072  0.00  0.00    +0.000 C 
ATOM     13  C   UNL     1       3.671   3.694  19.281  0.00  0.00    +0.000 C 
ENDBRANCH   1  13
BRANCH   3  14
ATOM     14  C   UNL     1       6.152   5.233  18.823  0.00  0.00    +0.000 C 
BRANCH  14  15
ATOM     15  C   UNL     1       6.233   5.310  17.341  0.00  0.00    +0.000 A 
ATOM     16  C   UNL     1       7.165   4.539  16.640  0.00  0.00    +0.000 A 
ATOM     17  C   UNL     1       7.142   4.569  15.259  0.00  0.00    +0.000 A 
ATOM     18  N   UNL     1       6.277   5.314  14.540  0.00  0.00    +0.000 NA
ATOM     19  C   UNL     1       5.404   6.075  15.231  0.00  0.00    +0.000 A 
ATOM     20  C   UNL     1       5.346   6.112  16.616  0.00  0.00    +0.000 A 
ENDBRANCH  14  15
ENDBRANCH   3  14
TORSDOF 3
ENDMDL
MODEL 9
REMARK VINA RESULT:      -7.0      2.380      6.273
REMARK  Name = 
REMARK  4 active torsions:
REMARK  status: ('A' for Active; 'I' for Inactive)
REMARK    1  A    between atoms: C_1  and  N_2
REMARK    2  A    between atoms: C_9  and  C_10
REMARK    3  A    between atoms: N_12  and  C_13
REMARK    4  A    between atoms: C_13  and  C_14
REMARK                            x       y       z     vdW  Elec       q    Type
REMARK                         _______ _______ _______ _____ _____    ______ ____
ROOT
ATOM      1  C   UNL     1       4.060   5.004  18.872  0.00  0.00    +0.000 C 
ATOM      2  O   UNL     1       3.281   5.877  19.247  0.00  0.00    +0.000 OA
ATOM      3  N   UNL     1       5.297   5.405  18.436  0.00  0.00    +0.000 N 
ATOM      4  H   UNL     1       5.437   6.408  18.434  0.00  0.00    +0.000 HD
ENDROOT
BRANCH   1  13
ATOM      5  C   UNL     1       4.708   1.910  20.588  0.00  0.00    +0.000 C 
ATOM      6  N   UNL     1       3.663   2.871  20.248  0.00  0.00    +0.000 N 
ATOM      7  C   UNL     1       2.590   2.992  21.114  0.00  0.00    +0.000 C 
ATOM      8  O   UNL     1       2.532   2.359  22.171  0.00  0.00    +0.000 OA
ATOM      9  C   UNL     1       1.462   3.931  20.755  0.00  0.00    +0.000 C 
ATOM     10  C   UNL     1       0.641   3.473  19.561  0.00  0.00    +0.000 C 
ATOM     11  C   UNL     1       1.262   3.715  18.193  0.00  0.00    +0.000 C 
ATOM     12  C   UNL     1       2.610   3.050  17.973  0.00  0.00    +0.000 C 
ATOM     13  C   UNL     1       3.744   3.475  18.907  0.00  0.00    +0.000 C 
ENDBRANCH   1  13
BRANCH   3  14
ATOM     14  C   UNL     1       6.313   4.539  17.909  0.00  0.00    +0.000 C 
BRANCH  14  15
ATOM     15  C   UNL     1       6.362   4.538  16.423  0.00  0.00    +0.000 A 
ATOM     16  C   UNL     1       7.325   5.290  15.744  0.00  0.00    +0.000 A 
ATOM     17  C   UNL     1       7.395   5.185  14.369  0.00  0.00    +0.000 A 
ATOM     18  N   UNL     1       6.574   4.407  13.633  0.00  0.00    +0.000 NA
ATOM     19  C   UNL     1       5.631   3.712  14.301  0.00  0.00    +0.000 A 
ATOM     20  C   UNL     1       5.481   3.748  15.679  0.00  0.00    +0.000 A 
ENDBRANCH  14  15
ENDBRANCH   3  14
TORSDOF 3
ENDMDL
