MODEL 1
REMARK VINA RESULT:      -8.1      0.000      0.000
REMARK  Name = 
REMARK  8 active torsions:
REMARK  status: ('A' for Active; 'I' for Inactive)
REMARK    1  A    between atoms: C_1  and  C_2
REMARK    2  A    between atoms: C_4  and  S_5
REMARK    3  A    between atoms: S_5  and  N_8
REMARK    4  A    between atoms: C_16  and  O_17
REMARK    5  A    between atoms: O_17  and  C_18
REMARK    6  A    between atoms: C_18  and  C_19
REMARK    7  A    between atoms: N_21  and  C_22
REMARK    8  A    between atoms: C_22  and  C_23
REMARK                            x       y       z     vdW  Elec       q    Type
REMARK                         _______ _______ _______ _____ _____    ______ ____
ROOT
ATOM      1  C   UNL     1       1.921   9.589  17.833  0.00  0.00    +0.000 C 
ATOM      2  C   UNL     1       2.152   8.301  18.577  0.00  0.00    +0.000 A 
ATOM      3  C   UNL     1       2.958   7.307  17.993  0.00  0.00    +0.000 A 
ATOM      4  C   UNL     1       3.196   6.108  18.672  0.00  0.00    +0.000 A 
ATOM      5  C   UNL     1       2.627   5.877  19.922  0.00  0.00    +0.000 A 
ATOM      6  C   UNL     1       1.820   6.851  20.501  0.00  0.00    +0.000 A 
ATOM      7  C   UNL     1       1.596   8.074  19.855  0.00  0.00    +0.000 A 
ENDROOT
BRANCH   4   8
ATOM      8  S   UNL     1       4.260   4.878  17.969  0.00  0.00    +0.000 S 
ATOM      9  O   UNL     1       4.925   4.211  19.071  0.00  0.00    +0.000 OA
ATOM     10  O   UNL     1       3.495   4.125  17.002  0.00  0.00    +0.000 OA
BRANCH   8  11
ATOM     11  N   UNL     1       5.428   5.779  17.121  0.00  0.00    +0.000 NA
ATOM     12  C   UNL     1       5.713   5.392  15.703  0.00  0.00    +0.000 C 
ATOM     13  C   UNL     1       6.662   4.194  15.608  0.00  0.00    +0.000 C 
ATOM     14  O   UNL     1       7.879   4.427  16.328  0.00  0.00    +0.000 OA
ATOM     15  C   UNL     1       7.619   4.710  17.711  0.00  0.00    +0.000 C 
ATOM     16  C   UNL     1       6.722   5.944  17.864  0.00  0.00    +0.000 C 
ENDBRANCH   8  11
ENDBRANCH   4   8
BRANCH   7  17
ATOM     17  O   UNL     1       0.853   9.090  20.409  0.00  0.00    +0.000 OA
BRANCH  17  18
ATOM     18  C   UNL     1       0.246   8.778  21.668  0.00  0.00    +0.000 C 
BRANCH  18  19
ATOM     19  C   UNL     1      -0.114  10.018  22.479  0.00  0.00    +0.000 C 
ATOM     20  O   UNL     1      -0.041  10.037  23.706  0.00  0.00    +0.000 OA
ATOM     21  N   UNL     1      -0.526  11.084  21.724  0.00  0.00    +0.000 N 
ATOM     22  H   UNL     1      -0.574  10.955  20.720  0.00  0.00    +0.000 HD
BRANCH  21  23
ATOM     23  C   UNL     1      -0.853  12.363  22.293  0.00  0.00    +0.000 C 
BRANCH  23  24
ATOM     24  C   UNL     1      -2.337  12.498  22.469  0.00  0.00    +0.000 A 
ATOM     25  C   UNL     1      -2.917  12.399  23.736  0.00  0.00    +0.000 A 
ATOM     26  C   UNL     1      -4.292  12.527  23.847  0.00  0.00    +0.000 A 
ATOM     27  N   UNL     1      -5.115  12.728  22.794  0.00  0.00    +0.000 NA
ATOM     28  C   UNL     1      -4.537  12.800  21.578  0.00  0.00    +0.000 A 
ATOM     29  C   UNL     1      -3.173  12.687  21.364  0.00  0.00    +0.000 A 
ENDBRANCH  23  24
ENDBRANCH  21  23
ENDBRANCH  18  19
ENDBRANCH  17  18
ENDBRANCH   7  17
TORSDOF 7
ENDMDL
MODEL 2
REMARK VINA RESULT:      -7.9      5.692      9.168
REMARK  Name = 
REMARK  8 active torsions:
REMARK  status: ('A' for Active; 'I' for Inactive)
REMARK    1  A    between atoms: C_1  and  C_2
REMARK    2  A    between atoms: C_4  and  S_5
REMARK    3  A    between atoms: S_5  and  N_8
REMARK    4  A    between atoms: C_16  and  O_17
REMARK    5  A    between atoms: O_17  and  C_18
REMARK    6  A    between atoms: C_18  and  C_19
REMARK    7  A    between atoms: N_21  and  C_22
REMARK    8  A    between atoms: C_22  and  C_23
REMARK                            x       y       z     vdW  Elec       q    Type
REMARK                         _______ _______ _______ _____ _____    ______ ____
ROOT
ATOM      1  C   UNL     1       6.068   5.015  15.254  0.00  0.00    +0.000 C 
ATOM      2  C   UNL     1       5.663   4.624  16.650  0.00  0.00    +0.000 A 
ATOM      3  C   UNL     1       4.447   3.942  16.846  0.00  0.00    +0.000 A 
ATOM      4  C   UNL     1       4.058   3.560  18.133  0.00  0.00    +0.000 A 
ATOM      5  C   UNL     1       4.856   3.861  19.234  0.00  0.00    +0.000 A 
ATOM      6  C   UNL     1       6.054   4.544  19.049  0.00  0.00    +0.000 A 
ATOM      7  C   UNL     1       6.481   4.907  17.764  0.00  0.00    +0.000 A 
ENDROOT
BRANCH   4   8
ATOM      8  S   UNL     1       2.560   2.647  18.380  0.00  0.00    +0.000 S 
ATOM      9  O   UNL     1       2.268   1.964  17.135  0.00  0.00    +0.000 OA
ATOM     10  O   UNL     1       2.683   1.910  19.617  0.00  0.00    +0.000 OA
BRANCH   8  11
ATOM     11  N   UNL     1       1.377   3.849  18.606  0.00  0.00    +0.000 NA
ATOM     12  C   UNL     1       1.680   5.228  18.107  0.00  0.00    +0.000 C 
ATOM     13  C   UNL     1       2.571   6.012  19.074  0.00  0.00    +0.000 C 
ATOM     14  O   UNL     1       2.007   6.059  20.391  0.00  0.00    +0.000 OA
ATOM     15  C   UNL     1       1.798   4.738  20.914  0.00  0.00    +0.000 C 
ATOM     16  C   UNL     1       0.857   3.930  20.012  0.00  0.00    +0.000 C 
ENDBRANCH   8  11
ENDBRANCH   4   8
BRANCH   7  17
ATOM     17  O   UNL     1       7.682   5.533  17.523  0.00  0.00    +0.000 OA
BRANCH  17  18
ATOM     18  C   UNL     1       8.015   6.579  18.443  0.00  0.00    +0.000 C 
BRANCH  18  19
ATOM     19  C   UNL     1       7.863   7.972  17.842  0.00  0.00    +0.000 C 
ATOM     20  O   UNL     1       7.141   8.187  16.871  0.00  0.00    +0.000 OA
ATOM     21  N   UNL     1       8.601   8.940  18.472  0.00  0.00    +0.000 N 
ATOM     22  H   UNL     1       9.183   8.651  19.250  0.00  0.00    +0.000 HD
BRANCH  21  23
ATOM     23  C   UNL     1       8.550  10.326  18.096  0.00  0.00    +0.000 C 
BRANCH  23  24
ATOM     24  C   UNL     1       9.723  11.070  18.666  0.00  0.00    +0.000 A 
ATOM     25  C   UNL     1      10.733  11.556  17.832  0.00  0.00    +0.000 A 
ATOM     26  C   UNL     1      11.797  12.233  18.406  0.00  0.00    +0.000 A 
ATOM     27  N   UNL     1      11.926  12.441  19.734  0.00  0.00    +0.000 NA
ATOM     28  C   UNL     1      10.951  11.945  20.524  0.00  0.00    +0.000 A 
ATOM     29  C   UNL     1       9.847  11.257  20.046  0.00  0.00    +0.000 A 
ENDBRANCH  23  24
ENDBRANCH  21  23
ENDBRANCH  18  19
ENDBRANCH  17  18
ENDBRANCH   7  17
TORSDOF 7
ENDMDL
MODEL 3
REMARK VINA RESULT:      -7.8      5.759      9.080
REMARK  Name = 
REMARK  8 active torsions:
REMARK  status: ('A' for Active; 'I' for Inactive)
REMARK    1  A    between atoms: C_1  and  C_2
REMARK    2  A    between atoms: C_4  and  S_5
REMARK    3  A    between atoms: S_5  and  N_8
REMARK    4  A    between atoms: C_16  and  O_17
REMARK    5  A    between atoms: O_17  and  C_18
REMARK    6  A    between atoms: C_18  and  C_19
REMARK    7  A    between atoms: N_21  and  C_22
REMARK    8  A    between atoms: C_22  and  C_23
REMARK                            x       y       z     vdW  Elec       q    Type
REMARK                         _______ _______ _______ _____ _____    ______ ____
ROOT
ATOM      1  C   UNL     1       5.901   4.728  14.918  0.00  0.00    +0.000 C 
ATOM      2  C   UNL     1       5.696   4.647  16.407  0.00  0.00    +0.000 A 
ATOM      3  C   UNL     1       4.709   3.783  16.917  0.00  0.00    +0.000 A 
ATOM      4  C   UNL     1       4.511   3.683  18.298  0.00  0.00    +0.000 A 
ATOM      5  C   UNL     1       5.272   4.445  19.180  0.00  0.00    +0.000 A 
ATOM      6  C   UNL     1       6.243   5.309  18.682  0.00  0.00    +0.000 A 
ATOM      7  C   UNL     1       6.483   5.400  17.304  0.00  0.00    +0.000 A 
ENDROOT
BRANCH   4   8
ATOM      8  S   UNL     1       3.313   2.551  18.950  0.00  0.00    +0.000 S 
ATOM      9  O   UNL     1       3.207   1.456  18.007  0.00  0.00    +0.000 OA
ATOM     10  O   UNL     1       3.638   2.307  20.336  0.00  0.00    +0.000 OA
BRANCH   8  11
ATOM     11  N   UNL     1       1.854   3.425  18.904  0.00  0.00    +0.000 NA
ATOM     12  C   UNL     1       1.809   4.663  18.063  0.00  0.00    +0.000 C 
ATOM     13  C   UNL     1       2.433   5.869  18.771  0.00  0.00    +0.000 C 
ATOM     14  O   UNL     1       1.829   6.098  20.051  0.00  0.00    +0.000 OA
ATOM     15  C   UNL     1       1.949   4.945  20.897  0.00  0.00    +0.000 C 
ATOM     16  C   UNL     1       1.281   3.720  20.260  0.00  0.00    +0.000 C 
ENDBRANCH   8  11
ENDBRANCH   4   8
BRANCH   7  17
ATOM     17  O   UNL     1       7.467   6.196  16.766  0.00  0.00    +0.000 OA
BRANCH  17  18
ATOM     18  C   UNL     1       7.293   7.602  16.980  0.00  0.00    +0.000 C 
BRANCH  18  19
ATOM     19  C   UNL     1       8.154   8.143  18.115  0.00  0.00    +0.000 C 
ATOM     20  O   UNL     1       8.640   7.407  18.971  0.00  0.00    +0.000 OA
ATOM     21  N   UNL     1       8.325   9.502  18.093  0.00  0.00    +0.000 N 
ATOM     22  H   UNL     1       7.861  10.019  17.355  0.00  0.00    +0.000 HD
BRANCH  21  23
ATOM     23  C   UNL     1       9.151  10.199  19.041  0.00  0.00    +0.000 C 
BRANCH  23  24
ATOM     24  C   UNL     1       9.749  11.426  18.416  0.00  0.00    +0.000 A 
ATOM     25  C   UNL     1      11.084  11.439  18.004  0.00  0.00    +0.000 A 
ATOM     26  C   UNL     1      11.591  12.596  17.436  0.00  0.00    +0.000 A 
ATOM     27  N   UNL     1      10.873  13.728  17.270  0.00  0.00    +0.000 NA
ATOM     28  C   UNL     1       9.593  13.702  17.694  0.00  0.00    +0.000 A 
ATOM     29  C   UNL     1       8.994  12.594  18.271  0.00  0.00    +0.000 A 
ENDBRANCH  23  24
ENDBRANCH  21  23
ENDBRANCH  18  19
ENDBRANCH  17  18
ENDBRANCH   7  17
TORSDOF 7
ENDMDL
MODEL 4
REMARK VINA RESULT:      -7.6      3.633      9.802
REMARK  Name = 
REMARK  8 active torsions:
REMARK  status: ('A' for Active; 'I' for Inactive)
REMARK    1  A    between atoms: C_1  and  C_2
REMARK    2  A    between atoms: C_4  and  S_5
REMARK    3  A    between atoms: S_5  and  N_8
REMARK    4  A    between atoms: C_16  and  O_17
REMARK    5  A    between atoms: O_17  and  C_18
REMARK    6  A    between atoms: C_18  and  C_19
REMARK    7  A    between atoms: N_21  and  C_22
REMARK    8  A    between atoms: C_22  and  C_23
REMARK                            x       y       z     vdW  Elec       q    Type
REMARK                         _______ _______ _______ _____ _____    ______ ____
ROOT
ATOM      1  C   UNL     1       2.755   7.963  17.593  0.00  0.00    +0.000 C 
ATOM      2  C   UNL     1       2.068   8.311  18.887  0.00  0.00    +0.000 A 
ATOM      3  C   UNL     1       1.448   9.568  19.017  0.00  0.00    +0.000 A 
ATOM      4  C   UNL     1       0.795   9.907  20.206  0.00  0.00    +0.000 A 
ATOM      5  C   UNL     1       0.763   9.018  21.276  0.00  0.00    +0.000 A 
ATOM      6  C   UNL     1       1.384   7.778  21.158  0.00  0.00    +0.000 A 
ATOM      7  C   UNL     1       2.015   7.402  19.965  0.00  0.00    +0.000 A 
ENDROOT
BRANCH   4   8
ATOM      8  S   UNL     1      -0.042  11.463  20.354  0.00  0.00    +0.000 S 
ATOM      9  O   UNL     1      -1.390  11.269  19.860  0.00  0.00    +0.000 OA
ATOM     10  O   UNL     1       0.194  11.972  21.685  0.00  0.00    +0.000 OA
BRANCH   8  11
ATOM     11  N   UNL     1       0.775  12.476  19.257  0.00  0.00    +0.000 NA
ATOM     12  C   UNL     1       1.979  13.215  19.755  0.00  0.00    +0.000 C 
ATOM     13  C   UNL     1       1.603  14.475  20.540  0.00  0.00    +0.000 C 
ATOM     14  O   UNL     1       0.754  15.339  19.773  0.00  0.00    +0.000 OA
ATOM     15  C   UNL     1      -0.446  14.664  19.369  0.00  0.00    +0.000 C 
ATOM     16  C   UNL     1      -0.126  13.425  18.523  0.00  0.00    +0.000 C 
ENDBRANCH   8  11
ENDBRANCH   4   8
BRANCH   7  17
ATOM     17  O   UNL     1       2.593   6.168  19.779  0.00  0.00    +0.000 OA
BRANCH  17  18
ATOM     18  C   UNL     1       1.674   5.100  19.526  0.00  0.00    +0.000 C 
BRANCH  18  19
ATOM     19  C   UNL     1       2.024   4.296  18.279  0.00  0.00    +0.000 C 
ATOM     20  O   UNL     1       1.196   3.594  17.703  0.00  0.00    +0.000 OA
ATOM     21  N   UNL     1       3.327   4.424  17.874  0.00  0.00    +0.000 N 
ATOM     22  H   UNL     1       3.934   5.011  18.435  0.00  0.00    +0.000 HD
BRANCH  21  23
ATOM     23  C   UNL     1       3.840   3.795  16.688  0.00  0.00    +0.000 C 
BRANCH  23  24
ATOM     24  C   UNL     1       5.133   4.433  16.271  0.00  0.00    +0.000 A 
ATOM     25  C   UNL     1       5.735   5.411  17.066  0.00  0.00    +0.000 A 
ATOM     26  C   UNL     1       6.926   5.974  16.637  0.00  0.00    +0.000 A 
ATOM     27  N   UNL     1       7.539   5.642  15.480  0.00  0.00    +0.000 NA
ATOM     28  C   UNL     1       6.931   4.711  14.716  0.00  0.00    +0.000 A 
ATOM     29  C   UNL     1       5.741   4.090  15.060  0.00  0.00    +0.000 A 
ENDBRANCH  23  24
ENDBRANCH  21  23
ENDBRANCH  18  19
ENDBRANCH  17  18
ENDBRANCH   7  17
TORSDOF 7
ENDMDL
MODEL 5
REMARK VINA RESULT:      -7.5      0.936      1.388
REMARK  Name = 
REMARK  8 active torsions:
REMARK  status: ('A' for Active; 'I' for Inactive)
REMARK    1  A    between atoms: C_1  and  C_2
REMARK    2  A    between atoms: C_4  and  S_5
REMARK    3  A    between atoms: S_5  and  N_8
REMARK    4  A    between atoms: C_16  and  O_17
REMARK    5  A    between atoms: O_17  and  C_18
REMARK    6  A    between atoms: C_18  and  C_19
REMARK    7  A    between atoms: N_21  and  C_22
REMARK    8  A    between atoms: C_22  and  C_23
REMARK                            x       y       z     vdW  Elec       q    Type
REMARK                         _______ _______ _______ _____ _____    ______ ____
ROOT
ATOM      1  C   UNL     1       1.872   9.660  17.767  0.00  0.00    +0.000 C 
ATOM      2  C   UNL     1       2.110   8.395  18.547  0.00  0.00    +0.000 A 
ATOM      3  C   UNL     1       2.912   7.384  17.986  0.00  0.00    +0.000 A 
ATOM      4  C   UNL     1       3.155   6.206  18.700  0.00  0.00    +0.000 A 
ATOM      5  C   UNL     1       2.597   6.012  19.960  0.00  0.00    +0.000 A 
ATOM      6  C   UNL     1       1.793   7.003  20.516  0.00  0.00    +0.000 A 
ATOM      7  C   UNL     1       1.564   8.207  19.835  0.00  0.00    +0.000 A 
ENDROOT
BRANCH   4   8
ATOM      8  S   UNL     1       4.215   4.956  18.026  0.00  0.00    +0.000 S 
ATOM      9  O   UNL     1       4.929   4.359  19.137  0.00  0.00    +0.000 OA
ATOM     10  O   UNL     1       3.430   4.142  17.127  0.00  0.00    +0.000 OA
BRANCH   8  11
ATOM     11  N   UNL     1       5.339   5.828  17.091  0.00  0.00    +0.000 NA
ATOM     12  C   UNL     1       5.560   5.387  15.677  0.00  0.00    +0.000 C 
ATOM     13  C   UNL     1       6.510   4.190  15.585  0.00  0.00    +0.000 C 
ATOM     14  O   UNL     1       7.758   4.455  16.239  0.00  0.00    +0.000 OA
ATOM     15  C   UNL     1       7.560   4.790  17.621  0.00  0.00    +0.000 C 
ATOM     16  C   UNL     1       6.664   6.027  17.767  0.00  0.00    +0.000 C 
ENDBRANCH   8  11
ENDBRANCH   4   8
BRANCH   7  17
ATOM     17  O   UNL     1       0.824   9.238  20.365  0.00  0.00    +0.000 OA
BRANCH  17  18
ATOM     18  C   UNL     1       0.602   9.161  21.777  0.00  0.00    +0.000 C 
BRANCH  18  19
ATOM     19  C   UNL     1      -0.159  10.362  22.327  0.00  0.00    +0.000 C 
ATOM     20  O   UNL     1      -0.346  10.518  23.531  0.00  0.00    +0.000 OA
ATOM     21  N   UNL     1      -0.611  11.229  21.367  0.00  0.00    +0.000 N 
ATOM     22  H   UNL     1      -0.423  10.993  20.399  0.00  0.00    +0.000 HD
BRANCH  21  23
ATOM     23  C   UNL     1      -1.298  12.452  21.682  0.00  0.00    +0.000 C 
BRANCH  23  24
ATOM     24  C   UNL     1      -2.637  12.494  21.004  0.00  0.00    +0.000 A 
ATOM     25  C   UNL     1      -2.778  12.076  19.679  0.00  0.00    +0.000 A 
ATOM     26  C   UNL     1      -4.033  12.136  19.095  0.00  0.00    +0.000 A 
ATOM     27  N   UNL     1      -5.135  12.594  19.729  0.00  0.00    +0.000 NA
ATOM     28  C   UNL     1      -4.972  13.013  21.001  0.00  0.00    +0.000 A 
ATOM     29  C   UNL     1      -3.760  12.989  21.672  0.00  0.00    +0.000 A 
ENDBRANCH  23  24
ENDBRANCH  21  23
ENDBRANCH  18  19
ENDBRANCH  17  18
ENDBRANCH   7  17
TORSDOF 7
ENDMDL
MODEL 6
REMARK VINA RESULT:      -7.5      2.982      9.997
REMARK  Name = 
REMARK  8 active torsions:
REMARK  status: ('A' for Active; 'I' for Inactive)
REMARK    1  A    between atoms: C_1  and  C_2
REMARK    2  A    between atoms: C_4  and  S_5
REMARK    3  A    between atoms: S_5  and  N_8
REMARK    4  A    between atoms: C_16  and  O_17
REMARK    5  A    between atoms: O_17  and  C_18
REMARK    6  A    between atoms: C_18  and  C_19
REMARK    7  A    between atoms: N_21  and  C_22
REMARK    8  A    between atoms: C_22  and  C_23
REMARK                            x       y       z     vdW  Elec       q    Type
REMARK                         _______ _______ _______ _____ _____    ______ ____
ROOT
ATOM      1  C   UNL     1       3.187   7.591  17.589  0.00  0.00    +0.000 C 
ATOM      2  C   UNL     1       2.302   8.132  18.680  0.00  0.00    +0.000 A 
ATOM      3  C   UNL     1       1.684   9.384  18.503  0.00  0.00    +0.000 A 
ATOM      4  C   UNL     1       0.848   9.900  19.499  0.00  0.00    +0.000 A 
ATOM      5  C   UNL     1       0.631   9.193  20.678  0.00  0.00    +0.000 A 
ATOM      6  C   UNL     1       1.248   7.959  20.864  0.00  0.00    +0.000 A 
ATOM      7  C   UNL     1       2.062   7.407  19.866  0.00  0.00    +0.000 A 
ENDROOT
BRANCH   4   8
ATOM      8  S   UNL     1       0.018  11.447  19.256  0.00  0.00    +0.000 S 
ATOM      9  O   UNL     1       0.988  12.367  18.698  0.00  0.00    +0.000 OA
ATOM     10  O   UNL     1      -1.229  11.182  18.576  0.00  0.00    +0.000 OA
BRANCH   8  11
ATOM     11  N   UNL     1      -0.351  11.968  20.833  0.00  0.00    +0.000 NA
ATOM     12  C   UNL     1      -1.795  12.059  21.218  0.00  0.00    +0.000 C 
ATOM     13  C   UNL     1      -2.452  13.345  20.708  0.00  0.00    +0.000 C 
ATOM     14  O   UNL     1      -1.734  14.510  21.138  0.00  0.00    +0.000 OA
ATOM     15  C   UNL     1      -0.370  14.473  20.695  0.00  0.00    +0.000 C 
ATOM     16  C   UNL     1       0.354  13.233  21.233  0.00  0.00    +0.000 C 
ENDBRANCH   8  11
ENDBRANCH   4   8
BRANCH   7  17
ATOM     17  O   UNL     1       2.648   6.167  19.978  0.00  0.00    +0.000 OA
BRANCH  17  18
ATOM     18  C   UNL     1       1.765   5.059  19.771  0.00  0.00    +0.000 C 
BRANCH  18  19
ATOM     19  C   UNL     1       2.125   4.232  18.542  0.00  0.00    +0.000 C 
ATOM     20  O   UNL     1       1.267   3.708  17.835  0.00  0.00    +0.000 OA
ATOM     21  N   UNL     1       3.472   4.126  18.310  0.00  0.00    +0.000 N 
ATOM     22  H   UNL     1       4.096   4.577  18.969  0.00  0.00    +0.000 HD
BRANCH  21  23
ATOM     23  C   UNL     1       4.015   3.439  17.170  0.00  0.00    +0.000 C 
BRANCH  23  24
ATOM     24  C   UNL     1       5.192   4.187  16.616  0.00  0.00    +0.000 A 
ATOM     25  C   UNL     1       5.461   4.180  15.245  0.00  0.00    +0.000 A 
ATOM     26  C   UNL     1       6.562   4.882  14.782  0.00  0.00    +0.000 A 
ATOM     27  N   UNL     1       7.407   5.567  15.583  0.00  0.00    +0.000 NA
ATOM     28  C   UNL     1       7.142   5.544  16.905  0.00  0.00    +0.000 A 
ATOM     29  C   UNL     1       6.066   4.874  17.464  0.00  0.00    +0.000 A 
ENDBRANCH  23  24
ENDBRANCH  21  23
ENDBRANCH  18  19
ENDBRANCH  17  18
ENDBRANCH   7  17
TORSDOF 7
ENDMDL
MODEL 7
REMARK VINA RESULT:      -7.5      1.560      2.326
REMARK  Name = 
REMARK  8 active torsions:
REMARK  status: ('A' for Active; 'I' for Inactive)
REMARK    1  A    between atoms: C_1  and  C_2
REMARK    2  A    between atoms: C_4  and  S_5
REMARK    3  A    between atoms: S_5  and  N_8
REMARK    4  A    between atoms: C_16  and  O_17
REMARK    5  A    between atoms: O_17  and  C_18
REMARK    6  A    between atoms: C_18  and  C_19
REMARK    7  A    between atoms: N_21  and  C_22
REMARK    8  A    between atoms: C_22  and  C_23
REMARK                            x       y       z     vdW  Elec       q    Type
REMARK                         _______ _______ _______ _____ _____    ______ ____
ROOT
ATOM      1  C   UNL     1       0.905   8.241  21.404  0.00  0.00    +0.000 C 
ATOM      2  C   UNL     1       1.590   8.163  20.066  0.00  0.00    +0.000 A 
ATOM      3  C   UNL     1       2.418   7.061  19.783  0.00  0.00    +0.000 A 
ATOM      4  C   UNL     1       3.054   6.963  18.541  0.00  0.00    +0.000 A 
ATOM      5  C   UNL     1       2.890   7.957  17.580  0.00  0.00    +0.000 A 
ATOM      6  C   UNL     1       2.081   9.055  17.857  0.00  0.00    +0.000 A 
ATOM      7  C   UNL     1       1.406   9.157  19.081  0.00  0.00    +0.000 A 
ENDROOT
BRANCH   4   8
ATOM      8  S   UNL     1       4.049   5.548  18.156  0.00  0.00    +0.000 S 
ATOM      9  O   UNL     1       4.736   5.167  19.373  0.00  0.00    +0.000 OA
ATOM     10  O   UNL     1       3.220   4.600  17.446  0.00  0.00    +0.000 OA
BRANCH   8  11
ATOM     11  N   UNL     1       5.210   6.144  17.064  0.00  0.00    +0.000 NA
ATOM     12  C   UNL     1       5.396   5.408  15.773  0.00  0.00    +0.000 C 
ATOM     13  C   UNL     1       6.279   4.168  15.935  0.00  0.00    +0.000 C 
ATOM     14  O   UNL     1       7.545   4.495  16.524  0.00  0.00    +0.000 OA
ATOM     15  C   UNL     1       7.376   5.120  17.805  0.00  0.00    +0.000 C 
ATOM     16  C   UNL     1       6.549   6.407  17.688  0.00  0.00    +0.000 C 
ENDBRANCH   8  11
ENDBRANCH   4   8
BRANCH   7  17
ATOM     17  O   UNL     1       0.552  10.193  19.382  0.00  0.00    +0.000 OA
BRANCH  17  18
ATOM     18  C   UNL     1      -0.668  10.209  18.631  0.00  0.00    +0.000 C 
BRANCH  18  19
ATOM     19  C   UNL     1      -1.389  11.550  18.697  0.00  0.00    +0.000 C 
ATOM     20  O   UNL     1      -1.813  12.112  17.689  0.00  0.00    +0.000 OA
ATOM     21  N   UNL     1      -1.512  12.062  19.962  0.00  0.00    +0.000 N 
ATOM     22  H   UNL     1      -1.106  11.529  20.723  0.00  0.00    +0.000 HD
BRANCH  21  23
ATOM     23  C   UNL     1      -2.212  13.286  20.244  0.00  0.00    +0.000 C 
BRANCH  23  24
ATOM     24  C   UNL     1      -3.491  13.004  20.977  0.00  0.00    +0.000 A 
ATOM     25  C   UNL     1      -3.542  13.064  22.371  0.00  0.00    +0.000 A 
ATOM     26  C   UNL     1      -4.745  12.793  23.003  0.00  0.00    +0.000 A 
ATOM     27  N   UNL     1      -5.877  12.455  22.348  0.00  0.00    +0.000 NA
ATOM     28  C   UNL     1      -5.801  12.382  21.003  0.00  0.00    +0.000 A 
ATOM     29  C   UNL     1      -4.647  12.637  20.281  0.00  0.00    +0.000 A 
ENDBRANCH  23  24
ENDBRANCH  21  23
ENDBRANCH  18  19
ENDBRANCH  17  18
ENDBRANCH   7  17
TORSDOF 7
ENDMDL
MODEL 8
REMARK VINA RESULT:      -7.5      3.418      9.922
REMARK  Name = 
REMARK  8 active torsions:
REMARK  status: ('A' for Active; 'I' for Inactive)
REMARK    1  A    between atoms: C_1  and  C_2
REMARK    2  A    between atoms: C_4  and  S_5
REMARK    3  A    between atoms: S_5  and  N_8
REMARK    4  A    between atoms: C_16  and  O_17
REMARK    5  A    between atoms: O_17  and  C_18
REMARK    6  A    between atoms: C_18  and  C_19
REMARK    7  A    between atoms: N_21  and  C_22
REMARK    8  A    between atoms: C_22  and  C_23
REMARK                            x       y       z     vdW  Elec       q    Type
REMARK                         _______ _______ _______ _____ _____    ______ ____
ROOT
ATOM      1  C   UNL     1       2.802   8.002  17.619  0.00  0.00    +0.000 C 
ATOM      2  C   UNL     1       1.989   8.354  18.836  0.00  0.00    +0.000 A 
ATOM      3  C   UNL     1       1.203   9.521  18.822  0.00  0.00    +0.000 A 
ATOM      4  C   UNL     1       0.431   9.859  19.938  0.00  0.00    +0.000 A 
ATOM      5  C   UNL     1       0.444   9.060  21.077  0.00  0.00    +0.000 A 
ATOM      6  C   UNL     1       1.228   7.910  21.102  0.00  0.00    +0.000 A 
ATOM      7  C   UNL     1       1.982   7.532  19.983  0.00  0.00    +0.000 A 
ENDROOT
BRANCH   4   8
ATOM      8  S   UNL     1      -0.609  11.294  19.903  0.00  0.00    +0.000 S 
ATOM      9  O   UNL     1      -1.534  11.121  18.802  0.00  0.00    +0.000 OA
ATOM     10  O   UNL     1      -1.091  11.529  21.245  0.00  0.00    +0.000 OA
BRANCH   8  11
ATOM     11  N   UNL     1       0.451  12.563  19.502  0.00  0.00    +0.000 NA
ATOM     12  C   UNL     1       1.380  13.059  20.567  0.00  0.00    +0.000 C 
ATOM     13  C   UNL     1       0.690  14.026  21.533  0.00  0.00    +0.000 C 
ATOM     14  O   UNL     1       0.081  15.121  20.836  0.00  0.00    +0.000 OA
ATOM     15  C   UNL     1      -0.879  14.656  19.876  0.00  0.00    +0.000 C 
ATOM     16  C   UNL     1      -0.224  13.731  18.843  0.00  0.00    +0.000 C 
ENDBRANCH   8  11
ENDBRANCH   4   8
BRANCH   7  17
ATOM     17  O   UNL     1       2.728   6.378  19.938  0.00  0.00    +0.000 OA
BRANCH  17  18
ATOM     18  C   UNL     1       1.970   5.164  20.005  0.00  0.00    +0.000 C 
BRANCH  18  19
ATOM     19  C   UNL     1       2.437   4.115  19.002  0.00  0.00    +0.000 C 
ATOM     20  O   UNL     1       1.963   2.982  18.978  0.00  0.00    +0.000 OA
ATOM     21  N   UNL     1       3.422   4.547  18.153  0.00  0.00    +0.000 N 
ATOM     22  H   UNL     1       3.760   5.495  18.274  0.00  0.00    +0.000 HD
BRANCH  21  23
ATOM     23  C   UNL     1       3.955   3.729  17.098  0.00  0.00    +0.000 C 
BRANCH  23  24
ATOM     24  C   UNL     1       5.186   4.359  16.514  0.00  0.00    +0.000 A 
ATOM     25  C   UNL     1       5.657   3.973  15.257  0.00  0.00    +0.000 A 
ATOM     26  C   UNL     1       6.799   4.581  14.762  0.00  0.00    +0.000 A 
ATOM     27  N   UNL     1       7.501   5.520  15.433  0.00  0.00    +0.000 NA
ATOM     28  C   UNL     1       7.043   5.863  16.654  0.00  0.00    +0.000 A 
ATOM     29  C   UNL     1       5.909   5.315  17.233  0.00  0.00    +0.000 A 
ENDBRANCH  23  24
ENDBRANCH  21  23
ENDBRANCH  18  19
ENDBRANCH  17  18
ENDBRANCH   7  17
TORSDOF 7
ENDMDL
MODEL 9
REMARK VINA RESULT:      -7.5      1.284      1.665
REMARK  Name = 
REMARK  8 active torsions:
REMARK  status: ('A' for Active; 'I' for Inactive)
REMARK    1  A    between atoms: C_1  and  C_2
REMARK    2  A    between atoms: C_4  and  S_5
REMARK    3  A    between atoms: S_5  and  N_8
REMARK    4  A    between atoms: C_16  and  O_17
REMARK    5  A    between atoms: O_17  and  C_18
REMARK    6  A    between atoms: C_18  and  C_19
REMARK    7  A    between atoms: N_21  and  C_22
REMARK    8  A    between atoms: C_22  and  C_23
REMARK                            x       y       z     vdW  Elec       q    Type
REMARK                         _______ _______ _______ _____ _____    ______ ____
ROOT
ATOM      1  C   UNL     1       1.894   9.675  17.927  0.00  0.00    +0.000 C 
ATOM      2  C   UNL     1       2.124   8.376  18.652  0.00  0.00    +0.000 A 
ATOM      3  C   UNL     1       2.924   7.387  18.050  0.00  0.00    +0.000 A 
ATOM      4  C   UNL     1       3.160   6.178  18.711  0.00  0.00    +0.000 A 
ATOM      5  C   UNL     1       2.595   5.931  19.959  0.00  0.00    +0.000 A 
ATOM      6  C   UNL     1       1.793   6.899  20.555  0.00  0.00    +0.000 A 
ATOM      7  C   UNL     1       1.572   8.133  19.927  0.00  0.00    +0.000 A 
ENDROOT
BRANCH   4   8
ATOM      8  S   UNL     1       4.218   4.954  17.987  0.00  0.00    +0.000 S 
ATOM      9  O   UNL     1       4.850   4.240  19.078  0.00  0.00    +0.000 OA
ATOM     10  O   UNL     1       3.460   4.248  16.980  0.00  0.00    +0.000 OA
BRANCH   8  11
ATOM     11  N   UNL     1       5.417   5.864  17.193  0.00  0.00    +0.000 NA
ATOM     12  C   UNL     1       5.702   5.541  15.759  0.00  0.00    +0.000 C 
ATOM     13  C   UNL     1       6.617   4.323  15.609  0.00  0.00    +0.000 C 
ATOM     14  O   UNL     1       7.835   4.485  16.347  0.00  0.00    +0.000 OA
ATOM     15  C   UNL     1       7.573   4.704  17.741  0.00  0.00    +0.000 C 
ATOM     16  C   UNL     1       6.710   5.955  17.951  0.00  0.00    +0.000 C 
ENDBRANCH   8  11
ENDBRANCH   4   8
BRANCH   7  17
ATOM     17  O   UNL     1       0.834   9.143  20.499  0.00  0.00    +0.000 OA
BRANCH  17  18
ATOM     18  C   UNL     1      -0.036   8.731  21.560  0.00  0.00    +0.000 C 
BRANCH  18  19
ATOM     19  C   UNL     1      -0.222   9.804  22.627  0.00  0.00    +0.000 C 
ATOM     20  O   UNL     1       0.338   9.739  23.719  0.00  0.00    +0.000 OA
ATOM     21  N   UNL     1      -1.062  10.822  22.262  0.00  0.00    +0.000 N 
ATOM     22  H   UNL     1      -1.492  10.767  21.345  0.00  0.00    +0.000 HD
BRANCH  21  23
ATOM     23  C   UNL     1      -1.322  11.959  23.103  0.00  0.00    +0.000 C 
BRANCH  23  24
ATOM     24  C   UNL     1      -1.569  13.184  22.272  0.00  0.00    +0.000 A 
ATOM     25  C   UNL     1      -0.891  13.376  21.066  0.00  0.00    +0.000 A 
ATOM     26  C   UNL     1      -1.151  14.524  20.335  0.00  0.00    +0.000 A 
ATOM     27  N   UNL     1      -2.015  15.486  20.729  0.00  0.00    +0.000 NA
ATOM     28  C   UNL     1      -2.643  15.291  21.907  0.00  0.00    +0.000 A 
ATOM     29  C   UNL     1      -2.453  14.176  22.707  0.00  0.00    +0.000 A 
ENDBRANCH  23  24
ENDBRANCH  21  23
ENDBRANCH  18  19
ENDBRANCH  17  18
ENDBRANCH   7  17
TORSDOF 7
ENDMDL
