MODEL 1
REMARK VINA RESULT:      -7.8      0.000      0.000
REMARK  Name = 
REMARK  5 active torsions:
REMARK  status: ('A' for Active; 'I' for Inactive)
REMARK    1  A    between atoms: C_1  and  C_2
REMARK    2  A    between atoms: C_8  and  C_9
REMARK    3  A    between atoms: N_11  and  C_12
REMARK    4  A    between atoms: C_15  and  C_16
REMARK    5  A    between atoms: C_16  and  N_17
REMARK                            x       y       z     vdW  Elec       q    Type
REMARK                         _______ _______ _______ _____ _____    ______ ____
ROOT
ATOM      1  C   UNL     1       7.827   8.057  17.803  0.00  0.00    +0.000 A 
ATOM      2  C   UNL     1       6.654   7.735  17.116  0.00  0.00    +0.000 A 
ATOM      3  C   UNL     1       5.956   6.555  17.385  0.00  0.00    +0.000 A 
ATOM      4  C   UNL     1       6.427   5.648  18.332  0.00  0.00    +0.000 A 
ATOM      5  C   UNL     1       7.628   5.939  18.994  0.00  0.00    +0.000 A 
ATOM      6  C   UNL     1       8.321   7.134  18.732  0.00  0.00    +0.000 A 
ENDROOT
BRANCH   1   9
ATOM      7  C   UNL     1       8.996  10.101  18.616  0.00  0.00    +0.000 C 
ATOM      8  O   UNL     1       8.902   9.878  19.821  0.00  0.00    +0.000 OA
ATOM      9  N   UNL     1       8.532   9.277  17.602  0.00  0.00    +0.000 N 
ATOM     10  H   UNL     1       8.820   9.478  16.656  0.00  0.00    +0.000 HD
BRANCH   7  18
ATOM     11  C   UNL     1       7.748  12.621  17.265  0.00  0.00    +0.000 C 
ATOM     12  C   UNL     1       9.187  12.501  17.679  0.00  0.00    +0.000 A 
ATOM     13  C   UNL     1      10.013  13.637  17.528  0.00  0.00    +0.000 A 
ATOM     14  C   UNL     1      11.346  13.627  17.947  0.00  0.00    +0.000 A 
ATOM     15 CL   UNL     1      12.306  15.046  17.800  0.00  0.00    +0.000 Cl
ATOM     16  C   UNL     1      11.896  12.481  18.503  0.00  0.00    +0.000 A 
ATOM     17  C   UNL     1      11.099  11.345  18.647  0.00  0.00    +0.000 A 
ATOM     18  C   UNL     1       9.746  11.338  18.244  0.00  0.00    +0.000 A 
ENDBRANCH   7  18
ENDBRANCH   1   9
BRANCH   4  19
ATOM     19  C   UNL     1       5.655   4.376  18.602  0.00  0.00    +0.000 C 
BRANCH  19  20
ATOM     20  N   UNL     1       4.229   4.612  18.733  0.00  0.00    +0.000 N 
ATOM     21  C   UNL     1       3.672   5.539  19.688  0.00  0.00    +0.000 C 
ATOM     22  C   UNL     1       2.179   5.307  19.567  0.00  0.00    +0.000 C 
ATOM     23  C   UNL     1       1.995   4.895  18.112  0.00  0.00    +0.000 C 
ATOM     24  C   UNL     1       3.309   4.236  17.770  0.00  0.00    +0.000 C 
ATOM     25  O   UNL     1       3.519   3.548  16.786  0.00  0.00    +0.000 OA
ENDBRANCH  19  20
ENDBRANCH   4  19
TORSDOF 4
ENDMDL
MODEL 2
REMARK VINA RESULT:      -7.8      0.263      1.013
REMARK  Name = 
REMARK  5 active torsions:
REMARK  status: ('A' for Active; 'I' for Inactive)
REMARK    1  A    between atoms: C_1  and  C_2
REMARK    2  A    between atoms: C_8  and  C_9
REMARK    3  A    between atoms: N_11  and  C_12
REMARK    4  A    between atoms: C_15  and  C_16
REMARK    5  A    between atoms: C_16  and  N_17
REMARK                            x       y       z     vdW  Elec       q    Type
REMARK                         _______ _______ _______ _____ _____    ______ ____
ROOT
ATOM      1  C   UNL     1       7.841   8.094  17.850  0.00  0.00    +0.000 A 
ATOM      2  C   UNL     1       8.339   7.133  18.733  0.00  0.00    +0.000 A 
ATOM      3  C   UNL     1       7.664   5.929  18.953  0.00  0.00    +0.000 A 
ATOM      4  C   UNL     1       6.454   5.664  18.315  0.00  0.00    +0.000 A 
ATOM      5  C   UNL     1       5.921   6.641  17.462  0.00  0.00    +0.000 A 
ATOM      6  C   UNL     1       6.611   7.845  17.231  0.00  0.00    +0.000 A 
ENDROOT
BRANCH   1   9
ATOM      7  C   UNL     1       8.969  10.219  18.495  0.00  0.00    +0.000 C 
ATOM      8  O   UNL     1       8.862  10.100  19.714  0.00  0.00    +0.000 OA
ATOM      9  N   UNL     1       8.530   9.302  17.552  0.00  0.00    +0.000 N 
ATOM     10  H   UNL     1       8.828   9.425  16.594  0.00  0.00    +0.000 HD
BRANCH   7  18
ATOM     11  C   UNL     1       7.637  12.828  17.422  0.00  0.00    +0.000 C 
ATOM     12  C   UNL     1       9.117  12.632  17.584  0.00  0.00    +0.000 A 
ATOM     13  C   UNL     1       9.961  13.734  17.319  0.00  0.00    +0.000 A 
ATOM     14  C   UNL     1      11.343  13.652  17.506  0.00  0.00    +0.000 A 
ATOM     15 CL   UNL     1      12.333  15.030  17.226  0.00  0.00    +0.000 Cl
ATOM     16  C   UNL     1      11.921  12.468  17.939  0.00  0.00    +0.000 A 
ATOM     17  C   UNL     1      11.105  11.366  18.194  0.00  0.00    +0.000 A 
ATOM     18  C   UNL     1       9.706  11.431  18.025  0.00  0.00    +0.000 A 
ENDBRANCH   7  18
ENDBRANCH   1   9
BRANCH   4  19
ATOM     19  C   UNL     1       5.741   4.356  18.572  0.00  0.00    +0.000 C 
BRANCH  19  20
ATOM     20  N   UNL     1       4.303   4.523  18.684  0.00  0.00    +0.000 N 
ATOM     21  C   UNL     1       3.686   5.339  19.701  0.00  0.00    +0.000 C 
ATOM     22  C   UNL     1       2.207   5.060  19.520  0.00  0.00    +0.000 C 
ATOM     23  C   UNL     1       2.075   4.771  18.029  0.00  0.00    +0.000 C 
ATOM     24  C   UNL     1       3.423   4.198  17.667  0.00  0.00    +0.000 C 
ATOM     25  O   UNL     1       3.684   3.609  16.632  0.00  0.00    +0.000 OA
ENDBRANCH  19  20
ENDBRANCH   4  19
TORSDOF 4
ENDMDL
MODEL 3
REMARK VINA RESULT:      -7.6      6.803      8.910
REMARK  Name = 
REMARK  5 active torsions:
REMARK  status: ('A' for Active; 'I' for Inactive)
REMARK    1  A    between atoms: C_1  and  C_2
REMARK    2  A    between atoms: C_8  and  C_9
REMARK    3  A    between atoms: N_11  and  C_12
REMARK    4  A    between atoms: C_15  and  C_16
REMARK    5  A    between atoms: C_16  and  N_17
REMARK                            x       y       z     vdW  Elec       q    Type
REMARK                         _______ _______ _______ _____ _____    ______ ____
ROOT
ATOM      1  C   UNL     1       1.052   8.783  19.718  0.00  0.00    +0.000 A 
ATOM      2  C   UNL     1       1.641   8.982  18.467  0.00  0.00    +0.000 A 
ATOM      3  C   UNL     1       2.561   8.069  17.945  0.00  0.00    +0.000 A 
ATOM      4  C   UNL     1       2.939   6.942  18.673  0.00  0.00    +0.000 A 
ATOM      5  C   UNL     1       2.390   6.758  19.950  0.00  0.00    +0.000 A 
ATOM      6  C   UNL     1       1.453   7.671  20.466  0.00  0.00    +0.000 A 
ENDROOT
BRANCH   1   9
ATOM      7  C   UNL     1       0.332  10.756  21.058  0.00  0.00    +0.000 C 
ATOM      8  O   UNL     1       1.449  11.154  21.383  0.00  0.00    +0.000 OA
ATOM      9  N   UNL     1       0.066   9.656  20.256  0.00  0.00    +0.000 N 
ATOM     10  H   UNL     1      -0.878   9.532  19.917  0.00  0.00    +0.000 HD
BRANCH   7  18
ATOM     11  C   UNL     1      -1.165  12.873  19.323  0.00  0.00    +0.000 C 
ATOM     12  C   UNL     1      -1.529  12.519  20.737  0.00  0.00    +0.000 A 
ATOM     13  C   UNL     1      -2.682  13.120  21.290  0.00  0.00    +0.000 A 
ATOM     14  C   UNL     1      -3.124  12.796  22.575  0.00  0.00    +0.000 A 
ATOM     15 CL   UNL     1      -4.563  13.505  23.195  0.00  0.00    +0.000 Cl
ATOM     16  C   UNL     1      -2.417  11.887  23.349  0.00  0.00    +0.000 A 
ATOM     17  C   UNL     1      -1.270  11.294  22.824  0.00  0.00    +0.000 A 
ATOM     18  C   UNL     1      -0.814  11.595  21.523  0.00  0.00    +0.000 A 
ENDBRANCH   7  18
ENDBRANCH   1   9
BRANCH   4  19
ATOM     19  C   UNL     1       3.939   5.971  18.088  0.00  0.00    +0.000 C 
BRANCH  19  20
ATOM     20  N   UNL     1       3.502   4.592  18.201  0.00  0.00    +0.000 N 
ATOM     21  C   UNL     1       2.388   4.059  17.456  0.00  0.00    +0.000 C 
ATOM     22  C   UNL     1       2.216   2.668  18.034  0.00  0.00    +0.000 C 
ATOM     23  C   UNL     1       3.630   2.272  18.445  0.00  0.00    +0.000 C 
ATOM     24  C   UNL     1       4.281   3.595  18.764  0.00  0.00    +0.000 C 
ATOM     25  O   UNL     1       5.335   3.738  19.360  0.00  0.00    +0.000 OA
ENDBRANCH  19  20
ENDBRANCH   4  19
TORSDOF 4
ENDMDL
MODEL 4
REMARK VINA RESULT:      -7.6      6.193      8.582
REMARK  Name = 
REMARK  5 active torsions:
REMARK  status: ('A' for Active; 'I' for Inactive)
REMARK    1  A    between atoms: C_1  and  C_2
REMARK    2  A    between atoms: C_8  and  C_9
REMARK    3  A    between atoms: N_11  and  C_12
REMARK    4  A    between atoms: C_15  and  C_16
REMARK    5  A    between atoms: C_16  and  N_17
REMARK                            x       y       z     vdW  Elec       q    Type
REMARK                         _______ _______ _______ _____ _____    ______ ____
ROOT
ATOM      1  C   UNL     1       1.436   8.619  19.551  0.00  0.00    +0.000 A 
ATOM      2  C   UNL     1       1.823   7.434  20.181  0.00  0.00    +0.000 A 
ATOM      3  C   UNL     1       2.629   6.496  19.531  0.00  0.00    +0.000 A 
ATOM      4  C   UNL     1       3.048   6.704  18.219  0.00  0.00    +0.000 A 
ATOM      5  C   UNL     1       2.626   7.868  17.560  0.00  0.00    +0.000 A 
ATOM      6  C   UNL     1       1.828   8.817  18.222  0.00  0.00    +0.000 A 
ENDROOT
BRANCH   1   9
ATOM      7  C   UNL     1       0.812  10.000  21.528  0.00  0.00    +0.000 C 
ATOM      8  O   UNL     1       1.641   9.546  22.316  0.00  0.00    +0.000 OA
ATOM      9  N   UNL     1       0.669   9.626  20.201  0.00  0.00    +0.000 N 
ATOM     10  H   UNL     1       0.074  10.190  19.610  0.00  0.00    +0.000 HD
BRANCH   7  18
ATOM     11  C   UNL     1       0.931  12.979  20.611  0.00  0.00    +0.000 C 
ATOM     12  C   UNL     1      -0.040  12.437  21.620  0.00  0.00    +0.000 A 
ATOM     13  C   UNL     1      -1.026  13.315  22.123  0.00  0.00    +0.000 A 
ATOM     14  C   UNL     1      -2.005  12.872  23.016  0.00  0.00    +0.000 A 
ATOM     15 CL   UNL     1      -3.223  13.955  23.564  0.00  0.00    +0.000 Cl
ATOM     16  C   UNL     1      -2.012  11.554  23.449  0.00  0.00    +0.000 A 
ATOM     17  C   UNL     1      -1.039  10.677  22.973  0.00  0.00    +0.000 A 
ATOM     18  C   UNL     1      -0.050  11.099  22.059  0.00  0.00    +0.000 A 
ENDBRANCH   7  18
ENDBRANCH   1   9
BRANCH   4  19
ATOM     19  C   UNL     1       3.916   5.672  17.535  0.00  0.00    +0.000 C 
BRANCH  19  20
ATOM     20  N   UNL     1       5.326   5.853  17.829  0.00  0.00    +0.000 N 
ATOM     21  C   UNL     1       6.059   7.037  17.451  0.00  0.00    +0.000 C 
ATOM     22  C   UNL     1       7.491   6.687  17.806  0.00  0.00    +0.000 C 
ATOM     23  C   UNL     1       7.347   5.745  18.996  0.00  0.00    +0.000 C 
ATOM     24  C   UNL     1       6.011   5.086  18.756  0.00  0.00    +0.000 C 
ATOM     25  O   UNL     1       5.601   4.091  19.329  0.00  0.00    +0.000 OA
ENDBRANCH  19  20
ENDBRANCH   4  19
TORSDOF 4
ENDMDL
MODEL 5
REMARK VINA RESULT:      -7.5      6.190      8.797
REMARK  Name = 
REMARK  5 active torsions:
REMARK  status: ('A' for Active; 'I' for Inactive)
REMARK    1  A    between atoms: C_1  and  C_2
REMARK    2  A    between atoms: C_8  and  C_9
REMARK    3  A    between atoms: N_11  and  C_12
REMARK    4  A    between atoms: C_15  and  C_16
REMARK    5  A    between atoms: C_16  and  N_17
REMARK                            x       y       z     vdW  Elec       q    Type
REMARK                         _______ _______ _______ _____ _____    ______ ____
ROOT
ATOM      1  C   UNL     1       1.573   8.746  19.712  0.00  0.00    +0.000 A 
ATOM      2  C   UNL     1       1.869   7.500  20.270  0.00  0.00    +0.000 A 
ATOM      3  C   UNL     1       2.600   6.543  19.562  0.00  0.00    +0.000 A 
ATOM      4  C   UNL     1       3.033   6.795  18.262  0.00  0.00    +0.000 A 
ATOM      5  C   UNL     1       2.701   8.024  17.675  0.00  0.00    +0.000 A 
ATOM      6  C   UNL     1       1.979   8.992  18.396  0.00  0.00    +0.000 A 
ENDROOT
BRANCH   1   9
ATOM      7  C   UNL     1      -0.349  10.289  20.071  0.00  0.00    +0.000 C 
ATOM      8  O   UNL     1      -1.040   9.916  19.125  0.00  0.00    +0.000 OA
ATOM      9  N   UNL     1       0.887   9.769  20.424  0.00  0.00    +0.000 N 
ATOM     10  H   UNL     1       1.277  10.034  21.317  0.00  0.00    +0.000 HD
BRANCH   7  18
ATOM     11  C   UNL     1      -0.684  10.095  23.166  0.00  0.00    +0.000 C 
ATOM     12  C   UNL     1      -1.069  11.290  22.341  0.00  0.00    +0.000 A 
ATOM     13  C   UNL     1      -1.531  12.439  23.021  0.00  0.00    +0.000 A 
ATOM     14  C   UNL     1      -1.849  13.611  22.332  0.00  0.00    +0.000 A 
ATOM     15 CL   UNL     1      -2.356  15.009  23.198  0.00  0.00    +0.000 Cl
ATOM     16  C   UNL     1      -1.739  13.663  20.950  0.00  0.00    +0.000 A 
ATOM     17  C   UNL     1      -1.296  12.534  20.261  0.00  0.00    +0.000 A 
ATOM     18  C   UNL     1      -0.956  11.344  20.938  0.00  0.00    +0.000 A 
ENDBRANCH   7  18
ENDBRANCH   1   9
BRANCH   4  19
ATOM     19  C   UNL     1       3.819   5.741  17.515  0.00  0.00    +0.000 C 
BRANCH  19  20
ATOM     20  N   UNL     1       5.251   5.875  17.714  0.00  0.00    +0.000 N 
ATOM     21  C   UNL     1       6.012   6.990  17.205  0.00  0.00    +0.000 C 
ATOM     22  C   UNL     1       7.446   6.597  17.505  0.00  0.00    +0.000 C 
ATOM     23  C   UNL     1       7.331   5.755  18.770  0.00  0.00    +0.000 C 
ATOM     24  C   UNL     1       5.955   5.146  18.657  0.00  0.00    +0.000 C 
ATOM     25  O   UNL     1       5.536   4.218  19.328  0.00  0.00    +0.000 OA
ENDBRANCH  19  20
ENDBRANCH   4  19
TORSDOF 4
ENDMDL
MODEL 6
REMARK VINA RESULT:      -7.5      6.610      8.592
REMARK  Name = 
REMARK  5 active torsions:
REMARK  status: ('A' for Active; 'I' for Inactive)
REMARK    1  A    between atoms: C_1  and  C_2
REMARK    2  A    between atoms: C_8  and  C_9
REMARK    3  A    between atoms: N_11  and  C_12
REMARK    4  A    between atoms: C_15  and  C_16
REMARK    5  A    between atoms: C_16  and  N_17
REMARK                            x       y       z     vdW  Elec       q    Type
REMARK                         _______ _______ _______ _____ _____    ______ ____
ROOT
ATOM      1  C   UNL     1       1.580   8.830  19.695  0.00  0.00    +0.000 A 
ATOM      2  C   UNL     1       1.823   7.593  20.298  0.00  0.00    +0.000 A 
ATOM      3  C   UNL     1       2.517   6.583  19.627  0.00  0.00    +0.000 A 
ATOM      4  C   UNL     1       2.965   6.772  18.321  0.00  0.00    +0.000 A 
ATOM      5  C   UNL     1       2.686   7.992  17.690  0.00  0.00    +0.000 A 
ATOM      6  C   UNL     1       2.000   9.013  18.373  0.00  0.00    +0.000 A 
ENDROOT
BRANCH   1   9
ATOM      7  C   UNL     1      -0.349  10.355  20.093  0.00  0.00    +0.000 C 
ATOM      8  O   UNL     1      -1.118   9.869  19.266  0.00  0.00    +0.000 OA
ATOM      9  N   UNL     1       0.934   9.904  20.368  0.00  0.00    +0.000 N 
ATOM     10  H   UNL     1       1.401  10.270  21.185  0.00  0.00    +0.000 HD
BRANCH   7  18
ATOM     11  C   UNL     1      -0.867  10.258  23.168  0.00  0.00    +0.000 C 
ATOM     12  C   UNL     1      -1.095  11.465  22.304  0.00  0.00    +0.000 A 
ATOM     13  C   UNL     1      -1.485  12.666  22.938  0.00  0.00    +0.000 A 
ATOM     14  C   UNL     1      -1.656  13.847  22.213  0.00  0.00    +0.000 A 
ATOM     15 CL   UNL     1      -2.078  15.303  23.026  0.00  0.00    +0.000 Cl
ATOM     16  C   UNL     1      -1.467  13.859  20.839  0.00  0.00    +0.000 A 
ATOM     17  C   UNL     1      -1.094  12.680  20.194  0.00  0.00    +0.000 A 
ATOM     18  C   UNL     1      -0.902  11.478  20.909  0.00  0.00    +0.000 A 
ENDBRANCH   7  18
ENDBRANCH   1   9
BRANCH   4  19
ATOM     19  C   UNL     1       3.710   5.662  17.615  0.00  0.00    +0.000 C 
BRANCH  19  20
ATOM     20  N   UNL     1       3.283   4.345  18.051  0.00  0.00    +0.000 N 
ATOM     21  C   UNL     1       2.101   3.695  17.539  0.00  0.00    +0.000 C 
ATOM     22  C   UNL     1       1.982   2.456  18.406  0.00  0.00    +0.000 C 
ATOM     23  C   UNL     1       3.428   2.122  18.755  0.00  0.00    +0.000 C 
ATOM     24  C   UNL     1       4.109   3.468  18.732  0.00  0.00    +0.000 C 
ATOM     25  O   UNL     1       5.216   3.707  19.184  0.00  0.00    +0.000 OA
ENDBRANCH  19  20
ENDBRANCH   4  19
TORSDOF 4
ENDMDL
MODEL 7
REMARK VINA RESULT:      -7.5      6.236      8.744
REMARK  Name = 
REMARK  5 active torsions:
REMARK  status: ('A' for Active; 'I' for Inactive)
REMARK    1  A    between atoms: C_1  and  C_2
REMARK    2  A    between atoms: C_8  and  C_9
REMARK    3  A    between atoms: N_11  and  C_12
REMARK    4  A    between atoms: C_15  and  C_16
REMARK    5  A    between atoms: C_16  and  N_17
REMARK                            x       y       z     vdW  Elec       q    Type
REMARK                         _______ _______ _______ _____ _____    ______ ____
ROOT
ATOM      1  C   UNL     1       1.494   8.441  19.433  0.00  0.00    +0.000 A 
ATOM      2  C   UNL     1       1.932   8.717  18.135  0.00  0.00    +0.000 A 
ATOM      3  C   UNL     1       2.817   7.863  17.471  0.00  0.00    +0.000 A 
ATOM      4  C   UNL     1       3.312   6.722  18.098  0.00  0.00    +0.000 A 
ATOM      5  C   UNL     1       2.916   6.461  19.418  0.00  0.00    +0.000 A 
ATOM      6  C   UNL     1       2.014   7.314  20.078  0.00  0.00    +0.000 A 
ENDROOT
BRANCH   1   9
ATOM      7  C   UNL     1       0.624  10.630  20.245  0.00  0.00    +0.000 C 
ATOM      8  O   UNL     1       1.494  11.347  19.754  0.00  0.00    +0.000 OA
ATOM      9  N   UNL     1       0.546   9.251  20.118  0.00  0.00    +0.000 N 
ATOM     10  H   UNL     1      -0.304   8.794  20.415  0.00  0.00    +0.000 HD
BRANCH   7  18
ATOM     11  C   UNL     1      -1.612  12.337  18.897  0.00  0.00    +0.000 C 
ATOM     12  C   UNL     1      -1.511  12.078  20.373  0.00  0.00    +0.000 A 
ATOM     13  C   UNL     1      -2.549  12.564  21.200  0.00  0.00    +0.000 A 
ATOM     14  C   UNL     1      -2.561  12.311  22.574  0.00  0.00    +0.000 A 
ATOM     15 CL   UNL     1      -3.869  12.871  23.541  0.00  0.00    +0.000 Cl
ATOM     16  C   UNL     1      -1.533  11.590  23.162  0.00  0.00    +0.000 A 
ATOM     17  C   UNL     1      -0.494  11.112  22.363  0.00  0.00    +0.000 A 
ATOM     18  C   UNL     1      -0.468  11.344  20.971  0.00  0.00    +0.000 A 
ENDBRANCH   7  18
ENDBRANCH   1   9
BRANCH   4  19
ATOM     19  C   UNL     1       4.272   5.817  17.360  0.00  0.00    +0.000 C 
BRANCH  19  20
ATOM     20  N   UNL     1       5.648   6.011  17.779  0.00  0.00    +0.000 N 
ATOM     21  C   UNL     1       6.395   7.210  17.485  0.00  0.00    +0.000 C 
ATOM     22  C   UNL     1       7.795   6.872  17.960  0.00  0.00    +0.000 C 
ATOM     23  C   UNL     1       7.560   5.909  19.117  0.00  0.00    +0.000 C 
ATOM     24  C   UNL     1       6.259   5.237  18.751  0.00  0.00    +0.000 C 
ATOM     25  O   UNL     1       5.815   4.228  19.270  0.00  0.00    +0.000 OA
ENDBRANCH  19  20
ENDBRANCH   4  19
TORSDOF 4
ENDMDL
MODEL 8
REMARK VINA RESULT:      -7.5      6.051      8.070
REMARK  Name = 
REMARK  5 active torsions:
REMARK  status: ('A' for Active; 'I' for Inactive)
REMARK    1  A    between atoms: C_1  and  C_2
REMARK    2  A    between atoms: C_8  and  C_9
REMARK    3  A    between atoms: N_11  and  C_12
REMARK    4  A    between atoms: C_15  and  C_16
REMARK    5  A    between atoms: C_16  and  N_17
REMARK                            x       y       z     vdW  Elec       q    Type
REMARK                         _______ _______ _______ _____ _____    ______ ____
ROOT
ATOM      1  C   UNL     1       1.960   7.441  19.917  0.00  0.00    +0.000 A 
ATOM      2  C   UNL     1       1.865   6.137  20.407  0.00  0.00    +0.000 A 
ATOM      3  C   UNL     1       2.373   5.052  19.688  0.00  0.00    +0.000 A 
ATOM      4  C   UNL     1       2.968   5.239  18.441  0.00  0.00    +0.000 A 
ATOM      5  C   UNL     1       3.026   6.539  17.919  0.00  0.00    +0.000 A 
ATOM      6  C   UNL     1       2.528   7.630  18.652  0.00  0.00    +0.000 A 
ENDROOT
BRANCH   1   9
ATOM      7  C   UNL     1       0.739   9.602  20.125  0.00  0.00    +0.000 C 
ATOM      8  O   UNL     1       0.299   9.656  18.978  0.00  0.00    +0.000 OA
ATOM      9  N   UNL     1       1.512   8.577  20.648  0.00  0.00    +0.000 N 
ATOM     10  H   UNL     1       1.665   8.558  21.646  0.00  0.00    +0.000 HD
BRANCH   7  18
ATOM     11  C   UNL     1       1.487  12.606  19.739  0.00  0.00    +0.000 C 
ATOM     12  C   UNL     1       0.612  12.081  20.841  0.00  0.00    +0.000 A 
ATOM     13  C   UNL     1       0.013  13.020  21.711  0.00  0.00    +0.000 A 
ATOM     14  C   UNL     1      -0.863  12.618  22.721  0.00  0.00    +0.000 A 
ATOM     15 CL   UNL     1      -1.617  13.793  23.726  0.00  0.00    +0.000 Cl
ATOM     16  C   UNL     1      -1.146  11.273  22.907  0.00  0.00    +0.000 A 
ATOM     17  C   UNL     1      -0.555  10.331  22.067  0.00  0.00    +0.000 A 
ATOM     18  C   UNL     1       0.322  10.716  21.030  0.00  0.00    +0.000 A 
ENDBRANCH   7  18
ENDBRANCH   1   9
BRANCH   4  19
ATOM     19  C   UNL     1       3.506   4.049  17.680  0.00  0.00    +0.000 C 
BRANCH  19  20
ATOM     20  N   UNL     1       4.887   4.232  17.271  0.00  0.00    +0.000 N 
ATOM     21  C   UNL     1       5.261   4.657  15.944  0.00  0.00    +0.000 C 
ATOM     22  C   UNL     1       6.772   4.531  15.953  0.00  0.00    +0.000 C 
ATOM     23  C   UNL     1       7.148   4.804  17.405  0.00  0.00    +0.000 C 
ATOM     24  C   UNL     1       5.934   4.335  18.170  0.00  0.00    +0.000 C 
ATOM     25  O   UNL     1       5.888   4.145  19.373  0.00  0.00    +0.000 OA
ENDBRANCH  19  20
ENDBRANCH   4  19
TORSDOF 4
ENDMDL
MODEL 9
REMARK VINA RESULT:      -7.5      6.374      8.773
REMARK  Name = 
REMARK  5 active torsions:
REMARK  status: ('A' for Active; 'I' for Inactive)
REMARK    1  A    between atoms: C_1  and  C_2
REMARK    2  A    between atoms: C_8  and  C_9
REMARK    3  A    between atoms: N_11  and  C_12
REMARK    4  A    between atoms: C_15  and  C_16
REMARK    5  A    between atoms: C_16  and  N_17
REMARK                            x       y       z     vdW  Elec       q    Type
REMARK                         _______ _______ _______ _____ _____    ______ ____
ROOT
ATOM      1  C   UNL     1       1.466   9.064  19.629  0.00  0.00    +0.000 A 
ATOM      2  C   UNL     1       1.707   7.857  20.289  0.00  0.00    +0.000 A 
ATOM      3  C   UNL     1       2.398   6.814  19.666  0.00  0.00    +0.000 A 
ATOM      4  C   UNL     1       2.844   6.940  18.352  0.00  0.00    +0.000 A 
ATOM      5  C   UNL     1       2.566   8.129  17.664  0.00  0.00    +0.000 A 
ATOM      6  C   UNL     1       1.884   9.183  18.299  0.00  0.00    +0.000 A 
ENDROOT
BRANCH   1   9
ATOM      7  C   UNL     1      -0.492  10.553  20.025  0.00  0.00    +0.000 C 
ATOM      8  O   UNL     1      -1.292   9.973  19.294  0.00  0.00    +0.000 OA
ATOM      9  N   UNL     1       0.822  10.170  20.250  0.00  0.00    +0.000 N 
ATOM     10  H   UNL     1       1.326  10.620  21.001  0.00  0.00    +0.000 HD
BRANCH   7  18
ATOM     11  C   UNL     1      -1.030  10.621  23.097  0.00  0.00    +0.000 C 
ATOM     12  C   UNL     1      -1.237  11.784  22.170  0.00  0.00    +0.000 A 
ATOM     13  C   UNL     1      -1.615  13.021  22.740  0.00  0.00    +0.000 A 
ATOM     14  C   UNL     1      -1.765  14.166  21.954  0.00  0.00    +0.000 A 
ATOM     15 CL   UNL     1      -2.172  15.667  22.689  0.00  0.00    +0.000 Cl
ATOM     16  C   UNL     1      -1.567  14.105  20.583  0.00  0.00    +0.000 A 
ATOM     17  C   UNL     1      -1.206  12.890  20.001  0.00  0.00    +0.000 A 
ATOM     18  C   UNL     1      -1.034  11.724  20.778  0.00  0.00    +0.000 A 
ENDBRANCH   7  18
ENDBRANCH   1   9
BRANCH   4  19
ATOM     19  C   UNL     1       3.586   5.796  17.699  0.00  0.00    +0.000 C 
BRANCH  19  20
ATOM     20  N   UNL     1       5.023   5.894  17.878  0.00  0.00    +0.000 N 
ATOM     21  C   UNL     1       5.721   5.259  18.970  0.00  0.00    +0.000 C 
ATOM     22  C   UNL     1       7.136   5.787  18.831  0.00  0.00    +0.000 C 
ATOM     23  C   UNL     1       7.291   6.011  17.331  0.00  0.00    +0.000 C 
ATOM     24  C   UNL     1       5.883   6.314  16.879  0.00  0.00    +0.000 C 
ATOM     25  O   UNL     1       5.575   6.788  15.799  0.00  0.00    +0.000 OA
ENDBRANCH  19  20
ENDBRANCH   4  19
TORSDOF 4
ENDMDL
