MODEL 1
REMARK VINA RESULT:      -7.6      0.000      0.000
REMARK  Name = 
REMARK  9 active torsions:
REMARK  status: ('A' for Active; 'I' for Inactive)
REMARK    1  A    between atoms: C_1  and  C_2
REMARK    2  A    between atoms: C_2  and  C_3
REMARK    3  A    between atoms: CA_6  and  N_7
REMARK    4  A    between atoms: C_8  and  C_10
REMARK    5  A    between atoms: C_10  and  C_11
REMARK    6  A    between atoms: C_11  and  O_12
REMARK    7  A    between atoms: O_12  and  N_13
REMARK    8  A    between atoms: C_14  and  C_15
REMARK    9  A    between atoms: CA_24  and  C_25
REMARK                            x       y       z     vdW  Elec       q    Type
REMARK                         _______ _______ _______ _____ _____    ______ ____
ROOT
ATOM      1  N   UNL     1       1.713   7.081  20.904  0.00  0.00    +0.000 N 
ATOM      2  C   UNL     1       1.504   8.389  20.537  0.00  0.00    +0.000 C 
ATOM      3  O   UNL     1       1.703   8.800  19.397  0.00  0.00    +0.000 OA
ATOM      4  H   UNL     1       1.463   6.749  21.827  0.00  0.00    +0.000 HD
ENDROOT
BRANCH   1  10
ATOM      5  C   UNL     1       4.357   3.977  16.193  0.00  0.00    +0.000 C 
ATOM      6  C   UNL     1       4.502   4.415  17.649  0.00  0.00    +0.000 C 
ATOM      7  C   UNL     1       5.986   4.326  18.062  0.00  0.00    +0.000 C 
ATOM      8  S   UNL     1       4.005   6.174  17.800  0.00  0.00    +0.000 S 
ATOM      9  C   UNL     1       3.629   5.985  19.570  0.00  0.00    +0.000 C 
ATOM     10  CA  UNL     1       2.141   6.028  19.958  0.00  0.00    +0.000 C 
ATOM     11  C   UNL     1       2.460   4.649  20.619  0.00  0.00    +0.000 C 
ATOM     12  O   UNL     1       2.023   3.941  21.498  0.00  0.00    +0.000 OA
ATOM     13  N   UNL     1       3.610   4.523  19.871  0.00  0.00    +0.000 N 
ATOM     14  CA  UNL     1       3.641   3.657  18.674  0.00  0.00    +0.000 C 
BRANCH  14  15
ATOM     15  C   UNL     1       2.273   3.142  18.118  0.00  0.00    +0.000 C 
ATOM     16  O   UNL     1       1.637   4.025  17.465  0.00  0.00    +0.000 OA
ATOM     17  OXT UNL     1       1.908   1.975  18.398  0.00  0.00    +0.000 OA
ENDBRANCH  14  15
ENDBRANCH   1  10
BRANCH   2  18
ATOM     18  C   UNL     1       1.043   9.343  21.614  0.00  0.00    +0.000 C 
BRANCH  18  19
ATOM     19  C   UNL     1      -0.375   9.819  21.432  0.00  0.00    +0.000 C 
BRANCH  19  20
ATOM     20  O   UNL     1      -0.396  11.169  20.996  0.00  0.00    +0.000 OA
BRANCH  20  21
ATOM     21  N   UNL     1      -1.489  11.273  20.133  0.00  0.00    +0.000 NA
ATOM     22  C   UNL     1      -1.185  10.763  18.991  0.00  0.00    +0.000 C 
BRANCH  22  23
ATOM     23  C   UNL     1      -2.164  10.734  17.899  0.00  0.00    +0.000 A 
ATOM     24  C   UNL     1      -3.291  11.565  17.923  0.00  0.00    +0.000 A 
ATOM     25  C   UNL     1      -4.208  11.515  16.874  0.00  0.00    +0.000 A 
ATOM     26  C   UNL     1      -3.992  10.637  15.811  0.00  0.00    +0.000 A 
ATOM     27  C   UNL     1      -2.866   9.810  15.791  0.00  0.00    +0.000 A 
ATOM     28  C   UNL     1      -1.948   9.854  16.838  0.00  0.00    +0.000 A 
ENDBRANCH  22  23
ENDBRANCH  20  21
ENDBRANCH  19  20
ENDBRANCH  18  19
ENDBRANCH   2  18
TORSDOF 7
ENDMDL
MODEL 2
REMARK VINA RESULT:      -7.6      2.719      3.555
REMARK  Name = 
REMARK  9 active torsions:
REMARK  status: ('A' for Active; 'I' for Inactive)
REMARK    1  A    between atoms: C_1  and  C_2
REMARK    2  A    between atoms: C_2  and  C_3
REMARK    3  A    between atoms: CA_6  and  N_7
REMARK    4  A    between atoms: C_8  and  C_10
REMARK    5  A    between atoms: C_10  and  C_11
REMARK    6  A    between atoms: C_11  and  O_12
REMARK    7  A    between atoms: O_12  and  N_13
REMARK    8  A    between atoms: C_14  and  C_15
REMARK    9  A    between atoms: CA_24  and  C_25
REMARK                            x       y       z     vdW  Elec       q    Type
REMARK                         _______ _______ _______ _____ _____    ______ ____
ROOT
ATOM      1  N   UNL     1       1.808   6.819  21.053  0.00  0.00    +0.000 N 
ATOM      2  C   UNL     1       1.467   8.131  20.824  0.00  0.00    +0.000 C 
ATOM      3  O   UNL     1       1.527   8.650  19.712  0.00  0.00    +0.000 OA
ATOM      4  H   UNL     1       1.671   6.393  21.960  0.00  0.00    +0.000 HD
ENDROOT
BRANCH   1  10
ATOM      5  C   UNL     1       4.404   4.303  15.979  0.00  0.00    +0.000 C 
ATOM      6  C   UNL     1       4.563   4.562  17.475  0.00  0.00    +0.000 C 
ATOM      7  C   UNL     1       6.050   4.422  17.861  0.00  0.00    +0.000 C 
ATOM      8  S   UNL     1       4.071   6.290  17.841  0.00  0.00    +0.000 S 
ATOM      9  C   UNL     1       3.710   5.889  19.580  0.00  0.00    +0.000 C 
ATOM     10  CA  UNL     1       2.226   5.887  19.983  0.00  0.00    +0.000 C 
ATOM     11  C   UNL     1       2.548   4.438  20.470  0.00  0.00    +0.000 C 
ATOM     12  O   UNL     1       2.116   3.630  21.261  0.00  0.00    +0.000 OA
ATOM     13  N   UNL     1       3.691   4.402  19.702  0.00  0.00    +0.000 N 
ATOM     14  CA  UNL     1       3.709   3.687  18.409  0.00  0.00    +0.000 C 
BRANCH  14  15
ATOM     15  C   UNL     1       2.335   3.244  17.807  0.00  0.00    +0.000 C 
ATOM     16  O   UNL     1       2.193   1.985  17.764  0.00  0.00    +0.000 OA
ATOM     17  OXT UNL     1       1.550   4.127  17.385  0.00  0.00    +0.000 OA
ENDBRANCH  14  15
ENDBRANCH   1  10
BRANCH   2  18
ATOM     18  C   UNL     1       1.036   8.950  22.017  0.00  0.00    +0.000 C 
BRANCH  18  19
ATOM     19  C   UNL     1       0.037  10.028  21.681  0.00  0.00    +0.000 C 
BRANCH  19  20
ATOM     20  O   UNL     1      -0.032  10.986  22.724  0.00  0.00    +0.000 OA
BRANCH  20  21
ATOM     21  N   UNL     1      -1.376  11.037  23.105  0.00  0.00    +0.000 NA
ATOM     22  C   UNL     1      -1.903  12.128  22.673  0.00  0.00    +0.000 C 
BRANCH  22  23
ATOM     23  C   UNL     1      -3.316  12.429  22.929  0.00  0.00    +0.000 A 
ATOM     24  C   UNL     1      -4.181  12.759  21.879  0.00  0.00    +0.000 A 
ATOM     25  C   UNL     1      -5.518  13.044  22.149  0.00  0.00    +0.000 A 
ATOM     26  C   UNL     1      -5.981  12.995  23.465  0.00  0.00    +0.000 A 
ATOM     27  C   UNL     1      -5.114  12.664  24.510  0.00  0.00    +0.000 A 
ATOM     28  C   UNL     1      -3.776  12.381  24.245  0.00  0.00    +0.000 A 
ENDBRANCH  22  23
ENDBRANCH  20  21
ENDBRANCH  19  20
ENDBRANCH  18  19
ENDBRANCH   2  18
TORSDOF 7
ENDMDL
MODEL 3
REMARK VINA RESULT:      -7.5      5.880      8.320
REMARK  Name = 
REMARK  9 active torsions:
REMARK  status: ('A' for Active; 'I' for Inactive)
REMARK    1  A    between atoms: C_1  and  C_2
REMARK    2  A    between atoms: C_2  and  C_3
REMARK    3  A    between atoms: CA_6  and  N_7
REMARK    4  A    between atoms: C_8  and  C_10
REMARK    5  A    between atoms: C_10  and  C_11
REMARK    6  A    between atoms: C_11  and  O_12
REMARK    7  A    between atoms: O_12  and  N_13
REMARK    8  A    between atoms: C_14  and  C_15
REMARK    9  A    between atoms: CA_24  and  C_25
REMARK                            x       y       z     vdW  Elec       q    Type
REMARK                         _______ _______ _______ _____ _____    ______ ____
ROOT
ATOM      1  N   UNL     1       6.086   6.206  18.263  0.00  0.00    +0.000 N 
ATOM      2  C   UNL     1       6.633   6.692  17.100  0.00  0.00    +0.000 C 
ATOM      3  O   UNL     1       6.153   6.463  15.992  0.00  0.00    +0.000 OA
ATOM      4  H   UNL     1       6.452   6.477  19.167  0.00  0.00    +0.000 HD
ENDROOT
BRANCH   1  10
ATOM      5  C   UNL     1       1.816   1.828  19.452  0.00  0.00    +0.000 C 
ATOM      6  C   UNL     1       2.404   3.165  19.898  0.00  0.00    +0.000 C 
ATOM      7  C   UNL     1       2.020   3.424  21.369  0.00  0.00    +0.000 C 
ATOM      8  S   UNL     1       4.234   3.070  19.827  0.00  0.00    +0.000 S 
ATOM      9  C   UNL     1       4.388   4.878  19.678  0.00  0.00    +0.000 C 
ATOM     10  CA  UNL     1       4.840   5.411  18.308  0.00  0.00    +0.000 C 
ATOM     11  C   UNL     1       3.531   6.256  18.408  0.00  0.00    +0.000 C 
ATOM     12  O   UNL     1       3.077   7.284  17.957  0.00  0.00    +0.000 OA
ATOM     13  N   UNL     1       3.030   5.420  19.382  0.00  0.00    +0.000 N 
ATOM     14  CA  UNL     1       2.024   4.390  19.048  0.00  0.00    +0.000 C 
BRANCH  14  15
ATOM     15  C   UNL     1       1.781   4.080  17.535  0.00  0.00    +0.000 C 
ATOM     16  O   UNL     1       0.711   4.594  17.087  0.00  0.00    +0.000 OA
ATOM     17  OXT UNL     1       2.593   3.337  16.933  0.00  0.00    +0.000 OA
ENDBRANCH  14  15
ENDBRANCH   1  10
BRANCH   2  18
ATOM     18  C   UNL     1       7.897   7.510  17.220  0.00  0.00    +0.000 C 
BRANCH  18  19
ATOM     19  C   UNL     1       7.671   8.894  17.773  0.00  0.00    +0.000 C 
BRANCH  19  20
ATOM     20  O   UNL     1       8.595   9.173  18.812  0.00  0.00    +0.000 OA
BRANCH  20  21
ATOM     21  N   UNL     1       9.458  10.147  18.302  0.00  0.00    +0.000 NA
ATOM     22  C   UNL     1       8.937  11.311  18.469  0.00  0.00    +0.000 C 
BRANCH  22  23
ATOM     23  C   UNL     1       9.646  12.518  18.029  0.00  0.00    +0.000 A 
ATOM     24  C   UNL     1      10.853  12.426  17.327  0.00  0.00    +0.000 A 
ATOM     25  C   UNL     1      11.508  13.588  16.923  0.00  0.00    +0.000 A 
ATOM     26  C   UNL     1      10.951  14.833  17.222  0.00  0.00    +0.000 A 
ATOM     27  C   UNL     1       9.745  14.920  17.922  0.00  0.00    +0.000 A 
ATOM     28  C   UNL     1       9.088  13.761  18.330  0.00  0.00    +0.000 A 
ENDBRANCH  22  23
ENDBRANCH  20  21
ENDBRANCH  19  20
ENDBRANCH  18  19
ENDBRANCH   2  18
TORSDOF 7
ENDMDL
MODEL 4
REMARK VINA RESULT:      -7.5      2.771      3.928
REMARK  Name = 
REMARK  9 active torsions:
REMARK  status: ('A' for Active; 'I' for Inactive)
REMARK    1  A    between atoms: C_1  and  C_2
REMARK    2  A    between atoms: C_2  and  C_3
REMARK    3  A    between atoms: CA_6  and  N_7
REMARK    4  A    between atoms: C_8  and  C_10
REMARK    5  A    between atoms: C_10  and  C_11
REMARK    6  A    between atoms: C_11  and  O_12
REMARK    7  A    between atoms: O_12  and  N_13
REMARK    8  A    between atoms: C_14  and  C_15
REMARK    9  A    between atoms: CA_24  and  C_25
REMARK                            x       y       z     vdW  Elec       q    Type
REMARK                         _______ _______ _______ _____ _____    ______ ____
ROOT
ATOM      1  N   UNL     1       1.940   6.711  20.435  0.00  0.00    +0.000 N 
ATOM      2  C   UNL     1       1.603   7.996  20.082  0.00  0.00    +0.000 C 
ATOM      3  O   UNL     1       1.815   8.456  18.962  0.00  0.00    +0.000 OA
ATOM      4  H   UNL     1       1.680   6.330  21.335  0.00  0.00    +0.000 HD
ENDROOT
BRANCH   1  10
ATOM      5  C   UNL     1       5.169   4.048  15.820  0.00  0.00    +0.000 C 
ATOM      6  C   UNL     1       5.186   4.464  17.289  0.00  0.00    +0.000 C 
ATOM      7  C   UNL     1       6.646   4.535  17.780  0.00  0.00    +0.000 C 
ATOM      8  S   UNL     1       4.481   6.149  17.444  0.00  0.00    +0.000 S 
ATOM      9  C   UNL     1       4.037   5.875  19.188  0.00  0.00    +0.000 C 
ATOM     10  CA  UNL     1       2.537   5.737  19.494  0.00  0.00    +0.000 C 
ATOM     11  C   UNL     1       2.978   4.389  20.147  0.00  0.00    +0.000 C 
ATOM     12  O   UNL     1       2.580   3.613  20.987  0.00  0.00    +0.000 OA
ATOM     13  N   UNL     1       4.172   4.414  19.460  0.00  0.00    +0.000 N 
ATOM     14  CA  UNL     1       4.366   3.587  18.251  0.00  0.00    +0.000 C 
BRANCH  14  15
ATOM     15  C   UNL     1       3.098   2.932  17.612  0.00  0.00    +0.000 C 
ATOM     16  O   UNL     1       3.028   1.681  17.811  0.00  0.00    +0.000 OA
ATOM     17  OXT UNL     1       2.322   3.653  16.939  0.00  0.00    +0.000 OA
ENDBRANCH  14  15
ENDBRANCH   1  10
BRANCH   2  18
ATOM     18  C   UNL     1       0.979   8.863  21.149  0.00  0.00    +0.000 C 
BRANCH  18  19
ATOM     19  C   UNL     1       0.563  10.225  20.653  0.00  0.00    +0.000 C 
BRANCH  19  20
ATOM     20  O   UNL     1       1.004  11.236  21.545  0.00  0.00    +0.000 OA
BRANCH  20  21
ATOM     21  N   UNL     1      -0.026  11.397  22.476  0.00  0.00    +0.000 NA
ATOM     22  C   UNL     1      -0.608  12.528  22.281  0.00  0.00    +0.000 C 
BRANCH  22  23
ATOM     23  C   UNL     1      -1.737  12.943  23.120  0.00  0.00    +0.000 A 
ATOM     24  C   UNL     1      -2.806  12.073  23.368  0.00  0.00    +0.000 A 
ATOM     25  C   UNL     1      -3.868  12.494  24.166  0.00  0.00    +0.000 A 
ATOM     26  C   UNL     1      -3.854  13.779  24.711  0.00  0.00    +0.000 A 
ATOM     27  C   UNL     1      -2.785  14.644  24.461  0.00  0.00    +0.000 A 
ATOM     28  C   UNL     1      -1.723  14.229  23.662  0.00  0.00    +0.000 A 
ENDBRANCH  22  23
ENDBRANCH  20  21
ENDBRANCH  19  20
ENDBRANCH  18  19
ENDBRANCH   2  18
TORSDOF 7
ENDMDL
MODEL 5
REMARK VINA RESULT:      -7.5      2.426      3.281
REMARK  Name = 
REMARK  9 active torsions:
REMARK  status: ('A' for Active; 'I' for Inactive)
REMARK    1  A    between atoms: C_1  and  C_2
REMARK    2  A    between atoms: C_2  and  C_3
REMARK    3  A    between atoms: CA_6  and  N_7
REMARK    4  A    between atoms: C_8  and  C_10
REMARK    5  A    between atoms: C_10  and  C_11
REMARK    6  A    between atoms: C_11  and  O_12
REMARK    7  A    between atoms: O_12  and  N_13
REMARK    8  A    between atoms: C_14  and  C_15
REMARK    9  A    between atoms: CA_24  and  C_25
REMARK                            x       y       z     vdW  Elec       q    Type
REMARK                         _______ _______ _______ _____ _____    ______ ____
ROOT
ATOM      1  N   UNL     1       2.829   7.960  17.664  0.00  0.00    +0.000 N 
ATOM      2  C   UNL     1       1.977   8.587  18.541  0.00  0.00    +0.000 C 
ATOM      3  O   UNL     1       1.762   8.167  19.675  0.00  0.00    +0.000 OA
ATOM      4  H   UNL     1       3.053   8.370  16.766  0.00  0.00    +0.000 HD
ENDROOT
BRANCH   1  10
ATOM      5  C   UNL     1       4.655   2.447  19.921  0.00  0.00    +0.000 C 
ATOM      6  C   UNL     1       4.036   3.176  18.730  0.00  0.00    +0.000 C 
ATOM      7  C   UNL     1       3.297   2.157  17.838  0.00  0.00    +0.000 C 
ATOM      8  S   UNL     1       2.783   4.368  19.339  0.00  0.00    +0.000 S 
ATOM      9  C   UNL     1       2.928   5.389  17.840  0.00  0.00    +0.000 C 
ATOM     10  CA  UNL     1       3.614   6.755  18.011  0.00  0.00    +0.000 C 
ATOM     11  C   UNL     1       4.540   6.230  16.868  0.00  0.00    +0.000 C 
ATOM     12  O   UNL     1       5.263   6.678  16.008  0.00  0.00    +0.000 OA
ATOM     13  N   UNL     1       4.142   4.931  17.102  0.00  0.00    +0.000 N 
ATOM     14  CA  UNL     1       5.003   4.004  17.865  0.00  0.00    +0.000 C 
BRANCH  14  15
ATOM     15  C   UNL     1       6.211   4.616  18.648  0.00  0.00    +0.000 C 
ATOM     16  O   UNL     1       7.328   4.403  18.085  0.00  0.00    +0.000 OA
ATOM     17  OXT UNL     1       5.993   5.188  19.742  0.00  0.00    +0.000 OA
ENDBRANCH  14  15
ENDBRANCH   1  10
BRANCH   2  18
ATOM     18  C   UNL     1       1.265   9.824  18.046  0.00  0.00    +0.000 C 
BRANCH  18  19
ATOM     19  C   UNL     1       1.179  10.923  19.073  0.00  0.00    +0.000 C 
BRANCH  19  20
ATOM     20  O   UNL     1       0.224  10.600  20.071  0.00  0.00    +0.000 OA
BRANCH  20  21
ATOM     21  N   UNL     1      -0.979  10.393  19.392  0.00  0.00    +0.000 NA
ATOM     22  C   UNL     1      -1.539  11.527  19.156  0.00  0.00    +0.000 C 
BRANCH  22  23
ATOM     23  C   UNL     1      -2.819  11.596  18.441  0.00  0.00    +0.000 A 
ATOM     24  C   UNL     1      -2.910  11.226  17.094  0.00  0.00    +0.000 A 
ATOM     25  C   UNL     1      -4.137  11.305  16.438  0.00  0.00    +0.000 A 
ATOM     26  C   UNL     1      -5.263  11.750  17.133  0.00  0.00    +0.000 A 
ATOM     27  C   UNL     1      -5.168  12.118  18.477  0.00  0.00    +0.000 A 
ATOM     28  C   UNL     1      -3.943  12.044  19.137  0.00  0.00    +0.000 A 
ENDBRANCH  22  23
ENDBRANCH  20  21
ENDBRANCH  19  20
ENDBRANCH  18  19
ENDBRANCH   2  18
TORSDOF 7
ENDMDL
MODEL 6
REMARK VINA RESULT:      -7.5      3.107      3.894
REMARK  Name = 
REMARK  9 active torsions:
REMARK  status: ('A' for Active; 'I' for Inactive)
REMARK    1  A    between atoms: C_1  and  C_2
REMARK    2  A    between atoms: C_2  and  C_3
REMARK    3  A    between atoms: CA_6  and  N_7
REMARK    4  A    between atoms: C_8  and  C_10
REMARK    5  A    between atoms: C_10  and  C_11
REMARK    6  A    between atoms: C_11  and  O_12
REMARK    7  A    between atoms: O_12  and  N_13
REMARK    8  A    between atoms: C_14  and  C_15
REMARK    9  A    between atoms: CA_24  and  C_25
REMARK                            x       y       z     vdW  Elec       q    Type
REMARK                         _______ _______ _______ _____ _____    ______ ____
ROOT
ATOM      1  N   UNL     1       1.734   6.190  20.769  0.00  0.00    +0.000 N 
ATOM      2  C   UNL     1       1.475   7.526  20.578  0.00  0.00    +0.000 C 
ATOM      3  O   UNL     1       1.817   8.132  19.565  0.00  0.00    +0.000 OA
ATOM      4  H   UNL     1       1.369   5.696  21.573  0.00  0.00    +0.000 HD
ENDROOT
BRANCH   1  10
ATOM      5  C   UNL     1       5.068   4.128  15.927  0.00  0.00    +0.000 C 
ATOM      6  C   UNL     1       5.089   4.463  17.417  0.00  0.00    +0.000 C 
ATOM      7  C   UNL     1       6.550   4.659  17.874  0.00  0.00    +0.000 C 
ATOM      8  S   UNL     1       4.223   6.056  17.687  0.00  0.00    +0.000 S 
ATOM      9  C   UNL     1       3.864   5.644  19.423  0.00  0.00    +0.000 C 
ATOM     10  CA  UNL     1       2.396   5.336  19.759  0.00  0.00    +0.000 C 
ATOM     11  C   UNL     1       2.993   4.006  20.322  0.00  0.00    +0.000 C 
ATOM     12  O   UNL     1       2.702   3.150  21.126  0.00  0.00    +0.000 OA
ATOM     13  N   UNL     1       4.156   4.192  19.607  0.00  0.00    +0.000 N 
ATOM     14  CA  UNL     1       4.394   3.456  18.348  0.00  0.00    +0.000 C 
BRANCH  14  15
ATOM     15  C   UNL     1       3.179   2.710  17.705  0.00  0.00    +0.000 C 
ATOM     16  O   UNL     1       3.199   1.458  17.908  0.00  0.00    +0.000 OA
ATOM     17  OXT UNL     1       2.356   3.370  17.027  0.00  0.00    +0.000 OA
ENDBRANCH  14  15
ENDBRANCH   1  10
BRANCH   2  18
ATOM     18  C   UNL     1       0.768   8.259  21.694  0.00  0.00    +0.000 C 
BRANCH  18  19
ATOM     19  C   UNL     1       1.504   9.484  22.173  0.00  0.00    +0.000 C 
BRANCH  19  20
ATOM     20  O   UNL     1       0.911  10.660  21.646  0.00  0.00    +0.000 OA
BRANCH  20  21
ATOM     21  N   UNL     1       0.076  11.149  22.653  0.00  0.00    +0.000 NA
ATOM     22  C   UNL     1      -0.658  12.094  22.180  0.00  0.00    +0.000 C 
BRANCH  22  23
ATOM     23  C   UNL     1      -1.638  12.778  23.032  0.00  0.00    +0.000 A 
ATOM     24  C   UNL     1      -1.332  14.002  23.638  0.00  0.00    +0.000 A 
ATOM     25  C   UNL     1      -2.279  14.629  24.446  0.00  0.00    +0.000 A 
ATOM     26  C   UNL     1      -3.524  14.029  24.641  0.00  0.00    +0.000 A 
ATOM     27  C   UNL     1      -3.825  12.807  24.035  0.00  0.00    +0.000 A 
ATOM     28  C   UNL     1      -2.881  12.175  23.228  0.00  0.00    +0.000 A 
ENDBRANCH  22  23
ENDBRANCH  20  21
ENDBRANCH  19  20
ENDBRANCH  18  19
ENDBRANCH   2  18
TORSDOF 7
ENDMDL
MODEL 7
REMARK VINA RESULT:      -7.4      3.044      3.608
REMARK  Name = 
REMARK  9 active torsions:
REMARK  status: ('A' for Active; 'I' for Inactive)
REMARK    1  A    between atoms: C_1  and  C_2
REMARK    2  A    between atoms: C_2  and  C_3
REMARK    3  A    between atoms: CA_6  and  N_7
REMARK    4  A    between atoms: C_8  and  C_10
REMARK    5  A    between atoms: C_10  and  C_11
REMARK    6  A    between atoms: C_11  and  O_12
REMARK    7  A    between atoms: O_12  and  N_13
REMARK    8  A    between atoms: C_14  and  C_15
REMARK    9  A    between atoms: CA_24  and  C_25
REMARK                            x       y       z     vdW  Elec       q    Type
REMARK                         _______ _______ _______ _____ _____    ______ ____
ROOT
ATOM      1  N   UNL     1       1.871   7.080  20.499  0.00  0.00    +0.000 N 
ATOM      2  C   UNL     1       1.547   8.344  20.069  0.00  0.00    +0.000 C 
ATOM      3  O   UNL     1       1.719   8.718  18.911  0.00  0.00    +0.000 OA
ATOM      4  H   UNL     1       1.643   6.770  21.435  0.00  0.00    +0.000 HD
ENDROOT
BRANCH   1  10
ATOM      5  C   UNL     1       4.879   4.007  15.990  0.00  0.00    +0.000 C 
ATOM      6  C   UNL     1       4.945   4.506  17.432  0.00  0.00    +0.000 C 
ATOM      7  C   UNL     1       6.418   4.538  17.892  0.00  0.00    +0.000 C 
ATOM      8  S   UNL     1       4.321   6.228  17.502  0.00  0.00    +0.000 S 
ATOM      9  C   UNL     1       3.902   6.076  19.266  0.00  0.00    +0.000 C 
ATOM     10  CA  UNL     1       2.403   6.026  19.607  0.00  0.00    +0.000 C 
ATOM     11  C   UNL     1       2.796   4.699  20.329  0.00  0.00    +0.000 C 
ATOM     12  O   UNL     1       2.381   3.992  21.220  0.00  0.00    +0.000 OA
ATOM     13  N   UNL     1       3.976   4.629  19.621  0.00  0.00    +0.000 N 
ATOM     14  CA  UNL     1       4.107   3.725  18.459  0.00  0.00    +0.000 C 
BRANCH  14  15
ATOM     15  C   UNL     1       2.797   3.094  17.882  0.00  0.00    +0.000 C 
ATOM     16  O   UNL     1       2.702   1.849  18.107  0.00  0.00    +0.000 OA
ATOM     17  OXT UNL     1       2.015   3.824  17.227  0.00  0.00    +0.000 OA
ENDBRANCH  14  15
ENDBRANCH   1  10
BRANCH   2  18
ATOM     18  C   UNL     1       0.990   9.301  21.097  0.00  0.00    +0.000 C 
BRANCH  18  19
ATOM     19  C   UNL     1      -0.110   8.709  21.940  0.00  0.00    +0.000 C 
BRANCH  19  20
ATOM     20  O   UNL     1      -0.083   9.253  23.249  0.00  0.00    +0.000 OA
BRANCH  20  21
ATOM     21  N   UNL     1      -0.243  10.632  23.091  0.00  0.00    +0.000 NA
ATOM     22  C   UNL     1      -1.487  10.936  23.215  0.00  0.00    +0.000 C 
BRANCH  22  23
ATOM     23  C   UNL     1      -1.931  12.330  23.102  0.00  0.00    +0.000 A 
ATOM     24  C   UNL     1      -3.283  12.667  23.244  0.00  0.00    +0.000 A 
ATOM     25  C   UNL     1      -3.678  13.998  23.128  0.00  0.00    +0.000 A 
ATOM     26  C   UNL     1      -2.721  14.982  22.873  0.00  0.00    +0.000 A 
ATOM     27  C   UNL     1      -1.374  14.642  22.732  0.00  0.00    +0.000 A 
ATOM     28  C   UNL     1      -0.974  13.312  22.845  0.00  0.00    +0.000 A 
ENDBRANCH  22  23
ENDBRANCH  20  21
ENDBRANCH  19  20
ENDBRANCH  18  19
ENDBRANCH   2  18
TORSDOF 7
ENDMDL
MODEL 8
REMARK VINA RESULT:      -7.4      3.811      4.859
REMARK  Name = 
REMARK  9 active torsions:
REMARK  status: ('A' for Active; 'I' for Inactive)
REMARK    1  A    between atoms: C_1  and  C_2
REMARK    2  A    between atoms: C_2  and  C_3
REMARK    3  A    between atoms: CA_6  and  N_7
REMARK    4  A    between atoms: C_8  and  C_10
REMARK    5  A    between atoms: C_10  and  C_11
REMARK    6  A    between atoms: C_11  and  O_12
REMARK    7  A    between atoms: O_12  and  N_13
REMARK    8  A    between atoms: C_14  and  C_15
REMARK    9  A    between atoms: CA_24  and  C_25
REMARK                            x       y       z     vdW  Elec       q    Type
REMARK                         _______ _______ _______ _____ _____    ______ ____
ROOT
ATOM      1  N   UNL     1       2.789   8.061  17.691  0.00  0.00    +0.000 N 
ATOM      2  C   UNL     1       1.950   8.698  18.574  0.00  0.00    +0.000 C 
ATOM      3  O   UNL     1       1.738   8.280  19.710  0.00  0.00    +0.000 OA
ATOM      4  H   UNL     1       3.012   8.470  16.792  0.00  0.00    +0.000 HD
ENDROOT
BRANCH   1  10
ATOM      5  C   UNL     1       4.552   2.510  19.902  0.00  0.00    +0.000 C 
ATOM      6  C   UNL     1       3.951   3.256  18.713  0.00  0.00    +0.000 C 
ATOM      7  C   UNL     1       3.214   2.253  17.802  0.00  0.00    +0.000 C 
ATOM      8  S   UNL     1       2.700   4.450  19.323  0.00  0.00    +0.000 S 
ATOM      9  C   UNL     1       2.868   5.488  17.838  0.00  0.00    +0.000 C 
ATOM     10  CA  UNL     1       3.561   6.847  18.032  0.00  0.00    +0.000 C 
ATOM     11  C   UNL     1       4.496   6.328  16.893  0.00  0.00    +0.000 C 
ATOM     12  O   UNL     1       5.231   6.782  16.045  0.00  0.00    +0.000 OA
ATOM     13  N   UNL     1       4.086   5.030  17.107  0.00  0.00    +0.000 N 
ATOM     14  CA  UNL     1       4.932   4.088  17.868  0.00  0.00    +0.000 C 
BRANCH  14  15
ATOM     15  C   UNL     1       6.137   4.681  18.670  0.00  0.00    +0.000 C 
ATOM     16  O   UNL     1       7.264   4.377  18.173  0.00  0.00    +0.000 OA
ATOM     17  OXT UNL     1       5.903   5.329  19.718  0.00  0.00    +0.000 OA
ENDBRANCH  14  15
ENDBRANCH   1  10
BRANCH   2  18
ATOM     18  C   UNL     1       1.250   9.944  18.085  0.00  0.00    +0.000 C 
BRANCH  18  19
ATOM     19  C   UNL     1       0.041  10.317  18.904  0.00  0.00    +0.000 C 
BRANCH  19  20
ATOM     20  O   UNL     1       0.332  11.419  19.749  0.00  0.00    +0.000 OA
BRANCH  20  21
ATOM     21  N   UNL     1       1.159  12.262  19.003  0.00  0.00    +0.000 NA
ATOM     22  C   UNL     1       0.945  13.484  19.344  0.00  0.00    +0.000 C 
BRANCH  22  23
ATOM     23  C   UNL     1       1.695  14.578  18.716  0.00  0.00    +0.000 A 
ATOM     24  C   UNL     1       2.922  14.339  18.086  0.00  0.00    +0.000 A 
ATOM     25  C   UNL     1       3.615  15.398  17.501  0.00  0.00    +0.000 A 
ATOM     26  C   UNL     1       3.077  16.684  17.548  0.00  0.00    +0.000 A 
ATOM     27  C   UNL     1       1.852  16.919  18.178  0.00  0.00    +0.000 A 
ATOM     28  C   UNL     1       1.157  15.865  18.767  0.00  0.00    +0.000 A 
ENDBRANCH  22  23
ENDBRANCH  20  21
ENDBRANCH  19  20
ENDBRANCH  18  19
ENDBRANCH   2  18
TORSDOF 7
ENDMDL
MODEL 9
REMARK VINA RESULT:      -7.4      2.737      3.413
REMARK  Name = 
REMARK  9 active torsions:
REMARK  status: ('A' for Active; 'I' for Inactive)
REMARK    1  A    between atoms: C_1  and  C_2
REMARK    2  A    between atoms: C_2  and  C_3
REMARK    3  A    between atoms: CA_6  and  N_7
REMARK    4  A    between atoms: C_8  and  C_10
REMARK    5  A    between atoms: C_10  and  C_11
REMARK    6  A    between atoms: C_11  and  O_12
REMARK    7  A    between atoms: O_12  and  N_13
REMARK    8  A    between atoms: C_14  and  C_15
REMARK    9  A    between atoms: CA_24  and  C_25
REMARK                            x       y       z     vdW  Elec       q    Type
REMARK                         _______ _______ _______ _____ _____    ______ ____
ROOT
ATOM      1  N   UNL     1       1.741   6.440  20.939  0.00  0.00    +0.000 N 
ATOM      2  C   UNL     1       1.486   7.779  20.765  0.00  0.00    +0.000 C 
ATOM      3  O   UNL     1       1.753   8.378  19.726  0.00  0.00    +0.000 OA
ATOM      4  H   UNL     1       1.437   5.952  21.772  0.00  0.00    +0.000 HD
ENDROOT
BRANCH   1  10
ATOM      5  C   UNL     1       4.813   4.297  15.960  0.00  0.00    +0.000 C 
ATOM      6  C   UNL     1       4.881   4.559  17.463  0.00  0.00    +0.000 C 
ATOM      7  C   UNL     1       6.359   4.592  17.907  0.00  0.00    +0.000 C 
ATOM      8  S   UNL     1       4.174   6.213  17.817  0.00  0.00    +0.000 S 
ATOM      9  C   UNL     1       3.796   5.756  19.538  0.00  0.00    +0.000 C 
ATOM     10  CA  UNL     1       2.308   5.574  19.882  0.00  0.00    +0.000 C 
ATOM     11  C   UNL     1       2.780   4.169  20.375  0.00  0.00    +0.000 C 
ATOM     12  O   UNL     1       2.417   3.308  21.144  0.00  0.00    +0.000 OA
ATOM     13  N   UNL     1       3.949   4.276  19.652  0.00  0.00    +0.000 N 
ATOM     14  CA  UNL     1       4.102   3.579  18.358  0.00  0.00    +0.000 C 
BRANCH  14  15
ATOM     15  C   UNL     1       2.814   2.983  17.700  0.00  0.00    +0.000 C 
ATOM     16  O   UNL     1       2.090   3.861  17.139  0.00  0.00    +0.000 OA
ATOM     17  OXT UNL     1       2.586   1.756  17.824  0.00  0.00    +0.000 OA
ENDBRANCH  14  15
ENDBRANCH   1  10
BRANCH   2  18
ATOM     18  C   UNL     1       0.882   8.524  21.931  0.00  0.00    +0.000 C 
BRANCH  18  19
ATOM     19  C   UNL     1       0.305   9.865  21.558  0.00  0.00    +0.000 C 
BRANCH  19  20
ATOM     20  O   UNL     1       0.244  10.715  22.692  0.00  0.00    +0.000 OA
BRANCH  20  21
ATOM     21  N   UNL     1      -1.109  10.806  23.027  0.00  0.00    +0.000 NA
ATOM     22  C   UNL     1      -1.561  11.960  22.680  0.00  0.00    +0.000 C 
BRANCH  22  23
ATOM     23  C   UNL     1      -2.966  12.314  22.911  0.00  0.00    +0.000 A 
ATOM     24  C   UNL     1      -3.509  12.294  24.201  0.00  0.00    +0.000 A 
ATOM     25  C   UNL     1      -4.848  12.630  24.392  0.00  0.00    +0.000 A 
ATOM     26  C   UNL     1      -5.632  12.987  23.294  0.00  0.00    +0.000 A 
ATOM     27  C   UNL     1      -5.086  13.007  22.008  0.00  0.00    +0.000 A 
ATOM     28  C   UNL     1      -3.749  12.668  21.812  0.00  0.00    +0.000 A 
ENDBRANCH  22  23
ENDBRANCH  20  21
ENDBRANCH  19  20
ENDBRANCH  18  19
ENDBRANCH   2  18
TORSDOF 7
ENDMDL
