MODEL 1
REMARK VINA RESULT:      -7.6      0.000      0.000
REMARK  Name = 
REMARK  10 active torsions:
REMARK  status: ('A' for Active; 'I' for Inactive)
REMARK    1  A    between atoms: C_1  and  O_2
REMARK    2  A    between atoms: O_2  and  C_3
REMARK    3  A    between atoms: C_5  and  O_6
REMARK    4  A    between atoms: C_9  and  C_10
REMARK    5  A    between atoms: C_16  and  O_17
REMARK    6  A    between atoms: C_21  and  C_22
REMARK    7  A    between atoms: C_25  and  O_26
REMARK    8  A    between atoms: O_26  and  C_27
REMARK    9  A    between atoms: C_27  and  C_28
REMARK   10  A    between atoms: C_28  and  N_29
REMARK                            x       y       z     vdW  Elec       q    Type
REMARK                         _______ _______ _______ _____ _____    ______ ____
ROOT
ATOM      1  C   UNL     1      -0.481  12.661  22.050  0.00  0.00    +0.000 C 
ATOM      2  C   UNL     1      -0.464  14.098  22.572  0.00  0.00    +0.000 C 
ATOM      3  O   UNL     1      -0.580  14.429  23.742  0.00  0.00    +0.000 OA
ATOM      4  C   UNL     1      -0.474  15.069  21.475  0.00  0.00    +0.000 A 
ATOM      5  C   UNL     1      -1.518  15.979  21.330  0.00  0.00    +0.000 A 
ATOM      6  C   UNL     1      -1.684  16.613  20.097  0.00  0.00    +0.000 A 
ATOM      7  C   UNL     1      -0.737  16.410  19.089  0.00  0.00    +0.000 A 
ATOM      8  C   UNL     1       0.346  15.560  19.274  0.00  0.00    +0.000 A 
ATOM      9  C   UNL     1       0.404  14.799  20.434  0.00  0.00    +0.000 A 
ATOM     10  O   UNL     1       1.233  13.721  20.423  0.00  0.00    +0.000 OA
ATOM     11  C   UNL     1       0.798  12.553  21.165  0.00  0.00    +0.000 C 
ENDROOT
BRANCH   1  17
ATOM     12  C   UNL     1      -2.539  12.646  20.408  0.00  0.00    +0.000 A 
ATOM     13  C   UNL     1      -3.868  13.088  20.325  0.00  0.00    +0.000 A 
ATOM     14  C   UNL     1      -4.674  13.129  21.451  0.00  0.00    +0.000 A 
ATOM     15  C   UNL     1      -4.187  12.686  22.667  0.00  0.00    +0.000 A 
ATOM     16  C   UNL     1      -2.838  12.348  22.782  0.00  0.00    +0.000 A 
ATOM     17  C   UNL     1      -1.957  12.408  21.668  0.00  0.00    +0.000 A 
BRANCH  12  19
ATOM     18  C   UNL     1      -2.257  11.693  18.263  0.00  0.00    +0.000 C 
ATOM     19  O   UNL     1      -1.783  12.587  19.279  0.00  0.00    +0.000 OA
ENDBRANCH  12  19
BRANCH  14  20
ATOM     20  O   UNL     1      -5.939  13.620  21.395  0.00  0.00    +0.000 OA
ATOM     21  H   UNL     1      -5.936  14.521  21.758  0.00  0.00    +0.000 HD
ENDBRANCH  14  20
ENDBRANCH   1  17
BRANCH  11  22
ATOM     22  C   UNL     1       0.944  11.334  20.265  0.00  0.00    +0.000 A 
ATOM     23  C   UNL     1       0.749  10.028  20.731  0.00  0.00    +0.000 A 
ATOM     24  C   UNL     1       1.072   8.909  19.933  0.00  0.00    +0.000 A 
ATOM     25  C   UNL     1       1.590   9.082  18.645  0.00  0.00    +0.000 A 
ATOM     26  C   UNL     1       1.708  10.373  18.150  0.00  0.00    +0.000 A 
ATOM     27  C   UNL     1       1.423  11.474  18.961  0.00  0.00    +0.000 A 
BRANCH  25  28
ATOM     28  O   UNL     1       2.069   8.117  17.801  0.00  0.00    +0.000 OA
BRANCH  28  29
ATOM     29  C   UNL     1       2.989   7.171  18.345  0.00  0.00    +0.000 C 
BRANCH  29  30
ATOM     30  C   UNL     1       2.593   5.737  17.927  0.00  0.00    +0.000 C 
BRANCH  30  31
ATOM     31  N   UNL     1       1.941   4.956  19.005  0.00  0.00    +0.000 NA
ATOM     32  C   UNL     1       1.559   3.618  18.522  0.00  0.00    +0.000 C 
ATOM     33  C   UNL     1       0.802   2.831  19.598  0.00  0.00    +0.000 C 
ATOM     34  C   UNL     1       1.604   2.732  20.890  0.00  0.00    +0.000 C 
ATOM     35  C   UNL     1       2.054   4.116  21.334  0.00  0.00    +0.000 C 
ATOM     36  C   UNL     1       2.780   4.852  20.208  0.00  0.00    +0.000 C 
ENDBRANCH  30  31
ENDBRANCH  29  30
ENDBRANCH  28  29
ENDBRANCH  25  28
ENDBRANCH  11  22
BRANCH   7  37
ATOM     37  O   UNL     1      -0.894  16.956  17.849  0.00  0.00    +0.000 OA
ATOM     38  H   UNL     1      -1.737  17.439  17.830  0.00  0.00    +0.000 HD
ENDBRANCH   7  37
TORSDOF 9
ENDMDL
MODEL 2
REMARK VINA RESULT:      -7.4      1.777      2.911
REMARK  Name = 
REMARK  10 active torsions:
REMARK  status: ('A' for Active; 'I' for Inactive)
REMARK    1  A    between atoms: C_1  and  O_2
REMARK    2  A    between atoms: O_2  and  C_3
REMARK    3  A    between atoms: C_5  and  O_6
REMARK    4  A    between atoms: C_9  and  C_10
REMARK    5  A    between atoms: C_16  and  O_17
REMARK    6  A    between atoms: C_21  and  C_22
REMARK    7  A    between atoms: C_25  and  O_26
REMARK    8  A    between atoms: O_26  and  C_27
REMARK    9  A    between atoms: C_27  and  C_28
REMARK   10  A    between atoms: C_28  and  N_29
REMARK                            x       y       z     vdW  Elec       q    Type
REMARK                         _______ _______ _______ _____ _____    ______ ____
ROOT
ATOM      1  C   UNL     1      -2.867  12.716  23.057  0.00  0.00    +0.000 C 
ATOM      2  C   UNL     1      -3.065  14.042  23.794  0.00  0.00    +0.000 C 
ATOM      3  O   UNL     1      -3.934  14.270  24.621  0.00  0.00    +0.000 OA
ATOM      4  C   UNL     1      -2.194  15.090  23.257  0.00  0.00    +0.000 A 
ATOM      5  C   UNL     1      -2.726  16.244  22.686  0.00  0.00    +0.000 A 
ATOM      6  C   UNL     1      -1.906  17.021  21.865  0.00  0.00    +0.000 A 
ATOM      7  C   UNL     1      -0.554  16.690  21.735  0.00  0.00    +0.000 A 
ATOM      8  C   UNL     1      -0.016  15.580  22.375  0.00  0.00    +0.000 A 
ATOM      9  C   UNL     1      -0.875  14.715  23.040  0.00  0.00    +0.000 A 
ATOM     10  O   UNL     1      -0.403  13.469  23.317  0.00  0.00    +0.000 OA
ATOM     11  C   UNL     1      -1.358  12.380  23.259  0.00  0.00    +0.000 C 
ENDROOT
BRANCH   1  17
ATOM     12  C   UNL     1      -5.014  12.536  21.545  0.00  0.00    +0.000 A 
ATOM     13  C   UNL     1      -5.431  12.035  20.302  0.00  0.00    +0.000 A 
ATOM     14  C   UNL     1      -4.575  12.040  19.212  0.00  0.00    +0.000 A 
ATOM     15  C   UNL     1      -3.310  12.584  19.328  0.00  0.00    +0.000 A 
ATOM     16  C   UNL     1      -2.849  12.984  20.583  0.00  0.00    +0.000 A 
ATOM     17  C   UNL     1      -3.664  12.883  21.743  0.00  0.00    +0.000 A 
BRANCH  12  19
ATOM     18  C   UNL     1      -7.276  12.491  22.231  0.00  0.00    +0.000 C 
ATOM     19  O   UNL     1      -5.888  12.547  22.587  0.00  0.00    +0.000 OA
ENDBRANCH  12  19
BRANCH  14  20
ATOM     20  O   UNL     1      -4.945  11.495  18.024  0.00  0.00    +0.000 OA
ATOM     21  H   UNL     1      -5.859  11.177  18.102  0.00  0.00    +0.000 HD
ENDBRANCH  14  20
ENDBRANCH   1  17
BRANCH  11  22
ATOM     22  C   UNL     1      -0.757  11.261  22.420  0.00  0.00    +0.000 A 
ATOM     23  C   UNL     1      -0.715   9.932  22.858  0.00  0.00    +0.000 A 
ATOM     24  C   UNL     1       0.012   8.950  22.152  0.00  0.00    +0.000 A 
ATOM     25  C   UNL     1       0.704   9.284  20.983  0.00  0.00    +0.000 A 
ATOM     26  C   UNL     1       0.598  10.581  20.501  0.00  0.00    +0.000 A 
ATOM     27  C   UNL     1      -0.091  11.554  21.229  0.00  0.00    +0.000 A 
BRANCH  25  28
ATOM     28  O   UNL     1       1.551   8.489  20.259  0.00  0.00    +0.000 OA
BRANCH  28  29
ATOM     29  C   UNL     1       1.559   7.095  20.561  0.00  0.00    +0.000 C 
BRANCH  29  30
ATOM     30  C   UNL     1       2.626   6.368  19.713  0.00  0.00    +0.000 C 
BRANCH  30  31
ATOM     31  N   UNL     1       2.371   4.918  19.542  0.00  0.00    +0.000 NA
ATOM     32  C   UNL     1       1.339   4.454  20.486  0.00  0.00    +0.000 C 
ATOM     33  C   UNL     1       1.128   2.939  20.384  0.00  0.00    +0.000 C 
ATOM     34  C   UNL     1       0.790   2.514  18.960  0.00  0.00    +0.000 C 
ATOM     35  C   UNL     1       1.824   3.064  17.990  0.00  0.00    +0.000 C 
ATOM     36  C   UNL     1       2.001   4.573  18.161  0.00  0.00    +0.000 C 
ENDBRANCH  30  31
ENDBRANCH  29  30
ENDBRANCH  28  29
ENDBRANCH  25  28
ENDBRANCH  11  22
BRANCH   7  37
ATOM     37  O   UNL     1       0.268  17.381  20.895  0.00  0.00    +0.000 OA
ATOM     38  H   UNL     1       1.183  17.096  21.056  0.00  0.00    +0.000 HD
ENDBRANCH   7  37
TORSDOF 9
ENDMDL
MODEL 3
REMARK VINA RESULT:      -7.4      1.608      2.548
REMARK  Name = 
REMARK  10 active torsions:
REMARK  status: ('A' for Active; 'I' for Inactive)
REMARK    1  A    between atoms: C_1  and  O_2
REMARK    2  A    between atoms: O_2  and  C_3
REMARK    3  A    between atoms: C_5  and  O_6
REMARK    4  A    between atoms: C_9  and  C_10
REMARK    5  A    between atoms: C_16  and  O_17
REMARK    6  A    between atoms: C_21  and  C_22
REMARK    7  A    between atoms: C_25  and  O_26
REMARK    8  A    between atoms: O_26  and  C_27
REMARK    9  A    between atoms: C_27  and  C_28
REMARK   10  A    between atoms: C_28  and  N_29
REMARK                            x       y       z     vdW  Elec       q    Type
REMARK                         _______ _______ _______ _____ _____    ______ ____
ROOT
ATOM      1  C   UNL     1      -1.500  12.500  21.066  0.00  0.00    +0.000 C 
ATOM      2  C   UNL     1      -1.476  13.986  21.428  0.00  0.00    +0.000 C 
ATOM      3  O   UNL     1      -2.301  14.559  22.123  0.00  0.00    +0.000 OA
ATOM      4  C   UNL     1      -0.436  14.703  20.687  0.00  0.00    +0.000 A 
ATOM      5  C   UNL     1      -0.758  15.738  19.814  0.00  0.00    +0.000 A 
ATOM      6  C   UNL     1       0.189  16.132  18.866  0.00  0.00    +0.000 A 
ATOM      7  C   UNL     1       1.466  15.564  18.897  0.00  0.00    +0.000 A 
ATOM      8  C   UNL     1       1.802  14.587  19.826  0.00  0.00    +0.000 A 
ATOM      9  C   UNL     1       0.803  14.076  20.644  0.00  0.00    +0.000 A 
ATOM     10  O   UNL     1       1.054  12.886  21.254  0.00  0.00    +0.000 OA
ATOM     11  C   UNL     1      -0.072  11.989  21.426  0.00  0.00    +0.000 C 
ENDROOT
BRANCH   1  17
ATOM     12  C   UNL     1      -3.628  12.245  19.537  0.00  0.00    +0.000 A 
ATOM     13  C   UNL     1      -4.094  11.516  18.432  0.00  0.00    +0.000 A 
ATOM     14  C   UNL     1      -3.230  11.137  17.418  0.00  0.00    +0.000 A 
ATOM     15  C   UNL     1      -1.902  11.518  17.461  0.00  0.00    +0.000 A 
ATOM     16  C   UNL     1      -1.407  12.148  18.604  0.00  0.00    +0.000 A 
ATOM     17  C   UNL     1      -2.245  12.445  19.712  0.00  0.00    +0.000 A 
BRANCH  12  19
ATOM     18  C   UNL     1      -5.377  13.714  20.149  0.00  0.00    +0.000 C 
ATOM     19  O   UNL     1      -4.507  12.630  20.502  0.00  0.00    +0.000 OA
ENDBRANCH  12  19
BRANCH  14  20
ATOM     20  O   UNL     1      -3.655  10.373  16.378  0.00  0.00    +0.000 OA
ATOM     21  H   UNL     1      -3.919   9.504  16.723  0.00  0.00    +0.000 HD
ENDBRANCH  14  20
ENDBRANCH   1  17
BRANCH  11  22
ATOM     22  C   UNL     1       0.339  10.608  20.933  0.00  0.00    +0.000 A 
ATOM     23  C   UNL     1       0.266   9.469  21.743  0.00  0.00    +0.000 A 
ATOM     24  C   UNL     1       0.825   8.239  21.332  0.00  0.00    +0.000 A 
ATOM     25  C   UNL     1       1.462   8.130  20.091  0.00  0.00    +0.000 A 
ATOM     26  C   UNL     1       1.463   9.235  19.251  0.00  0.00    +0.000 A 
ATOM     27  C   UNL     1       0.942  10.456  19.684  0.00  0.00    +0.000 A 
BRANCH  25  28
ATOM     28  O   UNL     1       2.159   7.059  19.602  0.00  0.00    +0.000 OA
BRANCH  28  29
ATOM     29  C   UNL     1       2.802   7.218  18.339  0.00  0.00    +0.000 C 
BRANCH  29  30
ATOM     30  C   UNL     1       3.331   5.858  17.831  0.00  0.00    +0.000 C 
BRANCH  30  31
ATOM     31  N   UNL     1       2.799   4.692  18.574  0.00  0.00    +0.000 NA
ATOM     32  C   UNL     1       1.706   4.049  17.824  0.00  0.00    +0.000 C 
ATOM     33  C   UNL     1       1.083   2.896  18.619  0.00  0.00    +0.000 C 
ATOM     34  C   UNL     1       2.131   1.871  19.035  0.00  0.00    +0.000 C 
ATOM     35  C   UNL     1       3.288   2.561  19.742  0.00  0.00    +0.000 C 
ATOM     36  C   UNL     1       3.844   3.712  18.905  0.00  0.00    +0.000 C 
ENDBRANCH  30  31
ENDBRANCH  29  30
ENDBRANCH  28  29
ENDBRANCH  25  28
ENDBRANCH  11  22
BRANCH   7  37
ATOM     37  O   UNL     1       2.400  15.870  17.952  0.00  0.00    +0.000 OA
ATOM     38  H   UNL     1       2.454  15.132  17.322  0.00  0.00    +0.000 HD
ENDBRANCH   7  37
TORSDOF 9
ENDMDL
MODEL 4
REMARK VINA RESULT:      -7.4      1.508      2.527
REMARK  Name = 
REMARK  10 active torsions:
REMARK  status: ('A' for Active; 'I' for Inactive)
REMARK    1  A    between atoms: C_1  and  O_2
REMARK    2  A    between atoms: O_2  and  C_3
REMARK    3  A    between atoms: C_5  and  O_6
REMARK    4  A    between atoms: C_9  and  C_10
REMARK    5  A    between atoms: C_16  and  O_17
REMARK    6  A    between atoms: C_21  and  C_22
REMARK    7  A    between atoms: C_25  and  O_26
REMARK    8  A    between atoms: O_26  and  C_27
REMARK    9  A    between atoms: C_27  and  C_28
REMARK   10  A    between atoms: C_28  and  N_29
REMARK                            x       y       z     vdW  Elec       q    Type
REMARK                         _______ _______ _______ _____ _____    ______ ____
ROOT
ATOM      1  C   UNL     1      -1.121  12.032  20.683  0.00  0.00    +0.000 C 
ATOM      2  C   UNL     1      -1.185  13.404  21.356  0.00  0.00    +0.000 C 
ATOM      3  O   UNL     1      -1.971  13.727  22.233  0.00  0.00    +0.000 OA
ATOM      4  C   UNL     1      -0.303  14.368  20.695  0.00  0.00    +0.000 A 
ATOM      5  C   UNL     1      -0.813  15.521  20.102  0.00  0.00    +0.000 A 
ATOM      6  C   UNL     1      -0.018  16.203  19.178  0.00  0.00    +0.000 A 
ATOM      7  C   UNL     1       1.298  15.784  18.964  0.00  0.00    +0.000 A 
ATOM      8  C   UNL     1       1.822  14.679  19.624  0.00  0.00    +0.000 A 
ATOM      9  C   UNL     1       0.972  13.904  20.401  0.00  0.00    +0.000 A 
ATOM     10  O   UNL     1       1.394  12.648  20.711  0.00  0.00    +0.000 OA
ATOM     11  C   UNL     1       0.378  11.617  20.788  0.00  0.00    +0.000 C 
ENDROOT
BRANCH   1  17
ATOM     12  C   UNL     1      -3.411  12.051  19.385  0.00  0.00    +0.000 A 
ATOM     13  C   UNL     1      -4.028  11.486  18.258  0.00  0.00    +0.000 A 
ATOM     14  C   UNL     1      -3.298  11.210  17.114  0.00  0.00    +0.000 A 
ATOM     15  C   UNL     1      -1.956  11.534  17.054  0.00  0.00    +0.000 A 
ATOM     16  C   UNL     1      -1.310  11.994  18.202  0.00  0.00    +0.000 A 
ATOM     17  C   UNL     1      -2.009  12.178  19.426  0.00  0.00    +0.000 A 
BRANCH  12  19
ATOM     18  C   UNL     1      -4.871  13.585  20.435  0.00  0.00    +0.000 C 
ATOM     19  O   UNL     1      -4.161  12.341  20.483  0.00  0.00    +0.000 OA
ENDBRANCH  12  19
BRANCH  14  20
ATOM     20  O   UNL     1      -3.871  10.600  16.043  0.00  0.00    +0.000 OA
ATOM     21  H   UNL     1      -3.995   9.660  16.255  0.00  0.00    +0.000 HD
ENDBRANCH  14  20
ENDBRANCH   1  17
BRANCH  11  22
ATOM     22  C   UNL     1       0.848  10.421  19.971  0.00  0.00    +0.000 A 
ATOM     23  C   UNL     1       1.000   9.145  20.525  0.00  0.00    +0.000 A 
ATOM     24  C   UNL     1       1.613   8.099  19.801  0.00  0.00    +0.000 A 
ATOM     25  C   UNL     1       2.077   8.316  18.499  0.00  0.00    +0.000 A 
ATOM     26  C   UNL     1       1.854   9.556  17.917  0.00  0.00    +0.000 A 
ATOM     27  C   UNL     1       1.282  10.594  18.655  0.00  0.00    +0.000 A 
BRANCH  25  28
ATOM     28  O   UNL     1       2.800   7.456  17.717  0.00  0.00    +0.000 OA
BRANCH  28  29
ATOM     29  C   UNL     1       3.214   6.225  18.308  0.00  0.00    +0.000 C 
BRANCH  29  30
ATOM     30  C   UNL     1       2.220   5.098  17.951  0.00  0.00    +0.000 C 
BRANCH  30  31
ATOM     31  N   UNL     1       2.177   3.998  18.944  0.00  0.00    +0.000 NA
ATOM     32  C   UNL     1       3.500   3.802  19.563  0.00  0.00    +0.000 C 
ATOM     33  C   UNL     1       3.495   2.610  20.526  0.00  0.00    +0.000 C 
ATOM     34  C   UNL     1       2.414   2.752  21.591  0.00  0.00    +0.000 C 
ATOM     35  C   UNL     1       1.068   3.028  20.937  0.00  0.00    +0.000 C 
ATOM     36  C   UNL     1       1.150   4.212  19.974  0.00  0.00    +0.000 C 
ENDBRANCH  30  31
ENDBRANCH  29  30
ENDBRANCH  28  29
ENDBRANCH  25  28
ENDBRANCH  11  22
BRANCH   7  37
ATOM     37  O   UNL     1       2.088  16.380  18.026  0.00  0.00    +0.000 OA
ATOM     38  H   UNL     1       1.915  17.336  18.040  0.00  0.00    +0.000 HD
ENDBRANCH   7  37
TORSDOF 9
ENDMDL
MODEL 5
REMARK VINA RESULT:      -7.3      1.376      1.849
REMARK  Name = 
REMARK  10 active torsions:
REMARK  status: ('A' for Active; 'I' for Inactive)
REMARK    1  A    between atoms: C_1  and  O_2
REMARK    2  A    between atoms: O_2  and  C_3
REMARK    3  A    between atoms: C_5  and  O_6
REMARK    4  A    between atoms: C_9  and  C_10
REMARK    5  A    between atoms: C_16  and  O_17
REMARK    6  A    between atoms: C_21  and  C_22
REMARK    7  A    between atoms: C_25  and  O_26
REMARK    8  A    between atoms: O_26  and  C_27
REMARK    9  A    between atoms: C_27  and  C_28
REMARK   10  A    between atoms: C_28  and  N_29
REMARK                            x       y       z     vdW  Elec       q    Type
REMARK                         _______ _______ _______ _____ _____    ______ ____
ROOT
ATOM      1  C   UNL     1      -2.245  13.116  23.174  0.00  0.00    +0.000 C 
ATOM      2  C   UNL     1      -2.246  14.632  23.373  0.00  0.00    +0.000 C 
ATOM      3  O   UNL     1      -2.703  15.220  24.341  0.00  0.00    +0.000 OA
ATOM      4  C   UNL     1      -1.791  15.332  22.169  0.00  0.00    +0.000 A 
ATOM      5  C   UNL     1      -2.625  16.221  21.496  0.00  0.00    +0.000 A 
ATOM      6  C   UNL     1      -2.308  16.568  20.181  0.00  0.00    +0.000 A 
ATOM      7  C   UNL     1      -1.111  16.112  19.621  0.00  0.00    +0.000 A 
ATOM      8  C   UNL     1      -0.247  15.289  20.333  0.00  0.00    +0.000 A 
ATOM      9  C   UNL     1      -0.655  14.806  21.568  0.00  0.00    +0.000 A 
ATOM     10  O   UNL     1       0.011  13.726  22.058  0.00  0.00    +0.000 OA
ATOM     11  C   UNL     1      -0.767  12.769  22.823  0.00  0.00    +0.000 C 
ENDROOT
BRANCH   1  17
ATOM     12  C   UNL     1      -3.653  12.858  20.965  0.00  0.00    +0.000 A 
ATOM     13  C   UNL     1      -4.844  13.310  20.373  0.00  0.00    +0.000 A 
ATOM     14  C   UNL     1      -5.965  13.567  21.145  0.00  0.00    +0.000 A 
ATOM     15  C   UNL     1      -5.936  13.335  22.507  0.00  0.00    +0.000 A 
ATOM     16  C   UNL     1      -4.730  12.992  23.118  0.00  0.00    +0.000 A 
ATOM     17  C   UNL     1      -3.534  12.833  22.367  0.00  0.00    +0.000 A 
BRANCH  12  19
ATOM     18  C   UNL     1      -2.850  11.782  19.019  0.00  0.00    +0.000 C 
ATOM     19  O   UNL     1      -2.579  12.583  20.177  0.00  0.00    +0.000 OA
ENDBRANCH  12  19
BRANCH  14  20
ATOM     20  O   UNL     1      -7.100  14.070  20.592  0.00  0.00    +0.000 OA
ATOM     21  H   UNL     1      -7.860  13.755  21.109  0.00  0.00    +0.000 HD
ENDBRANCH  14  20
ENDBRANCH   1  17
BRANCH  11  22
ATOM     22  C   UNL     1      -0.466  11.375  22.290  0.00  0.00    +0.000 A 
ATOM     23  C   UNL     1      -0.812  10.213  22.989  0.00  0.00    +0.000 A 
ATOM     24  C   UNL     1      -0.359   8.943  22.570  0.00  0.00    +0.000 A 
ATOM     25  C   UNL     1       0.445   8.817  21.432  0.00  0.00    +0.000 A 
ATOM     26  C   UNL     1       0.722   9.957  20.691  0.00  0.00    +0.000 A 
ATOM     27  C   UNL     1       0.302  11.212  21.135  0.00  0.00    +0.000 A 
BRANCH  25  28
ATOM     28  O   UNL     1       1.067   7.688  20.970  0.00  0.00    +0.000 OA
BRANCH  28  29
ATOM     29  C   UNL     1       1.962   7.838  19.870  0.00  0.00    +0.000 C 
BRANCH  29  30
ATOM     30  C   UNL     1       2.764   6.536  19.650  0.00  0.00    +0.000 C 
BRANCH  30  31
ATOM     31  N   UNL     1       1.949   5.303  19.762  0.00  0.00    +0.000 NA
ATOM     32  C   UNL     1       2.035   4.506  18.526  0.00  0.00    +0.000 C 
ATOM     33  C   UNL     1       1.127   3.273  18.591  0.00  0.00    +0.000 C 
ATOM     34  C   UNL     1       1.432   2.414  19.812  0.00  0.00    +0.000 C 
ATOM     35  C   UNL     1       1.413   3.268  21.071  0.00  0.00    +0.000 C 
ATOM     36  C   UNL     1       2.320   4.490  20.929  0.00  0.00    +0.000 C 
ENDBRANCH  30  31
ENDBRANCH  29  30
ENDBRANCH  28  29
ENDBRANCH  25  28
ENDBRANCH  11  22
BRANCH   7  37
ATOM     37  O   UNL     1      -0.793  16.372  18.321  0.00  0.00    +0.000 OA
ATOM     38  H   UNL     1      -0.053  17.002  18.305  0.00  0.00    +0.000 HD
ENDBRANCH   7  37
TORSDOF 9
ENDMDL
MODEL 6
REMARK VINA RESULT:      -7.3      1.766      3.064
REMARK  Name = 
REMARK  10 active torsions:
REMARK  status: ('A' for Active; 'I' for Inactive)
REMARK    1  A    between atoms: C_1  and  O_2
REMARK    2  A    between atoms: O_2  and  C_3
REMARK    3  A    between atoms: C_5  and  O_6
REMARK    4  A    between atoms: C_9  and  C_10
REMARK    5  A    between atoms: C_16  and  O_17
REMARK    6  A    between atoms: C_21  and  C_22
REMARK    7  A    between atoms: C_25  and  O_26
REMARK    8  A    between atoms: O_26  and  C_27
REMARK    9  A    between atoms: C_27  and  C_28
REMARK   10  A    between atoms: C_28  and  N_29
REMARK                            x       y       z     vdW  Elec       q    Type
REMARK                         _______ _______ _______ _____ _____    ______ ____
ROOT
ATOM      1  C   UNL     1      -1.056  10.990  20.243  0.00  0.00    +0.000 C 
ATOM      2  C   UNL     1      -1.302  12.321  20.956  0.00  0.00    +0.000 C 
ATOM      3  O   UNL     1      -2.227  12.557  21.718  0.00  0.00    +0.000 OA
ATOM      4  C   UNL     1      -0.392  13.363  20.476  0.00  0.00    +0.000 A 
ATOM      5  C   UNL     1      -0.878  14.515  19.862  0.00  0.00    +0.000 A 
ATOM      6  C   UNL     1       0.001  15.285  19.097  0.00  0.00    +0.000 A 
ATOM      7  C   UNL     1       1.358  14.949  19.066  0.00  0.00    +0.000 A 
ATOM      8  C   UNL     1       1.845  13.842  19.750  0.00  0.00    +0.000 A 
ATOM      9  C   UNL     1       0.938  12.984  20.357  0.00  0.00    +0.000 A 
ATOM     10  O   UNL     1       1.385  11.739  20.674  0.00  0.00    +0.000 OA
ATOM     11  C   UNL     1       0.433  10.651  20.555  0.00  0.00    +0.000 C 
ENDROOT
BRANCH   1  17
ATOM     12  C   UNL     1      -3.097  11.529  18.671  0.00  0.00    +0.000 A 
ATOM     13  C   UNL     1      -3.824  10.979  17.603  0.00  0.00    +0.000 A 
ATOM     14  C   UNL     1      -3.194  10.205  16.642  0.00  0.00    +0.000 A 
ATOM     15  C   UNL     1      -1.828  10.004  16.701  0.00  0.00    +0.000 A 
ATOM     16  C   UNL     1      -1.117  10.453  17.815  0.00  0.00    +0.000 A 
ATOM     17  C   UNL     1      -1.756  11.151  18.875  0.00  0.00    +0.000 A 
BRANCH  12  19
ATOM     18  C   UNL     1      -5.170  12.286  19.519  0.00  0.00    +0.000 C 
ATOM     19  O   UNL     1      -3.738  12.311  19.581  0.00  0.00    +0.000 OA
ENDBRANCH  12  19
BRANCH  14  20
ATOM     20  O   UNL     1      -3.898   9.612  15.643  0.00  0.00    +0.000 OA
ATOM     21  H   UNL     1      -4.826   9.892  15.712  0.00  0.00    +0.000 HD
ENDBRANCH  14  20
ENDBRANCH   1  17
BRANCH  11  22
ATOM     22  C   UNL     1       1.090   9.526  19.768  0.00  0.00    +0.000 A 
ATOM     23  C   UNL     1       1.376   8.279  20.336  0.00  0.00    +0.000 A 
ATOM     24  C   UNL     1       2.151   7.320  19.649  0.00  0.00    +0.000 A 
ATOM     25  C   UNL     1       2.647   7.594  18.369  0.00  0.00    +0.000 A 
ATOM     26  C   UNL     1       2.297   8.796  17.770  0.00  0.00    +0.000 A 
ATOM     27  C   UNL     1       1.563   9.753  18.474  0.00  0.00    +0.000 A 
BRANCH  25  28
ATOM     28  O   UNL     1       3.511   6.834  17.628  0.00  0.00    +0.000 OA
BRANCH  28  29
ATOM     29  C   UNL     1       4.177   5.763  18.295  0.00  0.00    +0.000 C 
BRANCH  29  30
ATOM     30  C   UNL     1       3.732   4.405  17.708  0.00  0.00    +0.000 C 
BRANCH  30  31
ATOM     31  N   UNL     1       2.954   3.569  18.652  0.00  0.00    +0.000 NA
ATOM     32  C   UNL     1       3.369   3.826  20.042  0.00  0.00    +0.000 C 
ATOM     33  C   UNL     1       2.638   2.904  21.024  0.00  0.00    +0.000 C 
ATOM     34  C   UNL     1       1.125   3.018  20.881  0.00  0.00    +0.000 C 
ATOM     35  C   UNL     1       0.721   2.824  19.427  0.00  0.00    +0.000 C 
ATOM     36  C   UNL     1       1.503   3.756  18.503  0.00  0.00    +0.000 C 
ENDBRANCH  30  31
ENDBRANCH  29  30
ENDBRANCH  28  29
ENDBRANCH  25  28
ENDBRANCH  11  22
BRANCH   7  37
ATOM     37  O   UNL     1       2.239  15.633  18.282  0.00  0.00    +0.000 OA
ATOM     38  H   UNL     1       2.850  14.995  17.877  0.00  0.00    +0.000 HD
ENDBRANCH   7  37
TORSDOF 9
ENDMDL
MODEL 7
REMARK VINA RESULT:      -7.3      2.301      3.525
REMARK  Name = 
REMARK  10 active torsions:
REMARK  status: ('A' for Active; 'I' for Inactive)
REMARK    1  A    between atoms: C_1  and  O_2
REMARK    2  A    between atoms: O_2  and  C_3
REMARK    3  A    between atoms: C_5  and  O_6
REMARK    4  A    between atoms: C_9  and  C_10
REMARK    5  A    between atoms: C_16  and  O_17
REMARK    6  A    between atoms: C_21  and  C_22
REMARK    7  A    between atoms: C_25  and  O_26
REMARK    8  A    between atoms: O_26  and  C_27
REMARK    9  A    between atoms: C_27  and  C_28
REMARK   10  A    between atoms: C_28  and  N_29
REMARK                            x       y       z     vdW  Elec       q    Type
REMARK                         _______ _______ _______ _____ _____    ______ ____
ROOT
ATOM      1  C   UNL     1      -0.913  11.672  20.749  0.00  0.00    +0.000 C 
ATOM      2  C   UNL     1      -0.907  13.119  21.241  0.00  0.00    +0.000 C 
ATOM      3  O   UNL     1      -1.731  13.616  21.994  0.00  0.00    +0.000 OA
ATOM      4  C   UNL     1       0.114  13.915  20.556  0.00  0.00    +0.000 A 
ATOM      5  C   UNL     1      -0.235  15.019  19.781  0.00  0.00    +0.000 A 
ATOM      6  C   UNL     1       0.695  15.510  18.862  0.00  0.00    +0.000 A 
ATOM      7  C   UNL     1       1.980  14.961  18.828  0.00  0.00    +0.000 A 
ATOM      8  C   UNL     1       2.342  13.912  19.663  0.00  0.00    +0.000 A 
ATOM      9  C   UNL     1       1.361  13.315  20.443  0.00  0.00    +0.000 A 
ATOM     10  O   UNL     1       1.637  12.080  20.943  0.00  0.00    +0.000 OA
ATOM     11  C   UNL     1       0.527  11.153  21.047  0.00  0.00    +0.000 C 
ENDROOT
BRANCH   1  17
ATOM     12  C   UNL     1      -3.070  11.824  19.248  0.00  0.00    +0.000 A 
ATOM     13  C   UNL     1      -3.701  11.168  18.179  0.00  0.00    +0.000 A 
ATOM     14  C   UNL     1      -2.956  10.570  17.176  0.00  0.00    +0.000 A 
ATOM     15  C   UNL     1      -1.577  10.654  17.194  0.00  0.00    +0.000 A 
ATOM     16  C   UNL     1      -0.938  11.207  18.305  0.00  0.00    +0.000 A 
ATOM     17  C   UNL     1      -1.674  11.725  19.405  0.00  0.00    +0.000 A 
BRANCH  12  19
ATOM     18  C   UNL     1      -5.228  12.532  19.904  0.00  0.00    +0.000 C 
ATOM     19  O   UNL     1      -3.829  12.429  20.201  0.00  0.00    +0.000 OA
ENDBRANCH  12  19
BRANCH  14  20
ATOM     20  O   UNL     1      -3.554   9.874  16.174  0.00  0.00    +0.000 OA
ATOM     21  H   UNL     1      -3.902  10.508  15.524  0.00  0.00    +0.000 HD
ENDBRANCH  14  20
ENDBRANCH   1  17
BRANCH  11  22
ATOM     22  C   UNL     1       0.951   9.828  20.429  0.00  0.00    +0.000 A 
ATOM     23  C   UNL     1       0.980   8.633  21.159  0.00  0.00    +0.000 A 
ATOM     24  C   UNL     1       1.554   7.460  20.623  0.00  0.00    +0.000 A 
ATOM     25  C   UNL     1       2.101   7.463  19.335  0.00  0.00    +0.000 A 
ATOM     26  C   UNL     1       2.001   8.622  18.578  0.00  0.00    +0.000 A 
ATOM     27  C   UNL     1       1.467   9.788  19.133  0.00  0.00    +0.000 A 
BRANCH  25  28
ATOM     28  O   UNL     1       2.801   6.458  18.723  0.00  0.00    +0.000 OA
BRANCH  28  29
ATOM     29  C   UNL     1       3.613   5.628  19.552  0.00  0.00    +0.000 C 
BRANCH  29  30
ATOM     30  C   UNL     1       3.730   4.213  18.943  0.00  0.00    +0.000 C 
BRANCH  30  31
ATOM     31  N   UNL     1       4.940   4.015  18.112  0.00  0.00    +0.000 NA
ATOM     32  C   UNL     1       4.619   4.151  16.680  0.00  0.00    +0.000 C 
ATOM     33  C   UNL     1       5.842   3.860  15.803  0.00  0.00    +0.000 C 
ATOM     34  C   UNL     1       7.025   4.743  16.178  0.00  0.00    +0.000 C 
ATOM     35  C   UNL     1       7.296   4.648  17.672  0.00  0.00    +0.000 C 
ATOM     36  C   UNL     1       6.032   4.927  18.486  0.00  0.00    +0.000 C 
ENDBRANCH  30  31
ENDBRANCH  29  30
ENDBRANCH  28  29
ENDBRANCH  25  28
ENDBRANCH  11  22
BRANCH   7  37
ATOM     37  O   UNL     1       2.898  15.365  17.904  0.00  0.00    +0.000 OA
ATOM     38  H   UNL     1       3.509  15.989  18.329  0.00  0.00    +0.000 HD
ENDBRANCH   7  37
TORSDOF 9
ENDMDL
MODEL 8
REMARK VINA RESULT:      -7.3      2.125      3.280
REMARK  Name = 
REMARK  10 active torsions:
REMARK  status: ('A' for Active; 'I' for Inactive)
REMARK    1  A    between atoms: C_1  and  O_2
REMARK    2  A    between atoms: O_2  and  C_3
REMARK    3  A    between atoms: C_5  and  O_6
REMARK    4  A    between atoms: C_9  and  C_10
REMARK    5  A    between atoms: C_16  and  O_17
REMARK    6  A    between atoms: C_21  and  C_22
REMARK    7  A    between atoms: C_25  and  O_26
REMARK    8  A    between atoms: O_26  and  C_27
REMARK    9  A    between atoms: C_27  and  C_28
REMARK   10  A    between atoms: C_28  and  N_29
REMARK                            x       y       z     vdW  Elec       q    Type
REMARK                         _______ _______ _______ _____ _____    ______ ____
ROOT
ATOM      1  C   UNL     1      -1.170  12.409  21.038  0.00  0.00    +0.000 C 
ATOM      2  C   UNL     1      -1.144  13.851  21.547  0.00  0.00    +0.000 C 
ATOM      3  O   UNL     1      -1.916  14.328  22.365  0.00  0.00    +0.000 OA
ATOM      4  C   UNL     1      -0.186  14.668  20.799  0.00  0.00    +0.000 A 
ATOM      5  C   UNL     1      -0.604  15.777  20.067  0.00  0.00    +0.000 A 
ATOM      6  C   UNL     1       0.249  16.290  19.088  0.00  0.00    +0.000 A 
ATOM      7  C   UNL     1       1.535  15.758  18.952  0.00  0.00    +0.000 A 
ATOM      8  C   UNL     1       1.969  14.703  19.744  0.00  0.00    +0.000 A 
ATOM      9  C   UNL     1       1.055  14.084  20.587  0.00  0.00    +0.000 A 
ATOM     10  O   UNL     1       1.382  12.846  21.047  0.00  0.00    +0.000 OA
ATOM     11  C   UNL     1       0.293  11.904  21.221  0.00  0.00    +0.000 C 
ENDROOT
BRANCH   1  17
ATOM     12  C   UNL     1      -3.427  12.306  19.685  0.00  0.00    +0.000 A 
ATOM     13  C   UNL     1      -4.001  11.670  18.573  0.00  0.00    +0.000 A 
ATOM     14  C   UNL     1      -3.235  11.358  17.462  0.00  0.00    +0.000 A 
ATOM     15  C   UNL     1      -1.901  11.714  17.418  0.00  0.00    +0.000 A 
ATOM     16  C   UNL     1      -1.296  12.246  18.558  0.00  0.00    +0.000 A 
ATOM     17  C   UNL     1      -2.030  12.470  19.754  0.00  0.00    +0.000 A 
BRANCH  12  19
ATOM     18  C   UNL     1      -5.058  13.771  20.568  0.00  0.00    +0.000 C 
ATOM     19  O   UNL     1      -4.211  12.628  20.749  0.00  0.00    +0.000 OA
ENDBRANCH  12  19
BRANCH  14  20
ATOM     20  O   UNL     1      -3.765  10.682  16.409  0.00  0.00    +0.000 OA
ATOM     21  H   UNL     1      -3.734  11.257  15.626  0.00  0.00    +0.000 HD
ENDBRANCH  14  20
ENDBRANCH   1  17
BRANCH  11  22
ATOM     22  C   UNL     1       0.686  10.592  20.556  0.00  0.00    +0.000 A 
ATOM     23  C   UNL     1       0.740   9.382  21.256  0.00  0.00    +0.000 A 
ATOM     24  C   UNL     1       1.285   8.219  20.670  0.00  0.00    +0.000 A 
ATOM     25  C   UNL     1       1.778   8.250  19.360  0.00  0.00    +0.000 A 
ATOM     26  C   UNL     1       1.651   9.426  18.635  0.00  0.00    +0.000 A 
ATOM     27  C   UNL     1       1.146  10.581  19.238  0.00  0.00    +0.000 A 
BRANCH  25  28
ATOM     28  O   UNL     1       2.447   7.257  18.697  0.00  0.00    +0.000 OA
BRANCH  28  29
ATOM     29  C   UNL     1       2.879   6.134  19.464  0.00  0.00    +0.000 C 
BRANCH  29  30
ATOM     30  C   UNL     1       3.400   5.017  18.532  0.00  0.00    +0.000 C 
BRANCH  30  31
ATOM     31  N   UNL     1       4.785   5.234  18.051  0.00  0.00    +0.000 NA
ATOM     32  C   UNL     1       5.733   5.255  19.178  0.00  0.00    +0.000 C 
ATOM     33  C   UNL     1       7.157   5.569  18.706  0.00  0.00    +0.000 C 
ATOM     34  C   UNL     1       7.619   4.596  17.628  0.00  0.00    +0.000 C 
ATOM     35  C   UNL     1       6.592   4.531  16.507  0.00  0.00    +0.000 C 
ATOM     36  C   UNL     1       5.194   4.238  17.049  0.00  0.00    +0.000 C 
ENDBRANCH  30  31
ENDBRANCH  29  30
ENDBRANCH  28  29
ENDBRANCH  25  28
ENDBRANCH  11  22
BRANCH   7  37
ATOM     37  O   UNL     1       2.377  16.184  17.968  0.00  0.00    +0.000 OA
ATOM     38  H   UNL     1       1.865  16.291  17.149  0.00  0.00    +0.000 HD
ENDBRANCH   7  37
TORSDOF 9
ENDMDL
MODEL 9
REMARK VINA RESULT:      -7.2      2.147      3.354
REMARK  Name = 
REMARK  10 active torsions:
REMARK  status: ('A' for Active; 'I' for Inactive)
REMARK    1  A    between atoms: C_1  and  O_2
REMARK    2  A    between atoms: O_2  and  C_3
REMARK    3  A    between atoms: C_5  and  O_6
REMARK    4  A    between atoms: C_9  and  C_10
REMARK    5  A    between atoms: C_16  and  O_17
REMARK    6  A    between atoms: C_21  and  C_22
REMARK    7  A    between atoms: C_25  and  O_26
REMARK    8  A    between atoms: O_26  and  C_27
REMARK    9  A    between atoms: C_27  and  C_28
REMARK   10  A    between atoms: C_28  and  N_29
REMARK                            x       y       z     vdW  Elec       q    Type
REMARK                         _______ _______ _______ _____ _____    ______ ____
ROOT
ATOM      1  C   UNL     1      -1.257  12.204  20.939  0.00  0.00    +0.000 C 
ATOM      2  C   UNL     1      -1.299  13.594  21.575  0.00  0.00    +0.000 C 
ATOM      3  O   UNL     1      -2.080  13.953  22.442  0.00  0.00    +0.000 OA
ATOM      4  C   UNL     1      -0.399  14.525  20.890  0.00  0.00    +0.000 A 
ATOM      5  C   UNL     1      -0.889  15.670  20.265  0.00  0.00    +0.000 A 
ATOM      6  C   UNL     1      -0.082  16.314  19.325  0.00  0.00    +0.000 A 
ATOM      7  C   UNL     1       1.227  15.867  19.124  0.00  0.00    +0.000 A 
ATOM      8  C   UNL     1       1.731  14.771  19.813  0.00  0.00    +0.000 A 
ATOM      9  C   UNL     1       0.868  14.031  20.609  0.00  0.00    +0.000 A 
ATOM     10  O   UNL     1       1.268  12.777  20.953  0.00  0.00    +0.000 OA
ATOM     11  C   UNL     1       0.234  11.765  21.056  0.00  0.00    +0.000 C 
ENDROOT
BRANCH   1  17
ATOM     12  C   UNL     1      -3.546  12.232  19.638  0.00  0.00    +0.000 A 
ATOM     13  C   UNL     1      -4.175  11.647  18.528  0.00  0.00    +0.000 A 
ATOM     14  C   UNL     1      -3.450  11.323  17.392  0.00  0.00    +0.000 A 
ATOM     15  C   UNL     1      -2.101  11.618  17.324  0.00  0.00    +0.000 A 
ATOM     16  C   UNL     1      -1.447  12.098  18.460  0.00  0.00    +0.000 A 
ATOM     17  C   UNL     1      -2.142  12.331  19.677  0.00  0.00    +0.000 A 
BRANCH  12  19
ATOM     18  C   UNL     1      -5.663  12.158  20.687  0.00  0.00    +0.000 C 
ATOM     19  O   UNL     1      -4.290  12.568  20.726  0.00  0.00    +0.000 OA
ENDBRANCH  12  19
BRANCH  14  20
ATOM     20  O   UNL     1      -4.034  10.695  16.339  0.00  0.00    +0.000 OA
ATOM     21  H   UNL     1      -4.960  10.508  16.568  0.00  0.00    +0.000 HD
ENDBRANCH  14  20
ENDBRANCH   1  17
BRANCH  11  22
ATOM     22  C   UNL     1       0.684  10.541  20.272  0.00  0.00    +0.000 A 
ATOM     23  C   UNL     1       0.801   9.275  20.856  0.00  0.00    +0.000 A 
ATOM     24  C   UNL     1       1.397   8.199  20.163  0.00  0.00    +0.000 A 
ATOM     25  C   UNL     1       1.879   8.374  18.861  0.00  0.00    +0.000 A 
ATOM     26  C   UNL     1       1.691   9.605  18.249  0.00  0.00    +0.000 A 
ATOM     27  C   UNL     1       1.136  10.673  18.957  0.00  0.00    +0.000 A 
BRANCH  25  28
ATOM     28  O   UNL     1       2.590   7.480  18.107  0.00  0.00    +0.000 OA
BRANCH  28  29
ATOM     29  C   UNL     1       3.115   6.334  18.774  0.00  0.00    +0.000 C 
BRANCH  29  30
ATOM     30  C   UNL     1       3.857   5.423  17.771  0.00  0.00    +0.000 C 
BRANCH  30  31
ATOM     31  N   UNL     1       5.334   5.538  17.836  0.00  0.00    +0.000 NA
ATOM     32  C   UNL     1       5.790   6.780  17.189  0.00  0.00    +0.000 C 
ATOM     33  C   UNL     1       7.320   6.870  17.167  0.00  0.00    +0.000 C 
ATOM     34  C   UNL     1       7.910   6.739  18.566  0.00  0.00    +0.000 C 
ATOM     35  C   UNL     1       7.371   5.490  19.247  0.00  0.00    +0.000 C 
ATOM     36  C   UNL     1       5.843   5.453  19.212  0.00  0.00    +0.000 C 
ENDBRANCH  30  31
ENDBRANCH  29  30
ENDBRANCH  28  29
ENDBRANCH  25  28
ENDBRANCH  11  22
BRANCH   7  37
ATOM     37  O   UNL     1       2.027  16.424  18.171  0.00  0.00    +0.000 OA
ATOM     38  H   UNL     1       1.625  16.266  17.301  0.00  0.00    +0.000 HD
ENDBRANCH   7  37
TORSDOF 9
ENDMDL
