MODEL 1
REMARK VINA RESULT:      -7.0      0.000      0.000
REMARK  Name = 
REMARK  15 active torsions:
REMARK  status: ('A' for Active; 'I' for Inactive)
REMARK    1  A    between atoms: C_1  and  C_2
REMARK    2  A    between atoms: C_2  and  O_3
REMARK    3  A    between atoms: O_3  and  C_4
REMARK    4  A    between atoms: C_7  and  C_8
REMARK    5  A    between atoms: C_11  and  O_12
REMARK    6  A    between atoms: O_12  and  C_13
REMARK    7  A    between atoms: C_13  and  C_14
REMARK    8  A    between atoms: C_14  and  C_15
REMARK    9  A    between atoms: C_15  and  O_16
REMARK   10  A    between atoms: O_16  and  C_17
REMARK   11  A    between atoms: C_25  and  C_26
REMARK   12  A    between atoms: C_26  and  C_27
REMARK   13  A    between atoms: C_27  and  O_29
REMARK   14  A    between atoms: C_30  and  O_31
REMARK   15  A    between atoms: O_31  and  C_32
REMARK                            x       y       z     vdW  Elec       q    Type
REMARK                         _______ _______ _______ _____ _____    ______ ____
ROOT
ATOM      1  C   UNL     1       6.162   6.254  16.556  0.00  0.00    +0.000 C 
ENDROOT
BRANCH   1   2
ATOM      2  O   UNL     1       5.092   5.554  17.203  0.00  0.00    +0.000 OA
BRANCH   2   6
ATOM      3  C   UNL     1       2.206   7.982  19.087  0.00  0.00    +0.000 A 
ATOM      4  C   UNL     1       2.759   8.361  17.865  0.00  0.00    +0.000 A 
ATOM      5  C   UNL     1       3.718   7.567  17.246  0.00  0.00    +0.000 A 
ATOM      6  C   UNL     1       4.162   6.368  17.822  0.00  0.00    +0.000 A 
ATOM      7  C   UNL     1       3.606   5.959  19.047  0.00  0.00    +0.000 A 
ATOM      8  C   UNL     1       2.647   6.783  19.671  0.00  0.00    +0.000 A 
BRANCH   3  12
ATOM      9  C   UNL     1      -0.366  10.346  20.094  0.00  0.00    +0.000 A 
ATOM     10  C   UNL     1      -0.393   9.758  21.336  0.00  0.00    +0.000 A 
ATOM     11  S   UNL     1       0.753   8.500  21.408  0.00  0.00    +0.000 S 
ATOM     12  C   UNL     1       1.173   8.792  19.755  0.00  0.00    +0.000 A 
ATOM     13  N   UNL     1       0.539   9.809  19.199  0.00  0.00    +0.000 NA
BRANCH   9  14
ATOM     14  O   UNL     1      -1.198  11.381  19.848  0.00  0.00    +0.000 OA
BRANCH  14  16
ATOM     15  C   UNL     1      -0.664  13.143  18.354  0.00  0.00    +0.000 C 
ATOM     16  C   UNL     1      -0.510  12.628  19.771  0.00  0.00    +0.000 C 
ENDBRANCH  14  16
ENDBRANCH   9  14
ENDBRANCH   3  12
BRANCH   7  17
ATOM     17  O   UNL     1       4.043   4.765  19.570  0.00  0.00    +0.000 OA
ATOM     18  C   UNL     1       3.048   3.859  20.036  0.00  0.00    +0.000 C 
ENDBRANCH   7  17
ENDBRANCH   2   6
ENDBRANCH   1   2
BRANCH   1  19
ATOM     19  C   UNL     1       7.277   6.606  17.527  0.00  0.00    +0.000 C 
BRANCH  19  20
ATOM     20  C   UNL     1       7.519   8.108  17.571  0.00  0.00    +0.000 C 
BRANCH  20  21
ATOM     21  O   UNL     1       8.492   8.357  18.588  0.00  0.00    +0.000 OA
BRANCH  21  22
ATOM     22  C   UNL     1       8.879   9.663  18.736  0.00  0.00    +0.000 A 
ATOM     23  C   UNL     1       8.452  10.511  17.704  0.00  0.00    +0.000 A 
ATOM     24  C   UNL     1       8.645  11.891  17.780  0.00  0.00    +0.000 A 
ATOM     25  C   UNL     1       9.249  12.402  18.916  0.00  0.00    +0.000 A 
ATOM     26  C   UNL     1       9.680  11.544  19.943  0.00  0.00    +0.000 A 
ATOM     27  C   UNL     1       9.559  10.173  19.844  0.00  0.00    +0.000 A 
ATOM     28  C   UNL     1       9.957  12.349  21.182  0.00  0.00    +0.000 C 
ATOM     29  C   UNL     1       8.937  13.489  20.902  0.00  0.00    +0.000 C 
ATOM     30  C   UNL     1       9.302  13.828  19.436  0.00  0.00    +0.000 C 
BRANCH  30  31
ATOM     31  C   UNL     1       8.622  14.847  18.531  0.00  0.00    +0.000 C 
BRANCH  31  32
ATOM     32  C   UNL     1       9.519  15.769  17.741  0.00  0.00    +0.000 C 
ATOM     33  O   UNL     1       9.499  16.990  17.778  0.00  0.00    +0.000 OA
BRANCH  32  34
ATOM     34  O   UNL     1      10.337  15.084  16.893  0.00  0.00    +0.000 OA
ATOM     35  H   UNL     1      10.193  15.281  15.947  0.00  0.00    +0.000 HD
ENDBRANCH  32  34
ENDBRANCH  31  32
ENDBRANCH  30  31
ENDBRANCH  21  22
ENDBRANCH  20  21
ENDBRANCH  19  20
ENDBRANCH   1  19
TORSDOF 13
ENDMDL
MODEL 2
REMARK VINA RESULT:      -7.0      5.356      7.209
REMARK  Name = 
REMARK  15 active torsions:
REMARK  status: ('A' for Active; 'I' for Inactive)
REMARK    1  A    between atoms: C_1  and  C_2
REMARK    2  A    between atoms: C_2  and  O_3
REMARK    3  A    between atoms: O_3  and  C_4
REMARK    4  A    between atoms: C_7  and  C_8
REMARK    5  A    between atoms: C_11  and  O_12
REMARK    6  A    between atoms: O_12  and  C_13
REMARK    7  A    between atoms: C_13  and  C_14
REMARK    8  A    between atoms: C_14  and  C_15
REMARK    9  A    between atoms: C_15  and  O_16
REMARK   10  A    between atoms: O_16  and  C_17
REMARK   11  A    between atoms: C_25  and  C_26
REMARK   12  A    between atoms: C_26  and  C_27
REMARK   13  A    between atoms: C_27  and  O_29
REMARK   14  A    between atoms: C_30  and  O_31
REMARK   15  A    between atoms: O_31  and  C_32
REMARK                            x       y       z     vdW  Elec       q    Type
REMARK                         _______ _______ _______ _____ _____    ______ ____
ROOT
ATOM      1  C   UNL     1       2.372   6.649  19.071  0.00  0.00    +0.000 C 
ENDROOT
BRANCH   1   2
ATOM      2  O   UNL     1       2.549   7.999  19.514  0.00  0.00    +0.000 OA
BRANCH   2   6
ATOM      3  C   UNL     1      -0.923  10.371  19.214  0.00  0.00    +0.000 A 
ATOM      4  C   UNL     1      -0.233   9.981  18.068  0.00  0.00    +0.000 A 
ATOM      5  C   UNL     1       0.917   9.207  18.164  0.00  0.00    +0.000 A 
ATOM      6  C   UNL     1       1.423   8.794  19.405  0.00  0.00    +0.000 A 
ATOM      7  C   UNL     1       0.734   9.163  20.573  0.00  0.00    +0.000 A 
ATOM      8  C   UNL     1      -0.422   9.963  20.461  0.00  0.00    +0.000 A 
BRANCH   3  12
ATOM      9  C   UNL     1      -4.095  11.961  18.420  0.00  0.00    +0.000 A 
ATOM     10  C   UNL     1      -3.950  12.759  19.530  0.00  0.00    +0.000 A 
ATOM     11  S   UNL     1      -2.479  12.406  20.311  0.00  0.00    +0.000 S 
ATOM     12  C   UNL     1      -2.156  11.173  19.141  0.00  0.00    +0.000 A 
ATOM     13  N   UNL     1      -3.065  11.071  18.188  0.00  0.00    +0.000 NA
BRANCH   9  14
ATOM     14  O   UNL     1      -5.200  12.105  17.656  0.00  0.00    +0.000 OA
BRANCH  14  16
ATOM     15  C   UNL     1      -7.377  13.003  17.383  0.00  0.00    +0.000 C 
ATOM     16  C   UNL     1      -6.302  12.639  18.387  0.00  0.00    +0.000 C 
ENDBRANCH  14  16
ENDBRANCH   9  14
ENDBRANCH   3  12
BRANCH   7  17
ATOM     17  O   UNL     1       1.241   8.719  21.772  0.00  0.00    +0.000 OA
ATOM     18  C   UNL     1       0.748   9.341  22.955  0.00  0.00    +0.000 C 
ENDBRANCH   7  17
ENDBRANCH   2   6
ENDBRANCH   1   2
BRANCH   1  19
ATOM     19  C   UNL     1       2.136   5.698  20.233  0.00  0.00    +0.000 C 
BRANCH  19  20
ATOM     20  C   UNL     1       1.921   4.272  19.746  0.00  0.00    +0.000 C 
BRANCH  20  21
ATOM     21  O   UNL     1       3.146   3.561  19.946  0.00  0.00    +0.000 OA
BRANCH  21  22
ATOM     22  C   UNL     1       4.103   3.739  18.981  0.00  0.00    +0.000 A 
ATOM     23  C   UNL     1       3.640   3.556  17.670  0.00  0.00    +0.000 A 
ATOM     24  C   UNL     1       4.456   3.837  16.574  0.00  0.00    +0.000 A 
ATOM     25  C   UNL     1       5.728   4.327  16.818  0.00  0.00    +0.000 A 
ATOM     26  C   UNL     1       6.185   4.502  18.135  0.00  0.00    +0.000 A 
ATOM     27  C   UNL     1       5.412   4.157  19.225  0.00  0.00    +0.000 A 
ATOM     28  C   UNL     1       7.417   5.363  18.125  0.00  0.00    +0.000 C 
ATOM     29  C   UNL     1       7.075   6.174  16.842  0.00  0.00    +0.000 C 
ATOM     30  C   UNL     1       6.703   5.018  15.880  0.00  0.00    +0.000 C 
BRANCH  30  31
ATOM     31  C   UNL     1       6.210   5.139  14.445  0.00  0.00    +0.000 C 
BRANCH  31  32
ATOM     32  C   UNL     1       7.216   4.881  13.349  0.00  0.00    +0.000 C 
ATOM     33  O   UNL     1       7.077   4.098  12.421  0.00  0.00    +0.000 OA
BRANCH  32  34
ATOM     34  O   UNL     1       8.370   5.578  13.542  0.00  0.00    +0.000 OA
ATOM     35  H   UNL     1       8.255   6.427  14.012  0.00  0.00    +0.000 HD
ENDBRANCH  32  34
ENDBRANCH  31  32
ENDBRANCH  30  31
ENDBRANCH  21  22
ENDBRANCH  20  21
ENDBRANCH  19  20
ENDBRANCH   1  19
TORSDOF 13
ENDMDL
MODEL 3
REMARK VINA RESULT:      -7.0      5.352      7.754
REMARK  Name = 
REMARK  15 active torsions:
REMARK  status: ('A' for Active; 'I' for Inactive)
REMARK    1  A    between atoms: C_1  and  C_2
REMARK    2  A    between atoms: C_2  and  O_3
REMARK    3  A    between atoms: O_3  and  C_4
REMARK    4  A    between atoms: C_7  and  C_8
REMARK    5  A    between atoms: C_11  and  O_12
REMARK    6  A    between atoms: O_12  and  C_13
REMARK    7  A    between atoms: C_13  and  C_14
REMARK    8  A    between atoms: C_14  and  C_15
REMARK    9  A    between atoms: C_15  and  O_16
REMARK   10  A    between atoms: O_16  and  C_17
REMARK   11  A    between atoms: C_25  and  C_26
REMARK   12  A    between atoms: C_26  and  C_27
REMARK   13  A    between atoms: C_27  and  O_29
REMARK   14  A    between atoms: C_30  and  O_31
REMARK   15  A    between atoms: O_31  and  C_32
REMARK                            x       y       z     vdW  Elec       q    Type
REMARK                         _______ _______ _______ _____ _____    ______ ____
ROOT
ATOM      1  C   UNL     1       1.091   6.609  20.441  0.00  0.00    +0.000 C 
ENDROOT
BRANCH   1   2
ATOM      2  O   UNL     1       1.795   7.723  21.003  0.00  0.00    +0.000 OA
BRANCH   2   6
ATOM      3  C   UNL     1      -0.608  10.982  22.176  0.00  0.00    +0.000 A 
ATOM      4  C   UNL     1      -0.325   9.954  23.074  0.00  0.00    +0.000 A 
ATOM      5  C   UNL     1       0.459   8.874  22.687  0.00  0.00    +0.000 A 
ATOM      6  C   UNL     1       0.989   8.777  21.392  0.00  0.00    +0.000 A 
ATOM      7  C   UNL     1       0.728   9.810  20.475  0.00  0.00    +0.000 A 
ATOM      8  C   UNL     1      -0.083  10.891  20.876  0.00  0.00    +0.000 A 
BRANCH   3  12
ATOM      9  C   UNL     1      -3.133  13.360  23.265  0.00  0.00    +0.000 A 
ATOM     10  C   UNL     1      -2.243  14.382  23.035  0.00  0.00    +0.000 A 
ATOM     11  S   UNL     1      -0.781  13.752  22.430  0.00  0.00    +0.000 S 
ATOM     12  C   UNL     1      -1.419  12.149  22.564  0.00  0.00    +0.000 A 
ATOM     13  N   UNL     1      -2.671  12.091  22.980  0.00  0.00    +0.000 NA
BRANCH   9  14
ATOM     14  O   UNL     1      -4.362  13.665  23.735  0.00  0.00    +0.000 OA
BRANCH  14  16
ATOM     15  C   UNL     1      -5.840  15.518  23.790  0.00  0.00    +0.000 C 
ATOM     16  C   UNL     1      -4.460  15.020  24.169  0.00  0.00    +0.000 C 
ENDBRANCH  14  16
ENDBRANCH   9  14
ENDBRANCH   3  12
BRANCH   7  17
ATOM     17  O   UNL     1       1.285   9.697  19.222  0.00  0.00    +0.000 OA
ATOM     18  C   UNL     1       1.535  10.907  18.513  0.00  0.00    +0.000 C 
ENDBRANCH   7  17
ENDBRANCH   2   6
ENDBRANCH   1   2
BRANCH   1  19
ATOM     19  C   UNL     1       1.680   5.282  20.891  0.00  0.00    +0.000 C 
BRANCH  19  20
ATOM     20  C   UNL     1       1.123   4.124  20.075  0.00  0.00    +0.000 C 
BRANCH  20  21
ATOM     21  O   UNL     1       2.148   3.132  19.983  0.00  0.00    +0.000 OA
BRANCH  21  22
ATOM     22  C   UNL     1       3.217   3.452  19.186  0.00  0.00    +0.000 A 
ATOM     23  C   UNL     1       2.931   3.451  17.812  0.00  0.00    +0.000 A 
ATOM     24  C   UNL     1       3.874   3.891  16.882  0.00  0.00    +0.000 A 
ATOM     25  C   UNL     1       5.090   4.353  17.357  0.00  0.00    +0.000 A 
ATOM     26  C   UNL     1       5.369   4.345  18.733  0.00  0.00    +0.000 A 
ATOM     27  C   UNL     1       4.472   3.844  19.655  0.00  0.00    +0.000 A 
ATOM     28  C   UNL     1       6.568   5.210  19.005  0.00  0.00    +0.000 C 
ATOM     29  C   UNL     1       6.372   6.190  17.813  0.00  0.00    +0.000 C 
ATOM     30  C   UNL     1       6.159   5.177  16.660  0.00  0.00    +0.000 C 
BRANCH  30  31
ATOM     31  C   UNL     1       5.852   5.494  15.202  0.00  0.00    +0.000 C 
BRANCH  31  32
ATOM     32  C   UNL     1       6.682   4.790  14.157  0.00  0.00    +0.000 C 
ATOM     33  O   UNL     1       6.432   3.702  13.659  0.00  0.00    +0.000 OA
BRANCH  32  34
ATOM     34  O   UNL     1       7.822   5.476  13.864  0.00  0.00    +0.000 OA
ATOM     35  H   UNL     1       7.759   6.441  14.002  0.00  0.00    +0.000 HD
ENDBRANCH  32  34
ENDBRANCH  31  32
ENDBRANCH  30  31
ENDBRANCH  21  22
ENDBRANCH  20  21
ENDBRANCH  19  20
ENDBRANCH   1  19
TORSDOF 13
ENDMDL
MODEL 4
REMARK VINA RESULT:      -6.9      4.979      7.468
REMARK  Name = 
REMARK  15 active torsions:
REMARK  status: ('A' for Active; 'I' for Inactive)
REMARK    1  A    between atoms: C_1  and  C_2
REMARK    2  A    between atoms: C_2  and  O_3
REMARK    3  A    between atoms: O_3  and  C_4
REMARK    4  A    between atoms: C_7  and  C_8
REMARK    5  A    between atoms: C_11  and  O_12
REMARK    6  A    between atoms: O_12  and  C_13
REMARK    7  A    between atoms: C_13  and  C_14
REMARK    8  A    between atoms: C_14  and  C_15
REMARK    9  A    between atoms: C_15  and  O_16
REMARK   10  A    between atoms: O_16  and  C_17
REMARK   11  A    between atoms: C_25  and  C_26
REMARK   12  A    between atoms: C_26  and  C_27
REMARK   13  A    between atoms: C_27  and  O_29
REMARK   14  A    between atoms: C_30  and  O_31
REMARK   15  A    between atoms: O_31  and  C_32
REMARK                            x       y       z     vdW  Elec       q    Type
REMARK                         _______ _______ _______ _____ _____    ______ ____
ROOT
ATOM      1  C   UNL     1       1.797   6.484  20.687  0.00  0.00    +0.000 C 
ENDROOT
BRANCH   1   2
ATOM      2  O   UNL     1       0.694   7.348  20.984  0.00  0.00    +0.000 OA
BRANCH   2   6
ATOM      3  C   UNL     1       1.143  11.357  19.759  0.00  0.00    +0.000 A 
ATOM      4  C   UNL     1       1.493  10.314  18.904  0.00  0.00    +0.000 A 
ATOM      5  C   UNL     1       1.355   8.992  19.308  0.00  0.00    +0.000 A 
ATOM      6  C   UNL     1       0.864   8.659  20.579  0.00  0.00    +0.000 A 
ATOM      7  C   UNL     1       0.490   9.696  21.452  0.00  0.00    +0.000 A 
ATOM      8  C   UNL     1       0.651  11.032  21.034  0.00  0.00    +0.000 A 
BRANCH   3  12
ATOM      9  C   UNL     1       0.855  14.938  19.204  0.00  0.00    +0.000 A 
ATOM     10  C   UNL     1       1.902  14.865  18.316  0.00  0.00    +0.000 A 
ATOM     11  S   UNL     1       2.431  13.253  18.174  0.00  0.00    +0.000 S 
ATOM     12  C   UNL     1       1.258  12.767  19.350  0.00  0.00    +0.000 A 
ATOM     13  N   UNL     1       0.476  13.741  19.779  0.00  0.00    +0.000 NA
BRANCH   9  14
ATOM     14  O   UNL     1       0.286  16.141  19.440  0.00  0.00    +0.000 OA
BRANCH  14  16
ATOM     15  C   UNL     1      -1.374  17.658  18.690  0.00  0.00    +0.000 C 
ATOM     16  C   UNL     1      -0.261  16.725  18.259  0.00  0.00    +0.000 C 
ENDBRANCH  14  16
ENDBRANCH   9  14
ENDBRANCH   3  12
BRANCH   7  17
ATOM     17  O   UNL     1      -0.013   9.335  22.680  0.00  0.00    +0.000 OA
ATOM     18  C   UNL     1      -0.925  10.239  23.297  0.00  0.00    +0.000 C 
ENDBRANCH   7  17
ENDBRANCH   2   6
ENDBRANCH   1   2
BRANCH   1  19
ATOM     19  C   UNL     1       1.343   5.058  20.420  0.00  0.00    +0.000 C 
BRANCH  19  20
ATOM     20  C   UNL     1       2.258   4.049  21.098  0.00  0.00    +0.000 C 
BRANCH  20  21
ATOM     21  O   UNL     1       2.613   3.067  20.122  0.00  0.00    +0.000 OA
BRANCH  21  22
ATOM     22  C   UNL     1       3.602   3.429  19.244  0.00  0.00    +0.000 A 
ATOM     23  C   UNL     1       3.264   3.260  17.894  0.00  0.00    +0.000 A 
ATOM     24  C   UNL     1       4.108   3.713  16.879  0.00  0.00    +0.000 A 
ATOM     25  C   UNL     1       5.278   4.356  17.245  0.00  0.00    +0.000 A 
ATOM     26  C   UNL     1       5.611   4.515  18.601  0.00  0.00    +0.000 A 
ATOM     27  C   UNL     1       4.819   4.006  19.609  0.00  0.00    +0.000 A 
ATOM     28  C   UNL     1       6.709   5.535  18.728  0.00  0.00    +0.000 C 
ATOM     29  C   UNL     1       6.348   6.364  17.463  0.00  0.00    +0.000 C 
ATOM     30  C   UNL     1       6.212   5.226  16.421  0.00  0.00    +0.000 C 
BRANCH  30  31
ATOM     31  C   UNL     1       5.809   5.361  14.958  0.00  0.00    +0.000 C 
BRANCH  31  32
ATOM     32  C   UNL     1       6.749   4.777  13.931  0.00  0.00    +0.000 C 
ATOM     33  O   UNL     1       6.549   3.768  13.272  0.00  0.00    +0.000 OA
BRANCH  32  34
ATOM     34  O   UNL     1       7.921   5.469  13.860  0.00  0.00    +0.000 OA
ATOM     35  H   UNL     1       8.132   5.812  12.970  0.00  0.00    +0.000 HD
ENDBRANCH  32  34
ENDBRANCH  31  32
ENDBRANCH  30  31
ENDBRANCH  21  22
ENDBRANCH  20  21
ENDBRANCH  19  20
ENDBRANCH   1  19
TORSDOF 13
ENDMDL
MODEL 5
REMARK VINA RESULT:      -6.9      3.792      6.444
REMARK  Name = 
REMARK  15 active torsions:
REMARK  status: ('A' for Active; 'I' for Inactive)
REMARK    1  A    between atoms: C_1  and  C_2
REMARK    2  A    between atoms: C_2  and  O_3
REMARK    3  A    between atoms: O_3  and  C_4
REMARK    4  A    between atoms: C_7  and  C_8
REMARK    5  A    between atoms: C_11  and  O_12
REMARK    6  A    between atoms: O_12  and  C_13
REMARK    7  A    between atoms: C_13  and  C_14
REMARK    8  A    between atoms: C_14  and  C_15
REMARK    9  A    between atoms: C_15  and  O_16
REMARK   10  A    between atoms: O_16  and  C_17
REMARK   11  A    between atoms: C_25  and  C_26
REMARK   12  A    between atoms: C_26  and  C_27
REMARK   13  A    between atoms: C_27  and  O_29
REMARK   14  A    between atoms: C_30  and  O_31
REMARK   15  A    between atoms: O_31  and  C_32
REMARK                            x       y       z     vdW  Elec       q    Type
REMARK                         _______ _______ _______ _____ _____    ______ ____
ROOT
ATOM      1  C   UNL     1       0.915   4.324  20.603  0.00  0.00    +0.000 C 
ENDROOT
BRANCH   1   2
ATOM      2  O   UNL     1       1.948   5.199  20.137  0.00  0.00    +0.000 OA
BRANCH   2   6
ATOM      3  C   UNL     1       1.096   9.319  20.395  0.00  0.00    +0.000 A 
ATOM      4  C   UNL     1       0.752   8.461  21.437  0.00  0.00    +0.000 A 
ATOM      5  C   UNL     1       1.023   7.101  21.351  0.00  0.00    +0.000 A 
ATOM      6  C   UNL     1       1.646   6.545  20.224  0.00  0.00    +0.000 A 
ATOM      7  C   UNL     1       2.015   7.396  19.167  0.00  0.00    +0.000 A 
ATOM      8  C   UNL     1       1.718   8.771  19.261  0.00  0.00    +0.000 A 
BRANCH   3  12
ATOM      9  C   UNL     1       0.562  12.800  21.300  0.00  0.00    +0.000 A 
ATOM     10  C   UNL     1       0.339  13.090  19.974  0.00  0.00    +0.000 A 
ATOM     11  S   UNL     1       0.451  11.670  19.042  0.00  0.00    +0.000 S 
ATOM     12  C   UNL     1       0.840  10.768  20.467  0.00  0.00    +0.000 A 
ATOM     13  N   UNL     1       0.829  11.475  21.583  0.00  0.00    +0.000 NA
BRANCH   9  14
ATOM     14  O   UNL     1       0.500  13.802  22.203  0.00  0.00    +0.000 OA
BRANCH  14  16
ATOM     15  C   UNL     1      -1.342  12.613  23.106  0.00  0.00    +0.000 C 
ATOM     16  C   UNL     1      -0.814  13.982  22.728  0.00  0.00    +0.000 C 
ENDBRANCH  14  16
ENDBRANCH   9  14
ENDBRANCH   3  12
BRANCH   7  17
ATOM     17  O   UNL     1       2.649   6.823  18.089  0.00  0.00    +0.000 OA
ATOM     18  C   UNL     1       3.442   7.681  17.273  0.00  0.00    +0.000 C 
ENDBRANCH   7  17
ENDBRANCH   2   6
ENDBRANCH   1   2
BRANCH   1  19
ATOM     19  C   UNL     1       1.123   2.896  20.123  0.00  0.00    +0.000 C 
BRANCH  19  20
ATOM     20  C   UNL     1       2.573   2.465  20.283  0.00  0.00    +0.000 C 
BRANCH  20  21
ATOM     21  O   UNL     1       3.105   2.252  18.973  0.00  0.00    +0.000 OA
BRANCH  21  22
ATOM     22  C   UNL     1       3.876   3.269  18.470  0.00  0.00    +0.000 A 
ATOM     23  C   UNL     1       4.577   3.994  19.444  0.00  0.00    +0.000 A 
ATOM     24  C   UNL     1       5.511   4.966  19.082  0.00  0.00    +0.000 A 
ATOM     25  C   UNL     1       5.742   5.177  17.733  0.00  0.00    +0.000 A 
ATOM     26  C   UNL     1       5.030   4.449  16.766  0.00  0.00    +0.000 A 
ATOM     27  C   UNL     1       4.053   3.538  17.113  0.00  0.00    +0.000 A 
ATOM     28  C   UNL     1       5.709   4.596  15.432  0.00  0.00    +0.000 C 
ATOM     29  C   UNL     1       7.152   4.805  15.973  0.00  0.00    +0.000 C 
ATOM     30  C   UNL     1       6.887   5.895  17.041  0.00  0.00    +0.000 C 
BRANCH  30  31
ATOM     31  C   UNL     1       7.901   6.516  17.993  0.00  0.00    +0.000 C 
BRANCH  31  32
ATOM     32  C   UNL     1       8.005   8.022  17.997  0.00  0.00    +0.000 C 
ATOM     33  O   UNL     1       8.770   8.683  18.683  0.00  0.00    +0.000 OA
BRANCH  32  34
ATOM     34  O   UNL     1       7.076   8.600  17.186  0.00  0.00    +0.000 OA
ATOM     35  H   UNL     1       6.426   7.976  16.808  0.00  0.00    +0.000 HD
ENDBRANCH  32  34
ENDBRANCH  31  32
ENDBRANCH  30  31
ENDBRANCH  21  22
ENDBRANCH  20  21
ENDBRANCH  19  20
ENDBRANCH   1  19
TORSDOF 13
ENDMDL
MODEL 6
REMARK VINA RESULT:      -6.8      5.431      7.888
REMARK  Name = 
REMARK  15 active torsions:
REMARK  status: ('A' for Active; 'I' for Inactive)
REMARK    1  A    between atoms: C_1  and  C_2
REMARK    2  A    between atoms: C_2  and  O_3
REMARK    3  A    between atoms: O_3  and  C_4
REMARK    4  A    between atoms: C_7  and  C_8
REMARK    5  A    between atoms: C_11  and  O_12
REMARK    6  A    between atoms: O_12  and  C_13
REMARK    7  A    between atoms: C_13  and  C_14
REMARK    8  A    between atoms: C_14  and  C_15
REMARK    9  A    between atoms: C_15  and  O_16
REMARK   10  A    between atoms: O_16  and  C_17
REMARK   11  A    between atoms: C_25  and  C_26
REMARK   12  A    between atoms: C_26  and  C_27
REMARK   13  A    between atoms: C_27  and  O_29
REMARK   14  A    between atoms: C_30  and  O_31
REMARK   15  A    between atoms: O_31  and  C_32
REMARK                            x       y       z     vdW  Elec       q    Type
REMARK                         _______ _______ _______ _____ _____    ______ ____
ROOT
ATOM      1  C   UNL     1       1.970   9.248  17.912  0.00  0.00    +0.000 C 
ENDROOT
BRANCH   1   2
ATOM      2  O   UNL     1       1.353   9.855  19.053  0.00  0.00    +0.000 OA
BRANCH   2   6
ATOM      3  C   UNL     1      -2.597  11.206  18.464  0.00  0.00    +0.000 A 
ATOM      4  C   UNL     1      -2.029  10.282  17.588  0.00  0.00    +0.000 A 
ATOM      5  C   UNL     1      -0.724   9.843  17.775  0.00  0.00    +0.000 A 
ATOM      6  C   UNL     1       0.064  10.307  18.839  0.00  0.00    +0.000 A 
ATOM      7  C   UNL     1      -0.495  11.227  19.742  0.00  0.00    +0.000 A 
ATOM      8  C   UNL     1      -1.814  11.677  19.531  0.00  0.00    +0.000 A 
BRANCH   3  12
ATOM      9  C   UNL     1      -5.995  12.455  18.801  0.00  0.00    +0.000 A 
ATOM     10  C   UNL     1      -6.166  12.298  17.446  0.00  0.00    +0.000 A 
ATOM     11  S   UNL     1      -4.751  11.654  16.753  0.00  0.00    +0.000 S 
ATOM     12  C   UNL     1      -3.985  11.674  18.304  0.00  0.00    +0.000 A 
ATOM     13  N   UNL     1      -4.759  12.082  19.293  0.00  0.00    +0.000 NA
BRANCH   9  14
ATOM     14  O   UNL     1      -7.020  12.943  19.533  0.00  0.00    +0.000 OA
BRANCH  14  16
ATOM     15  C   UNL     1      -7.363  15.186  20.219  0.00  0.00    +0.000 C 
ATOM     16  C   UNL     1      -6.594  13.909  20.491  0.00  0.00    +0.000 C 
ENDBRANCH  14  16
ENDBRANCH   9  14
ENDBRANCH   3  12
BRANCH   7  17
ATOM     17  O   UNL     1       0.294  11.641  20.790  0.00  0.00    +0.000 OA
ATOM     18  C   UNL     1      -0.371  12.166  21.934  0.00  0.00    +0.000 C 
ENDBRANCH   7  17
ENDBRANCH   2   6
ENDBRANCH   1   2
BRANCH   1  19
ATOM     19  C   UNL     1       2.200   7.759  18.118  0.00  0.00    +0.000 C 
BRANCH  19  20
ATOM     20  C   UNL     1       2.141   7.389  19.593  0.00  0.00    +0.000 C 
BRANCH  20  21
ATOM     21  O   UNL     1       2.235   5.966  19.682  0.00  0.00    +0.000 OA
BRANCH  21  22
ATOM     22  C   UNL     1       3.329   5.401  19.079  0.00  0.00    +0.000 A 
ATOM     23  C   UNL     1       3.022   4.566  17.995  0.00  0.00    +0.000 A 
ATOM     24  C   UNL     1       4.030   4.030  17.193  0.00  0.00    +0.000 A 
ATOM     25  C   UNL     1       5.341   4.368  17.482  0.00  0.00    +0.000 A 
ATOM     26  C   UNL     1       5.639   5.201  18.573  0.00  0.00    +0.000 A 
ATOM     27  C   UNL     1       4.655   5.676  19.416  0.00  0.00    +0.000 A 
ATOM     28  C   UNL     1       7.054   5.695  18.452  0.00  0.00    +0.000 C 
ATOM     29  C   UNL     1       7.140   5.653  16.899  0.00  0.00    +0.000 C 
ATOM     30  C   UNL     1       6.594   4.227  16.635  0.00  0.00    +0.000 C 
BRANCH  30  31
ATOM     31  C   UNL     1       6.362   3.567  15.282  0.00  0.00    +0.000 C 
BRANCH  31  32
ATOM     32  C   UNL     1       6.524   4.436  14.058  0.00  0.00    +0.000 C 
ATOM     33  O   UNL     1       7.267   5.401  13.960  0.00  0.00    +0.000 OA
BRANCH  32  34
ATOM     34  O   UNL     1       5.673   4.073  13.058  0.00  0.00    +0.000 OA
ATOM     35  H   UNL     1       4.933   3.503  13.345  0.00  0.00    +0.000 HD
ENDBRANCH  32  34
ENDBRANCH  31  32
ENDBRANCH  30  31
ENDBRANCH  21  22
ENDBRANCH  20  21
ENDBRANCH  19  20
ENDBRANCH   1  19
TORSDOF 13
ENDMDL
MODEL 7
REMARK VINA RESULT:      -6.8      3.972      6.650
REMARK  Name = 
REMARK  15 active torsions:
REMARK  status: ('A' for Active; 'I' for Inactive)
REMARK    1  A    between atoms: C_1  and  C_2
REMARK    2  A    between atoms: C_2  and  O_3
REMARK    3  A    between atoms: O_3  and  C_4
REMARK    4  A    between atoms: C_7  and  C_8
REMARK    5  A    between atoms: C_11  and  O_12
REMARK    6  A    between atoms: O_12  and  C_13
REMARK    7  A    between atoms: C_13  and  C_14
REMARK    8  A    between atoms: C_14  and  C_15
REMARK    9  A    between atoms: C_15  and  O_16
REMARK   10  A    between atoms: O_16  and  C_17
REMARK   11  A    between atoms: C_25  and  C_26
REMARK   12  A    between atoms: C_26  and  C_27
REMARK   13  A    between atoms: C_27  and  O_29
REMARK   14  A    between atoms: C_30  and  O_31
REMARK   15  A    between atoms: O_31  and  C_32
REMARK                            x       y       z     vdW  Elec       q    Type
REMARK                         _______ _______ _______ _____ _____    ______ ____
ROOT
ATOM      1  C   UNL     1       1.165   4.683  19.921  0.00  0.00    +0.000 C 
ENDROOT
BRANCH   1   2
ATOM      2  O   UNL     1       1.762   5.598  20.848  0.00  0.00    +0.000 OA
BRANCH   2   6
ATOM      3  C   UNL     1       0.622   9.630  20.391  0.00  0.00    +0.000 A 
ATOM      4  C   UNL     1       0.100   8.863  21.430  0.00  0.00    +0.000 A 
ATOM      5  C   UNL     1       0.467   7.530  21.578  0.00  0.00    +0.000 A 
ATOM      6  C   UNL     1       1.366   6.913  20.695  0.00  0.00    +0.000 A 
ATOM      7  C   UNL     1       1.915   7.674  19.649  0.00  0.00    +0.000 A 
ATOM      8  C   UNL     1       1.521   9.019  19.502  0.00  0.00    +0.000 A 
BRANCH   3  12
ATOM      9  C   UNL     1      -0.944  12.897  20.082  0.00  0.00    +0.000 A 
ATOM     10  C   UNL     1       0.295  13.447  19.850  0.00  0.00    +0.000 A 
ATOM     11  S   UNL     1       1.483  12.227  19.859  0.00  0.00    +0.000 S 
ATOM     12  C   UNL     1       0.268  11.050  20.223  0.00  0.00    +0.000 A 
ATOM     13  N   UNL     1      -0.962  11.530  20.275  0.00  0.00    +0.000 NA
BRANCH   9  14
ATOM     14  O   UNL     1      -2.022  13.710  20.097  0.00  0.00    +0.000 OA
BRANCH  14  16
ATOM     15  C   UNL     1      -2.499  14.042  22.396  0.00  0.00    +0.000 C 
ATOM     16  C   UNL     1      -2.953  13.362  21.120  0.00  0.00    +0.000 C 
ENDBRANCH  14  16
ENDBRANCH   9  14
ENDBRANCH   3  12
BRANCH   7  17
ATOM     17  O   UNL     1       2.814   7.046  18.818  0.00  0.00    +0.000 OA
ATOM     18  C   UNL     1       3.176   7.729  17.621  0.00  0.00    +0.000 C 
ENDBRANCH   7  17
ENDBRANCH   2   6
ENDBRANCH   1   2
BRANCH   1  19
ATOM     19  C   UNL     1       1.172   3.258  20.449  0.00  0.00    +0.000 C 
BRANCH  19  20
ATOM     20  C   UNL     1       1.498   2.261  19.346  0.00  0.00    +0.000 C 
BRANCH  20  21
ATOM     21  O   UNL     1       2.914   2.061  19.354  0.00  0.00    +0.000 OA
BRANCH  21  22
ATOM     22  C   UNL     1       3.659   3.054  18.774  0.00  0.00    +0.000 A 
ATOM     23  C   UNL     1       4.501   3.737  19.664  0.00  0.00    +0.000 A 
ATOM     24  C   UNL     1       5.423   4.678  19.204  0.00  0.00    +0.000 A 
ATOM     25  C   UNL     1       5.499   4.900  17.839  0.00  0.00    +0.000 A 
ATOM     26  C   UNL     1       4.648   4.216  16.956  0.00  0.00    +0.000 A 
ATOM     27  C   UNL     1       3.684   3.338  17.407  0.00  0.00    +0.000 A 
ATOM     28  C   UNL     1       5.167   4.358  15.552  0.00  0.00    +0.000 C 
ATOM     29  C   UNL     1       6.672   4.503  15.917  0.00  0.00    +0.000 C 
ATOM     30  C   UNL     1       6.581   5.585  17.022  0.00  0.00    +0.000 C 
BRANCH  30  31
ATOM     31  C   UNL     1       7.726   6.151  17.852  0.00  0.00    +0.000 C 
BRANCH  31  32
ATOM     32  C   UNL     1       7.869   7.653  17.889  0.00  0.00    +0.000 C 
ATOM     33  O   UNL     1       8.582   8.285  18.655  0.00  0.00    +0.000 OA
BRANCH  32  34
ATOM     34  O   UNL     1       7.038   8.268  17.001  0.00  0.00    +0.000 OA
ATOM     35  H   UNL     1       7.230   9.215  16.858  0.00  0.00    +0.000 HD
ENDBRANCH  32  34
ENDBRANCH  31  32
ENDBRANCH  30  31
ENDBRANCH  21  22
ENDBRANCH  20  21
ENDBRANCH  19  20
ENDBRANCH   1  19
TORSDOF 13
ENDMDL
MODEL 8
REMARK VINA RESULT:      -6.8      5.201      7.047
REMARK  Name = 
REMARK  15 active torsions:
REMARK  status: ('A' for Active; 'I' for Inactive)
REMARK    1  A    between atoms: C_1  and  C_2
REMARK    2  A    between atoms: C_2  and  O_3
REMARK    3  A    between atoms: O_3  and  C_4
REMARK    4  A    between atoms: C_7  and  C_8
REMARK    5  A    between atoms: C_11  and  O_12
REMARK    6  A    between atoms: O_12  and  C_13
REMARK    7  A    between atoms: C_13  and  C_14
REMARK    8  A    between atoms: C_14  and  C_15
REMARK    9  A    between atoms: C_15  and  O_16
REMARK   10  A    between atoms: O_16  and  C_17
REMARK   11  A    between atoms: C_25  and  C_26
REMARK   12  A    between atoms: C_26  and  C_27
REMARK   13  A    between atoms: C_27  and  O_29
REMARK   14  A    between atoms: C_30  and  O_31
REMARK   15  A    between atoms: O_31  and  C_32
REMARK                            x       y       z     vdW  Elec       q    Type
REMARK                         _______ _______ _______ _____ _____    ______ ____
ROOT
ATOM      1  C   UNL     1       1.315   5.196  19.667  0.00  0.00    +0.000 C 
ENDROOT
BRANCH   1   2
ATOM      2  O   UNL     1       2.288   6.191  20.005  0.00  0.00    +0.000 OA
BRANCH   2   6
ATOM      3  C   UNL     1       0.780  10.090  20.548  0.00  0.00    +0.000 A 
ATOM      4  C   UNL     1       0.931   9.233  21.637  0.00  0.00    +0.000 A 
ATOM      5  C   UNL     1       1.419   7.944  21.460  0.00  0.00    +0.000 A 
ATOM      6  C   UNL     1       1.773   7.460  20.192  0.00  0.00    +0.000 A 
ATOM      7  C   UNL     1       1.643   8.313  19.082  0.00  0.00    +0.000 A 
ATOM      8  C   UNL     1       1.130   9.612  19.275  0.00  0.00    +0.000 A 
BRANCH   3  12
ATOM      9  C   UNL     1      -0.271  13.390  21.656  0.00  0.00    +0.000 A 
ATOM     10  C   UNL     1      -0.645  13.682  20.366  0.00  0.00    +0.000 A 
ATOM     11  S   UNL     1      -0.366  12.336  19.361  0.00  0.00    +0.000 S 
ATOM     12  C   UNL     1       0.285  11.468  20.708  0.00  0.00    +0.000 A 
ATOM     13  N   UNL     1       0.242  12.123  21.855  0.00  0.00    +0.000 NA
BRANCH   9  14
ATOM     14  O   UNL     1      -0.432  14.333  22.608  0.00  0.00    +0.000 OA
BRANCH  14  16
ATOM     15  C   UNL     1      -2.654  14.762  23.316  0.00  0.00    +0.000 C 
ATOM     16  C   UNL     1      -1.398  13.959  23.588  0.00  0.00    +0.000 C 
ENDBRANCH  14  16
ENDBRANCH   9  14
ENDBRANCH   3  12
BRANCH   7  17
ATOM     17  O   UNL     1       2.025   7.816  17.857  0.00  0.00    +0.000 OA
ATOM     18  C   UNL     1       3.386   7.998  17.481  0.00  0.00    +0.000 C 
ENDBRANCH   7  17
ENDBRANCH   2   6
ENDBRANCH   1   2
BRANCH   1  19
ATOM     19  C   UNL     1       1.246   4.093  20.711  0.00  0.00    +0.000 C 
BRANCH  19  20
ATOM     20  C   UNL     1       2.613   3.465  20.943  0.00  0.00    +0.000 C 
BRANCH  20  21
ATOM     21  O   UNL     1       2.933   2.692  19.783  0.00  0.00    +0.000 OA
BRANCH  21  22
ATOM     22  C   UNL     1       3.924   3.199  18.984  0.00  0.00    +0.000 A 
ATOM     23  C   UNL     1       3.638   3.152  17.611  0.00  0.00    +0.000 A 
ATOM     24  C   UNL     1       4.483   3.756  16.680  0.00  0.00    +0.000 A 
ATOM     25  C   UNL     1       5.601   4.424  17.151  0.00  0.00    +0.000 A 
ATOM     26  C   UNL     1       5.882   4.460  18.527  0.00  0.00    +0.000 A 
ATOM     27  C   UNL     1       5.092   3.805  19.450  0.00  0.00    +0.000 A 
ATOM     28  C   UNL     1       6.911   5.523  18.798  0.00  0.00    +0.000 C 
ATOM     29  C   UNL     1       6.539   6.457  17.611  0.00  0.00    +0.000 C 
ATOM     30  C   UNL     1       6.504   5.427  16.454  0.00  0.00    +0.000 C 
BRANCH  30  31
ATOM     31  C   UNL     1       6.138   5.689  14.999  0.00  0.00    +0.000 C 
BRANCH  31  32
ATOM     32  C   UNL     1       6.834   4.850  13.955  0.00  0.00    +0.000 C 
ATOM     33  O   UNL     1       6.557   3.696  13.665  0.00  0.00    +0.000 OA
BRANCH  32  34
ATOM     34  O   UNL     1       7.892   5.504  13.397  0.00  0.00    +0.000 OA
ATOM     35  H   UNL     1       7.922   6.461  13.590  0.00  0.00    +0.000 HD
ENDBRANCH  32  34
ENDBRANCH  31  32
ENDBRANCH  30  31
ENDBRANCH  21  22
ENDBRANCH  20  21
ENDBRANCH  19  20
ENDBRANCH   1  19
TORSDOF 13
ENDMDL
MODEL 9
REMARK VINA RESULT:      -6.7      4.297      7.250
REMARK  Name = 
REMARK  15 active torsions:
REMARK  status: ('A' for Active; 'I' for Inactive)
REMARK    1  A    between atoms: C_1  and  C_2
REMARK    2  A    between atoms: C_2  and  O_3
REMARK    3  A    between atoms: O_3  and  C_4
REMARK    4  A    between atoms: C_7  and  C_8
REMARK    5  A    between atoms: C_11  and  O_12
REMARK    6  A    between atoms: O_12  and  C_13
REMARK    7  A    between atoms: C_13  and  C_14
REMARK    8  A    between atoms: C_14  and  C_15
REMARK    9  A    between atoms: C_15  and  O_16
REMARK   10  A    between atoms: O_16  and  C_17
REMARK   11  A    between atoms: C_25  and  C_26
REMARK   12  A    between atoms: C_26  and  C_27
REMARK   13  A    between atoms: C_27  and  O_29
REMARK   14  A    between atoms: C_30  and  O_31
REMARK   15  A    between atoms: O_31  and  C_32
REMARK                            x       y       z     vdW  Elec       q    Type
REMARK                         _______ _______ _______ _____ _____    ______ ____
ROOT
ATOM      1  C   UNL     1       2.448   7.036  19.731  0.00  0.00    +0.000 C 
ENDROOT
BRANCH   1   2
ATOM      2  O   UNL     1       1.423   7.689  18.973  0.00  0.00    +0.000 OA
BRANCH   2   6
ATOM      3  C   UNL     1       1.420  11.899  19.186  0.00  0.00    +0.000 A 
ATOM      4  C   UNL     1       2.028  11.247  18.116  0.00  0.00    +0.000 A 
ATOM      5  C   UNL     1       2.039   9.860  18.047  0.00  0.00    +0.000 A 
ATOM      6  C   UNL     1       1.445   9.070  19.043  0.00  0.00    +0.000 A 
ATOM      7  C   UNL     1       0.813   9.708  20.124  0.00  0.00    +0.000 A 
ATOM      8  C   UNL     1       0.824  11.116  20.189  0.00  0.00    +0.000 A 
BRANCH   3  12
ATOM      9  C   UNL     1       1.754  15.501  18.816  0.00  0.00    +0.000 A 
ATOM     10  C   UNL     1       0.947  15.669  19.917  0.00  0.00    +0.000 A 
ATOM     11  S   UNL     1       0.500  14.152  20.546  0.00  0.00    +0.000 S 
ATOM     12  C   UNL     1       1.374  13.369  19.275  0.00  0.00    +0.000 A 
ATOM     13  N   UNL     1       2.013  14.191  18.462  0.00  0.00    +0.000 NA
BRANCH   9  14
ATOM     14  O   UNL     1       2.226  16.597  18.184  0.00  0.00    +0.000 OA
BRANCH  14  16
ATOM     15  C   UNL     1       4.573  16.713  18.507  0.00  0.00    +0.000 C 
ATOM     16  C   UNL     1       3.471  16.355  17.530  0.00  0.00    +0.000 C 
ENDBRANCH  14  16
ENDBRANCH   9  14
ENDBRANCH   3  12
BRANCH   7  17
ATOM     17  O   UNL     1       0.217   8.905  21.069  0.00  0.00    +0.000 OA
ATOM     18  C   UNL     1       0.334   9.309  22.429  0.00  0.00    +0.000 C 
ENDBRANCH   7  17
ENDBRANCH   2   6
ENDBRANCH   1   2
BRANCH   1  19
ATOM     19  C   UNL     1       1.931   5.783  20.419  0.00  0.00    +0.000 C 
BRANCH  19  20
ATOM     20  C   UNL     1       1.999   4.576  19.494  0.00  0.00    +0.000 C 
BRANCH  20  21
ATOM     21  O   UNL     1       3.183   3.847  19.825  0.00  0.00    +0.000 OA
BRANCH  21  22
ATOM     22  C   UNL     1       4.218   3.955  18.933  0.00  0.00    +0.000 A 
ATOM     23  C   UNL     1       3.935   3.442  17.658  0.00  0.00    +0.000 A 
ATOM     24  C   UNL     1       4.833   3.604  16.603  0.00  0.00    +0.000 A 
ATOM     25  C   UNL     1       6.002   4.306  16.844  0.00  0.00    +0.000 A 
ATOM     26  C   UNL     1       6.280   4.810  18.126  0.00  0.00    +0.000 A 
ATOM     27  C   UNL     1       5.432   4.593  19.193  0.00  0.00    +0.000 A 
ATOM     28  C   UNL     1       7.395   5.814  18.036  0.00  0.00    +0.000 C 
ATOM     29  C   UNL     1       7.111   6.288  16.582  0.00  0.00    +0.000 C 
ATOM     30  C   UNL     1       6.992   4.919  15.868  0.00  0.00    +0.000 C 
BRANCH  30  31
ATOM     31  C   UNL     1       6.657   4.671  14.403  0.00  0.00    +0.000 C 
BRANCH  31  32
ATOM     32  C   UNL     1       7.674   5.119  13.382  0.00  0.00    +0.000 C 
ATOM     33  O   UNL     1       8.612   5.874  13.591  0.00  0.00    +0.000 OA
BRANCH  32  34
ATOM     34  O   UNL     1       7.392   4.642  12.137  0.00  0.00    +0.000 OA
ATOM     35  H   UNL     1       8.167   4.296  11.653  0.00  0.00    +0.000 HD
ENDBRANCH  32  34
ENDBRANCH  31  32
ENDBRANCH  30  31
ENDBRANCH  21  22
ENDBRANCH  20  21
ENDBRANCH  19  20
ENDBRANCH   1  19
TORSDOF 13
ENDMDL
