MODEL 1
REMARK VINA RESULT:      -8.1      0.000      0.000
REMARK  Name = 
REMARK  4 active torsions:
REMARK  status: ('A' for Active; 'I' for Inactive)
REMARK    1  A    between atoms: C_2  and  C_16
REMARK    2  A    between atoms: N_3  and  C_4
REMARK    3  A    between atoms: C_4  and  C_5
REMARK    4  A    between atoms: C_6  and  O_7
REMARK                            x       y       z     vdW  Elec       q    Type
REMARK                         _______ _______ _______ _____ _____    ______ ____
ROOT
ATOM      1  O   UNL     1       1.879   5.020  18.646  0.00  0.00    +0.000 OA
ATOM      2  C   UNL     1       2.864   5.711  18.932  0.00  0.00    +0.000 C 
ATOM      3  N   UNL     1       2.776   6.809  19.751  0.00  0.00    +0.000 N 
ATOM      4  H   UNL     1       3.556   7.453  19.833  0.00  0.00    +0.000 HD
ENDROOT
BRANCH   2   5
ATOM      5  C   UNL     1       4.210   5.448  18.341  0.00  0.00    +0.000 A 
ATOM      6  C   UNL     1       5.373   5.229  19.212  0.00  0.00    +0.000 A 
ATOM      7  C   UNL     1       6.596   4.968  18.716  0.00  0.00    +0.000 A 
ATOM      8  C   UNL     1       6.783   4.910  17.309  0.00  0.00    +0.000 A 
ATOM      9  N   UNL     1       7.821   4.660  16.543  0.00  0.00    +0.000 NA
ATOM     10  N   UNL     1       7.412   4.756  15.228  0.00  0.00    +0.000 NA
ATOM     11  C   UNL     1       6.133   5.060  15.228  0.00  0.00    +0.000 A 
ATOM     12  N   UNL     1       5.680   5.162  16.513  0.00  0.00    +0.000 N 
ATOM     13  C   UNL     1       4.408   5.438  17.004  0.00  0.00    +0.000 A 
ENDBRANCH   2   5
BRANCH   3  14
ATOM     14  C   UNL     1       1.512   7.228  20.313  0.00  0.00    +0.000 C 
BRANCH  14  15
ATOM     15  C   UNL     1       1.186   8.680  20.039  0.00  0.00    +0.000 A 
ATOM     16  C   UNL     1       1.549   9.280  18.818  0.00  0.00    +0.000 A 
ATOM     17  C   UNL     1       1.317  10.631  18.575  0.00  0.00    +0.000 A 
ATOM     18  C   UNL     1       0.693  11.419  19.534  0.00  0.00    +0.000 A 
ATOM     19  C   UNL     1       0.279  10.859  20.748  0.00  0.00    +0.000 A 
ATOM     20  C   UNL     1       0.541   9.494  21.023  0.00  0.00    +0.000 A 
ATOM     21  C   UNL     1       0.090   8.913  22.353  0.00  0.00    +0.000 C 
ATOM     22  C   UNL     1      -0.304   9.940  23.417  0.00  0.00    +0.000 C 
ATOM     23  C   UNL     1      -1.174  11.026  22.813  0.00  0.00    +0.000 C 
ATOM     24  C   UNL     1      -0.387  11.778  21.747  0.00  0.00    +0.000 C 
BRANCH  16  25
ATOM     25  O   UNL     1       2.187   8.639  17.791  0.00  0.00    +0.000 OA
ATOM     26  H   UNL     1       1.603   7.977  17.359  0.00  0.00    +0.000 HD
ENDBRANCH  16  25
ENDBRANCH  14  15
ENDBRANCH   3  14
TORSDOF 4
ENDMDL
MODEL 2
REMARK VINA RESULT:      -8.0      0.894      1.408
REMARK  Name = 
REMARK  4 active torsions:
REMARK  status: ('A' for Active; 'I' for Inactive)
REMARK    1  A    between atoms: C_2  and  C_16
REMARK    2  A    between atoms: N_3  and  C_4
REMARK    3  A    between atoms: C_4  and  C_5
REMARK    4  A    between atoms: C_6  and  O_7
REMARK                            x       y       z     vdW  Elec       q    Type
REMARK                         _______ _______ _______ _____ _____    ______ ____
ROOT
ATOM      1  O   UNL     1       2.584   4.886  20.716  0.00  0.00    +0.000 OA
ATOM      2  C   UNL     1       3.017   5.647  19.843  0.00  0.00    +0.000 C 
ATOM      3  N   UNL     1       2.568   6.938  19.708  0.00  0.00    +0.000 N 
ATOM      4  H   UNL     1       2.810   7.482  18.887  0.00  0.00    +0.000 HD
ENDROOT
BRANCH   2   5
ATOM      5  C   UNL     1       4.003   5.193  18.819  0.00  0.00    +0.000 A 
ATOM      6  C   UNL     1       3.542   4.650  17.533  0.00  0.00    +0.000 A 
ATOM      7  C   UNL     1       4.401   4.251  16.578  0.00  0.00    +0.000 A 
ATOM      8  C   UNL     1       5.799   4.343  16.812  0.00  0.00    +0.000 A 
ATOM      9  N   UNL     1       6.859   4.064  16.086  0.00  0.00    +0.000 NA
ATOM     10  N   UNL     1       7.979   4.344  16.844  0.00  0.00    +0.000 NA
ATOM     11  C   UNL     1       7.570   4.789  18.012  0.00  0.00    +0.000 A 
ATOM     12  N   UNL     1       6.205   4.819  18.047  0.00  0.00    +0.000 N 
ATOM     13  C   UNL     1       5.334   5.232  19.049  0.00  0.00    +0.000 A 
ENDBRANCH   2   5
BRANCH   3  14
ATOM     14  C   UNL     1       1.544   7.473  20.578  0.00  0.00    +0.000 C 
BRANCH  14  15
ATOM     15  C   UNL     1       1.089   8.860  20.182  0.00  0.00    +0.000 A 
ATOM     16  C   UNL     1       1.410   9.389  18.919  0.00  0.00    +0.000 A 
ATOM     17  C   UNL     1       1.057  10.689  18.563  0.00  0.00    +0.000 A 
ATOM     18  C   UNL     1       0.350  11.491  19.451  0.00  0.00    +0.000 A 
ATOM     19  C   UNL     1      -0.026  10.995  20.705  0.00  0.00    +0.000 A 
ATOM     20  C   UNL     1       0.358   9.688  21.093  0.00  0.00    +0.000 A 
ATOM     21  C   UNL     1      -0.055   9.178  22.464  0.00  0.00    +0.000 C 
ATOM     22  C   UNL     1      -0.556  10.246  23.438  0.00  0.00    +0.000 C 
ATOM     23  C   UNL     1      -1.515  11.193  22.741  0.00  0.00    +0.000 C 
ATOM     24  C   UNL     1      -0.788  11.926  21.622  0.00  0.00    +0.000 C 
BRANCH  16  25
ATOM     25  O   UNL     1       2.118   8.730  17.951  0.00  0.00    +0.000 OA
ATOM     26  H   UNL     1       2.846   9.283  17.594  0.00  0.00    +0.000 HD
ENDBRANCH  16  25
ENDBRANCH  14  15
ENDBRANCH   3  14
TORSDOF 4
ENDMDL
MODEL 3
REMARK VINA RESULT:      -7.8      2.737      7.898
REMARK  Name = 
REMARK  4 active torsions:
REMARK  status: ('A' for Active; 'I' for Inactive)
REMARK    1  A    between atoms: C_2  and  C_16
REMARK    2  A    between atoms: N_3  and  C_4
REMARK    3  A    between atoms: C_4  and  C_5
REMARK    4  A    between atoms: C_6  and  O_7
REMARK                            x       y       z     vdW  Elec       q    Type
REMARK                         _______ _______ _______ _____ _____    ______ ____
ROOT
ATOM      1  O   UNL     1       1.408   9.471  17.373  0.00  0.00    +0.000 OA
ATOM      2  C   UNL     1       1.830   8.955  18.414  0.00  0.00    +0.000 C 
ATOM      3  N   UNL     1       2.809   7.993  18.410  0.00  0.00    +0.000 N 
ATOM      4  H   UNL     1       3.016   7.467  19.253  0.00  0.00    +0.000 HD
ENDROOT
BRANCH   2   5
ATOM      5  C   UNL     1       1.249   9.285  19.750  0.00  0.00    +0.000 A 
ATOM      6  C   UNL     1       1.261   8.289  20.830  0.00  0.00    +0.000 A 
ATOM      7  C   UNL     1       0.766   8.558  22.052  0.00  0.00    +0.000 A 
ATOM      8  C   UNL     1       0.204   9.835  22.315  0.00  0.00    +0.000 A 
ATOM      9  N   UNL     1      -0.322  10.392  23.383  0.00  0.00    +0.000 NA
ATOM     10  N   UNL     1      -0.721  11.669  23.044  0.00  0.00    +0.000 NA
ATOM     11  C   UNL     1      -0.425  11.858  21.777  0.00  0.00    +0.000 A 
ATOM     12  N   UNL     1       0.169  10.738  21.267  0.00  0.00    +0.000 N 
ATOM     13  C   UNL     1       0.669  10.481  19.995  0.00  0.00    +0.000 A 
ENDBRANCH   2   5
BRANCH   3  14
ATOM     14  C   UNL     1       3.390   7.516  17.175  0.00  0.00    +0.000 C 
BRANCH  14  15
ATOM     15  C   UNL     1       4.167   6.228  17.338  0.00  0.00    +0.000 A 
ATOM     16  C   UNL     1       5.558   6.197  17.129  0.00  0.00    +0.000 A 
ATOM     17  C   UNL     1       6.279   5.007  17.209  0.00  0.00    +0.000 A 
ATOM     18  C   UNL     1       5.635   3.818  17.524  0.00  0.00    +0.000 A 
ATOM     19  C   UNL     1       4.259   3.805  17.777  0.00  0.00    +0.000 A 
ATOM     20  C   UNL     1       3.508   5.000  17.664  0.00  0.00    +0.000 A 
ATOM     21  C   UNL     1       2.013   4.957  17.935  0.00  0.00    +0.000 C 
ATOM     22  C   UNL     1       1.393   3.558  17.972  0.00  0.00    +0.000 C 
ATOM     23  C   UNL     1       2.264   2.612  18.777  0.00  0.00    +0.000 C 
ATOM     24  C   UNL     1       3.624   2.472  18.107  0.00  0.00    +0.000 C 
BRANCH  16  25
ATOM     25  O   UNL     1       6.323   7.280  16.794  0.00  0.00    +0.000 OA
ATOM     26  H   UNL     1       6.516   7.304  15.831  0.00  0.00    +0.000 HD
ENDBRANCH  16  25
ENDBRANCH  14  15
ENDBRANCH   3  14
TORSDOF 4
ENDMDL
MODEL 4
REMARK VINA RESULT:      -7.8      1.006      1.539
REMARK  Name = 
REMARK  4 active torsions:
REMARK  status: ('A' for Active; 'I' for Inactive)
REMARK    1  A    between atoms: C_2  and  C_16
REMARK    2  A    between atoms: N_3  and  C_4
REMARK    3  A    between atoms: C_4  and  C_5
REMARK    4  A    between atoms: C_6  and  O_7
REMARK                            x       y       z     vdW  Elec       q    Type
REMARK                         _______ _______ _______ _____ _____    ______ ____
ROOT
ATOM      1  O   UNL     1       2.698   5.786  20.042  0.00  0.00    +0.000 OA
ATOM      2  C   UNL     1       3.015   6.577  19.145  0.00  0.00    +0.000 C 
ATOM      3  N   UNL     1       2.335   7.749  18.928  0.00  0.00    +0.000 N 
ATOM      4  H   UNL     1       2.504   8.293  18.088  0.00  0.00    +0.000 HD
ENDROOT
BRANCH   2   5
ATOM      5  C   UNL     1       4.113   6.275  18.180  0.00  0.00    +0.000 A 
ATOM      6  C   UNL     1       4.107   6.874  16.838  0.00  0.00    +0.000 A 
ATOM      7  C   UNL     1       5.090   6.642  15.949  0.00  0.00    +0.000 A 
ATOM      8  C   UNL     1       6.167   5.787  16.304  0.00  0.00    +0.000 A 
ATOM      9  N   UNL     1       7.257   5.395  15.681  0.00  0.00    +0.000 NA
ATOM     10  N   UNL     1       7.940   4.538  16.519  0.00  0.00    +0.000 NA
ATOM     11  C   UNL     1       7.250   4.431  17.633  0.00  0.00    +0.000 A 
ATOM     12  N   UNL     1       6.125   5.203  17.558  0.00  0.00    +0.000 N 
ATOM     13  C   UNL     1       5.117   5.425  18.490  0.00  0.00    +0.000 A 
ENDBRANCH   2   5
BRANCH   3  14
ATOM     14  C   UNL     1       1.192   8.116  19.734  0.00  0.00    +0.000 C 
BRANCH  14  15
ATOM     15  C   UNL     1       0.925   9.604  19.751  0.00  0.00    +0.000 A 
ATOM     16  C   UNL     1       1.321  10.418  18.674  0.00  0.00    +0.000 A 
ATOM     17  C   UNL     1       1.143  11.800  18.702  0.00  0.00    +0.000 A 
ATOM     18  C   UNL     1       0.541  12.407  19.797  0.00  0.00    +0.000 A 
ATOM     19  C   UNL     1       0.096  11.635  20.876  0.00  0.00    +0.000 A 
ATOM     20  C   UNL     1       0.302  10.234  20.876  0.00  0.00    +0.000 A 
ATOM     21  C   UNL     1      -0.182   9.420  22.065  0.00  0.00    +0.000 C 
ATOM     22  C   UNL     1      -0.545  10.231  23.311  0.00  0.00    +0.000 C 
ATOM     23  C   UNL     1      -1.368  11.448  22.932  0.00  0.00    +0.000 C 
ATOM     24  C   UNL     1      -0.544  12.363  22.037  0.00  0.00    +0.000 C 
BRANCH  16  25
ATOM     25  O   UNL     1       1.942   9.968  17.541  0.00  0.00    +0.000 OA
ATOM     26  H   UNL     1       2.636  10.593  17.235  0.00  0.00    +0.000 HD
ENDBRANCH  16  25
ENDBRANCH  14  15
ENDBRANCH   3  14
TORSDOF 4
ENDMDL
MODEL 5
REMARK VINA RESULT:      -7.8      2.974      7.886
REMARK  Name = 
REMARK  4 active torsions:
REMARK  status: ('A' for Active; 'I' for Inactive)
REMARK    1  A    between atoms: C_2  and  C_16
REMARK    2  A    between atoms: N_3  and  C_4
REMARK    3  A    between atoms: C_4  and  C_5
REMARK    4  A    between atoms: C_6  and  O_7
REMARK                            x       y       z     vdW  Elec       q    Type
REMARK                         _______ _______ _______ _____ _____    ______ ____
ROOT
ATOM      1  O   UNL     1       1.247   9.472  17.845  0.00  0.00    +0.000 OA
ATOM      2  C   UNL     1       1.419   8.995  18.973  0.00  0.00    +0.000 C 
ATOM      3  N   UNL     1       2.194   7.882  19.188  0.00  0.00    +0.000 N 
ATOM      4  H   UNL     1       2.182   7.414  20.088  0.00  0.00    +0.000 HD
ENDROOT
BRANCH   2   5
ATOM      5  C   UNL     1       0.731   9.549  20.177  0.00  0.00    +0.000 A 
ATOM      6  C   UNL     1       0.229   8.649  21.225  0.00  0.00    +0.000 A 
ATOM      7  C   UNL     1      -0.377   9.113  22.332  0.00  0.00    +0.000 A 
ATOM      8  C   UNL     1      -0.551  10.513  22.501  0.00  0.00    +0.000 A 
ATOM      9  N   UNL     1      -1.068  11.252  23.457  0.00  0.00    +0.000 NA
ATOM     10  N   UNL     1      -0.979  12.573  23.067  0.00  0.00    +0.000 NA
ATOM     11  C   UNL     1      -0.407  12.604  21.883  0.00  0.00    +0.000 A 
ATOM     12  N   UNL     1      -0.107  11.333  21.480  0.00  0.00    +0.000 N 
ATOM     13  C   UNL     1       0.517  10.876  20.325  0.00  0.00    +0.000 A 
ENDBRANCH   2   5
BRANCH   3  14
ATOM     14  C   UNL     1       2.841   7.194  18.094  0.00  0.00    +0.000 C 
BRANCH  14  15
ATOM     15  C   UNL     1       3.617   5.972  18.531  0.00  0.00    +0.000 A 
ATOM     16  C   UNL     1       4.952   5.784  18.127  0.00  0.00    +0.000 A 
ATOM     17  C   UNL     1       5.659   4.633  18.465  0.00  0.00    +0.000 A 
ATOM     18  C   UNL     1       5.062   3.645  19.238  0.00  0.00    +0.000 A 
ATOM     19  C   UNL     1       3.749   3.804  19.696  0.00  0.00    +0.000 A 
ATOM     20  C   UNL     1       3.007   4.952  19.330  0.00  0.00    +0.000 A 
ATOM     21  C   UNL     1       1.579   5.095  19.832  0.00  0.00    +0.000 C 
ATOM     22  C   UNL     1       0.956   3.822  20.408  0.00  0.00    +0.000 C 
ATOM     23  C   UNL     1       1.938   3.116  21.324  0.00  0.00    +0.000 C 
ATOM     24  C   UNL     1       3.162   2.685  20.527  0.00  0.00    +0.000 C 
BRANCH  16  25
ATOM     25  O   UNL     1       5.663   6.657  17.349  0.00  0.00    +0.000 OA
ATOM     26  H   UNL     1       5.837   7.502  17.818  0.00  0.00    +0.000 HD
ENDBRANCH  16  25
ENDBRANCH  14  15
ENDBRANCH   3  14
TORSDOF 4
ENDMDL
MODEL 6
REMARK VINA RESULT:      -7.8      3.825      8.698
REMARK  Name = 
REMARK  4 active torsions:
REMARK  status: ('A' for Active; 'I' for Inactive)
REMARK    1  A    between atoms: C_2  and  C_16
REMARK    2  A    between atoms: N_3  and  C_4
REMARK    3  A    between atoms: C_4  and  C_5
REMARK    4  A    between atoms: C_6  and  O_7
REMARK                            x       y       z     vdW  Elec       q    Type
REMARK                         _______ _______ _______ _____ _____    ______ ____
ROOT
ATOM      1  O   UNL     1       1.284  10.738  19.439  0.00  0.00    +0.000 OA
ATOM      2  C   UNL     1       0.633  10.089  18.611  0.00  0.00    +0.000 C 
ATOM      3  N   UNL     1       1.201   9.103  17.843  0.00  0.00    +0.000 N 
ATOM      4  H   UNL     1       0.693   8.707  17.059  0.00  0.00    +0.000 HD
ENDROOT
BRANCH   2   5
ATOM      5  C   UNL     1      -0.803  10.387  18.328  0.00  0.00    +0.000 A 
ATOM      6  C   UNL     1      -1.482   9.752  17.191  0.00  0.00    +0.000 A 
ATOM      7  C   UNL     1      -2.780   9.979  16.919  0.00  0.00    +0.000 A 
ATOM      8  C   UNL     1      -3.524  10.865  17.743  0.00  0.00    +0.000 A 
ATOM      9  N   UNL     1      -4.777  11.261  17.748  0.00  0.00    +0.000 NA
ATOM     10  N   UNL     1      -4.936  12.154  18.788  0.00  0.00    +0.000 NA
ATOM     11  C   UNL     1      -3.775  12.277  19.392  0.00  0.00    +0.000 A 
ATOM     12  N   UNL     1      -2.847  11.481  18.781  0.00  0.00    +0.000 N 
ATOM     13  C   UNL     1      -1.506  11.265  19.078  0.00  0.00    +0.000 A 
ENDBRANCH   2   5
BRANCH   3  14
ATOM     14  C   UNL     1       2.606   8.780  17.952  0.00  0.00    +0.000 C 
BRANCH  14  15
ATOM     15  C   UNL     1       2.860   7.378  18.460  0.00  0.00    +0.000 A 
ATOM     16  C   UNL     1       2.293   6.938  19.670  0.00  0.00    +0.000 A 
ATOM     17  C   UNL     1       2.570   5.674  20.186  0.00  0.00    +0.000 A 
ATOM     18  C   UNL     1       3.402   4.803  19.496  0.00  0.00    +0.000 A 
ATOM     19  C   UNL     1       3.958   5.180  18.268  0.00  0.00    +0.000 A 
ATOM     20  C   UNL     1       3.714   6.476  17.750  0.00  0.00    +0.000 A 
ATOM     21  C   UNL     1       4.339   6.864  16.420  0.00  0.00    +0.000 C 
ATOM     22  C   UNL     1       5.454   5.942  15.925  0.00  0.00    +0.000 C 
ATOM     23  C   UNL     1       5.057   4.487  16.097  0.00  0.00    +0.000 C 
ATOM     24  C   UNL     1       4.860   4.183  17.576  0.00  0.00    +0.000 C 
BRANCH  16  25
ATOM     25  O   UNL     1       1.475   7.689  20.469  0.00  0.00    +0.000 OA
ATOM     26  H   UNL     1       1.963   8.424  20.900  0.00  0.00    +0.000 HD
ENDBRANCH  16  25
ENDBRANCH  14  15
ENDBRANCH   3  14
TORSDOF 4
ENDMDL
MODEL 7
REMARK VINA RESULT:      -7.7      2.667      8.420
REMARK  Name = 
REMARK  4 active torsions:
REMARK  status: ('A' for Active; 'I' for Inactive)
REMARK    1  A    between atoms: C_2  and  C_16
REMARK    2  A    between atoms: N_3  and  C_4
REMARK    3  A    between atoms: C_4  and  C_5
REMARK    4  A    between atoms: C_6  and  O_7
REMARK                            x       y       z     vdW  Elec       q    Type
REMARK                         _______ _______ _______ _____ _____    ______ ____
ROOT
ATOM      1  O   UNL     1       1.453   9.750  17.921  0.00  0.00    +0.000 OA
ATOM      2  C   UNL     1       1.451   9.127  18.990  0.00  0.00    +0.000 C 
ATOM      3  N   UNL     1       2.035   7.892  19.118  0.00  0.00    +0.000 N 
ATOM      4  H   UNL     1       1.874   7.332  19.949  0.00  0.00    +0.000 HD
ENDROOT
BRANCH   2   5
ATOM      5  C   UNL     1       0.742   9.640  20.199  0.00  0.00    +0.000 A 
ATOM      6  C   UNL     1       0.261   8.708  21.229  0.00  0.00    +0.000 A 
ATOM      7  C   UNL     1      -0.362   9.134  22.342  0.00  0.00    +0.000 A 
ATOM      8  C   UNL     1      -0.577  10.525  22.535  0.00  0.00    +0.000 A 
ATOM      9  N   UNL     1      -1.119  11.233  23.500  0.00  0.00    +0.000 NA
ATOM     10  N   UNL     1      -1.066  12.563  23.134  0.00  0.00    +0.000 NA
ATOM     11  C   UNL     1      -0.490  12.630  21.954  0.00  0.00    +0.000 A 
ATOM     12  N   UNL     1      -0.152  11.376  21.529  0.00  0.00    +0.000 N 
ATOM     13  C   UNL     1       0.489  10.957  20.369  0.00  0.00    +0.000 A 
ENDBRANCH   2   5
BRANCH   3  14
ATOM     14  C   UNL     1       2.674   7.241  17.997  0.00  0.00    +0.000 C 
BRANCH  14  15
ATOM     15  C   UNL     1       3.475   6.020  18.391  0.00  0.00    +0.000 A 
ATOM     16  C   UNL     1       2.898   5.004  19.175  0.00  0.00    +0.000 A 
ATOM     17  C   UNL     1       3.639   3.905  19.603  0.00  0.00    +0.000 A 
ATOM     18  C   UNL     1       4.973   3.776  19.239  0.00  0.00    +0.000 A 
ATOM     19  C   UNL     1       5.581   4.741  18.427  0.00  0.00    +0.000 A 
ATOM     20  C   UNL     1       4.849   5.881  18.015  0.00  0.00    +0.000 A 
ATOM     21  C   UNL     1       5.535   6.919  17.143  0.00  0.00    +0.000 C 
ATOM     22  C   UNL     1       7.060   6.809  17.070  0.00  0.00    +0.000 C 
ATOM     23  C   UNL     1       7.481   5.365  16.876  0.00  0.00    +0.000 C 
ATOM     24  C   UNL     1       7.038   4.538  18.076  0.00  0.00    +0.000 C 
BRANCH  16  25
ATOM     25  O   UNL     1       1.606   5.003  19.627  0.00  0.00    +0.000 OA
ATOM     26  H   UNL     1       1.506   4.456  20.436  0.00  0.00    +0.000 HD
ENDBRANCH  16  25
ENDBRANCH  14  15
ENDBRANCH   3  14
TORSDOF 4
ENDMDL
MODEL 8
REMARK VINA RESULT:      -7.6      2.815      7.789
REMARK  Name = 
REMARK  4 active torsions:
REMARK  status: ('A' for Active; 'I' for Inactive)
REMARK    1  A    between atoms: C_2  and  C_16
REMARK    2  A    between atoms: N_3  and  C_4
REMARK    3  A    between atoms: C_4  and  C_5
REMARK    4  A    between atoms: C_6  and  O_7
REMARK                            x       y       z     vdW  Elec       q    Type
REMARK                         _______ _______ _______ _____ _____    ______ ____
ROOT
ATOM      1  O   UNL     1       1.592   9.357  17.319  0.00  0.00    +0.000 OA
ATOM      2  C   UNL     1       1.663   8.993  18.499  0.00  0.00    +0.000 C 
ATOM      3  N   UNL     1       2.197   7.781  18.861  0.00  0.00    +0.000 N 
ATOM      4  H   UNL     1       2.090   7.435  19.809  0.00  0.00    +0.000 HD
ENDROOT
BRANCH   2   5
ATOM      5  C   UNL     1       1.099   9.812  19.613  0.00  0.00    +0.000 A 
ATOM      6  C   UNL     1       1.139  11.280  19.548  0.00  0.00    +0.000 A 
ATOM      7  C   UNL     1       0.621  12.050  20.522  0.00  0.00    +0.000 A 
ATOM      8  C   UNL     1       0.024  11.438  21.656  0.00  0.00    +0.000 A 
ATOM      9  N   UNL     1      -0.571  11.907  22.730  0.00  0.00    +0.000 NA
ATOM     10  N   UNL     1      -0.947  10.832  23.511  0.00  0.00    +0.000 NA
ATOM     11  C   UNL     1      -0.571   9.736  22.890  0.00  0.00    +0.000 A 
ATOM     12  N   UNL     1       0.039  10.056  21.710  0.00  0.00    +0.000 N 
ATOM     13  C   UNL     1       0.573   9.240  20.718  0.00  0.00    +0.000 A 
ENDBRANCH   2   5
BRANCH   3  14
ATOM     14  C   UNL     1       2.693   6.852  17.871  0.00  0.00    +0.000 C 
BRANCH  14  15
ATOM     15  C   UNL     1       3.531   5.739  18.461  0.00  0.00    +0.000 A 
ATOM     16  C   UNL     1       4.906   5.647  18.179  0.00  0.00    +0.000 A 
ATOM     17  C   UNL     1       5.679   4.592  18.659  0.00  0.00    +0.000 A 
ATOM     18  C   UNL     1       5.105   3.610  19.457  0.00  0.00    +0.000 A 
ATOM     19  C   UNL     1       3.749   3.680  19.797  0.00  0.00    +0.000 A 
ATOM     20  C   UNL     1       2.944   4.727  19.286  0.00  0.00    +0.000 A 
ATOM     21  C   UNL     1       1.472   4.774  19.663  0.00  0.00    +0.000 C 
ATOM     22  C   UNL     1       0.914   3.492  20.284  0.00  0.00    +0.000 C 
ATOM     23  C   UNL     1       1.872   2.945  21.326  0.00  0.00    +0.000 C 
ATOM     24  C   UNL     1       3.191   2.573  20.664  0.00  0.00    +0.000 C 
BRANCH  16  25
ATOM     25  O   UNL     1       5.604   6.524  17.394  0.00  0.00    +0.000 OA
ATOM     26  H   UNL     1       5.451   6.356  16.438  0.00  0.00    +0.000 HD
ENDBRANCH  16  25
ENDBRANCH  14  15
ENDBRANCH   3  14
TORSDOF 4
ENDMDL
MODEL 9
REMARK VINA RESULT:      -7.6      2.545      8.513
REMARK  Name = 
REMARK  4 active torsions:
REMARK  status: ('A' for Active; 'I' for Inactive)
REMARK    1  A    between atoms: C_2  and  C_16
REMARK    2  A    between atoms: N_3  and  C_4
REMARK    3  A    between atoms: C_4  and  C_5
REMARK    4  A    between atoms: C_6  and  O_7
REMARK                            x       y       z     vdW  Elec       q    Type
REMARK                         _______ _______ _______ _____ _____    ______ ____
ROOT
ATOM      1  O   UNL     1       1.556   9.706  17.585  0.00  0.00    +0.000 OA
ATOM      2  C   UNL     1       1.744   9.087  18.640  0.00  0.00    +0.000 C 
ATOM      3  N   UNL     1       2.549   7.977  18.704  0.00  0.00    +0.000 N 
ATOM      4  H   UNL     1       2.552   7.393  19.534  0.00  0.00    +0.000 HD
ENDROOT
BRANCH   2   5
ATOM      5  C   UNL     1       1.043   9.455  19.905  0.00  0.00    +0.000 A 
ATOM      6  C   UNL     1       0.787   8.439  20.935  0.00  0.00    +0.000 A 
ATOM      7  C   UNL     1       0.178   8.738  22.097  0.00  0.00    +0.000 A 
ATOM      8  C   UNL     1      -0.244  10.072  22.343  0.00  0.00    +0.000 A 
ATOM      9  N   UNL     1      -0.828  10.665  23.360  0.00  0.00    +0.000 NA
ATOM     10  N   UNL     1      -1.013  11.992  23.030  0.00  0.00    +0.000 NA
ATOM     11  C   UNL     1      -0.534  12.174  21.819  0.00  0.00    +0.000 A 
ATOM     12  N   UNL     1      -0.028  10.999  21.338  0.00  0.00    +0.000 N 
ATOM     13  C   UNL     1       0.594  10.711  20.129  0.00  0.00    +0.000 A 
ENDBRANCH   2   5
BRANCH   3  14
ATOM     14  C   UNL     1       3.213   7.460  17.529  0.00  0.00    +0.000 C 
BRANCH  14  15
ATOM     15  C   UNL     1       3.514   5.980  17.614  0.00  0.00    +0.000 A 
ATOM     16  C   UNL     1       2.876   5.171  18.573  0.00  0.00    +0.000 A 
ATOM     17  C   UNL     1       3.190   3.820  18.710  0.00  0.00    +0.000 A 
ATOM     18  C   UNL     1       4.134   3.233  17.877  0.00  0.00    +0.000 A 
ATOM     19  C   UNL     1       4.766   3.987  16.883  0.00  0.00    +0.000 A 
ATOM     20  C   UNL     1       4.483   5.369  16.756  0.00  0.00    +0.000 A 
ATOM     21  C   UNL     1       5.191   6.169  15.675  0.00  0.00    +0.000 C 
ATOM     22  C   UNL     1       6.403   5.483  15.040  0.00  0.00    +0.000 C 
ATOM     23  C   UNL     1       6.089   4.032  14.726  0.00  0.00    +0.000 C 
ATOM     24  C   UNL     1       5.787   3.283  16.017  0.00  0.00    +0.000 C 
BRANCH  16  25
ATOM     25  O   UNL     1       1.945   5.611  19.473  0.00  0.00    +0.000 OA
ATOM     26  H   UNL     1       1.426   6.366  19.119  0.00  0.00    +0.000 HD
ENDBRANCH  16  25
ENDBRANCH  14  15
ENDBRANCH   3  14
TORSDOF 4
ENDMDL
