MODEL 1
REMARK VINA RESULT:      -7.9      0.000      0.000
REMARK  Name = 
REMARK  3 active torsions:
REMARK  status: ('A' for Active; 'I' for Inactive)
REMARK    1  A    between atoms: C_1  and  C_2
REMARK    2  A    between atoms: C_4  and  C_5
REMARK    3  A    between atoms: C_11  and  C_12
REMARK                            x       y       z     vdW  Elec       q    Type
REMARK                         _______ _______ _______ _____ _____    ______ ____
ROOT
ATOM      1  C   UNL     1       7.714   7.440  17.762  0.00  0.00    +0.000 C 
ATOM      2  C   UNL     1       6.749   6.435  17.232  0.00  0.00    +0.000 C 
ATOM      3  N   UNL     1       5.570   6.754  16.815  0.00  0.00    +0.000 NA
ATOM      4  C   UNL     1       4.830   5.524  16.403  0.00  0.00    +0.000 C 
ATOM      5  C   UNL     1       5.845   4.396  16.067  0.00  0.00    +0.000 C 
ATOM      6  S   UNL     1       7.245   4.768  17.172  0.00  0.00    +0.000 S 
ENDROOT
BRANCH   4   7
ATOM      7  C   UNL     1       3.763   5.128  17.421  0.00  0.00    +0.000 A 
ATOM      8  C   UNL     1       3.047   3.932  17.241  0.00  0.00    +0.000 A 
ATOM      9  C   UNL     1       2.016   3.581  18.117  0.00  0.00    +0.000 A 
ATOM     10  C   UNL     1       1.693   4.413  19.188  0.00  0.00    +0.000 A 
ATOM     11  C   UNL     1       2.407   5.591  19.390  0.00  0.00    +0.000 A 
ATOM     12  C   UNL     1       3.436   5.943  18.513  0.00  0.00    +0.000 A 
ENDBRANCH   4   7
BRANCH   5  13
ATOM     13  C   UNL     1       6.318   4.366  14.614  0.00  0.00    +0.000 A 
ATOM     14  C   UNL     1       7.411   5.129  14.165  0.00  0.00    +0.000 A 
ATOM     15  C   UNL     1       7.816   5.092  12.830  0.00  0.00    +0.000 A 
ATOM     16  C   UNL     1       7.147   4.282  11.921  0.00  0.00    +0.000 A 
ATOM     17  C   UNL     1       6.079   3.497  12.351  0.00  0.00    +0.000 A 
ATOM     18  C   UNL     1       5.670   3.534  13.687  0.00  0.00    +0.000 A 
ENDBRANCH   5  13
TORSDOF 2
ENDMDL
MODEL 2
REMARK VINA RESULT:      -7.9      0.129      1.138
REMARK  Name = 
REMARK  3 active torsions:
REMARK  status: ('A' for Active; 'I' for Inactive)
REMARK    1  A    between atoms: C_1  and  C_2
REMARK    2  A    between atoms: C_4  and  C_5
REMARK    3  A    between atoms: C_11  and  C_12
REMARK                            x       y       z     vdW  Elec       q    Type
REMARK                         _______ _______ _______ _____ _____    ______ ____
ROOT
ATOM      1  C   UNL     1       7.746   7.385  17.787  0.00  0.00    +0.000 C 
ATOM      2  C   UNL     1       6.756   6.412  17.244  0.00  0.00    +0.000 C 
ATOM      3  N   UNL     1       5.589   6.768  16.822  0.00  0.00    +0.000 NA
ATOM      4  C   UNL     1       4.817   5.562  16.397  0.00  0.00    +0.000 C 
ATOM      5  C   UNL     1       5.801   4.407  16.061  0.00  0.00    +0.000 C 
ATOM      6  S   UNL     1       7.204   4.732  17.177  0.00  0.00    +0.000 S 
ENDROOT
BRANCH   4   7
ATOM      7  C   UNL     1       3.732   5.191  17.407  0.00  0.00    +0.000 A 
ATOM      8  C   UNL     1       3.369   6.116  18.401  0.00  0.00    +0.000 A 
ATOM      9  C   UNL     1       2.432   5.776  19.380  0.00  0.00    +0.000 A 
ATOM     10  C   UNL     1       1.838   4.515  19.375  0.00  0.00    +0.000 A 
ATOM     11  C   UNL     1       2.173   3.596  18.384  0.00  0.00    +0.000 A 
ATOM     12  C   UNL     1       3.112   3.934  17.406  0.00  0.00    +0.000 A 
ENDBRANCH   4   7
BRANCH   5  13
ATOM     13  C   UNL     1       6.282   4.372  14.611  0.00  0.00    +0.000 A 
ATOM     14  C   UNL     1       7.388   5.121  14.169  0.00  0.00    +0.000 A 
ATOM     15  C   UNL     1       7.799   5.079  12.836  0.00  0.00    +0.000 A 
ATOM     16  C   UNL     1       7.125   4.279  11.922  0.00  0.00    +0.000 A 
ATOM     17  C   UNL     1       6.044   3.509  12.345  0.00  0.00    +0.000 A 
ATOM     18  C   UNL     1       5.628   3.550  13.679  0.00  0.00    +0.000 A 
ENDBRANCH   5  13
TORSDOF 2
ENDMDL
MODEL 3
REMARK VINA RESULT:      -7.8      0.393      1.200
REMARK  Name = 
REMARK  3 active torsions:
REMARK  status: ('A' for Active; 'I' for Inactive)
REMARK    1  A    between atoms: C_1  and  C_2
REMARK    2  A    between atoms: C_4  and  C_5
REMARK    3  A    between atoms: C_11  and  C_12
REMARK                            x       y       z     vdW  Elec       q    Type
REMARK                         _______ _______ _______ _____ _____    ______ ____
ROOT
ATOM      1  C   UNL     1       7.523   7.410  17.628  0.00  0.00    +0.000 C 
ATOM      2  C   UNL     1       6.636   6.335  17.099  0.00  0.00    +0.000 C 
ATOM      3  N   UNL     1       5.433   6.562  16.692  0.00  0.00    +0.000 NA
ATOM      4  C   UNL     1       4.789   5.280  16.278  0.00  0.00    +0.000 C 
ATOM      5  C   UNL     1       5.887   4.238  15.927  0.00  0.00    +0.000 C 
ATOM      6  S   UNL     1       7.263   4.713  17.024  0.00  0.00    +0.000 S 
ENDROOT
BRANCH   4   7
ATOM      7  C   UNL     1       3.765   4.795  17.302  0.00  0.00    +0.000 A 
ATOM      8  C   UNL     1       3.472   3.423  17.388  0.00  0.00    +0.000 A 
ATOM      9  C   UNL     1       2.487   2.960  18.265  0.00  0.00    +0.000 A 
ATOM     10  C   UNL     1       1.790   3.856  19.073  0.00  0.00    +0.000 A 
ATOM     11  C   UNL     1       2.084   5.216  19.013  0.00  0.00    +0.000 A 
ATOM     12  C   UNL     1       3.067   5.680  18.135  0.00  0.00    +0.000 A 
ENDBRANCH   4   7
BRANCH   5  13
ATOM     13  C   UNL     1       6.350   4.254  14.471  0.00  0.00    +0.000 A 
ATOM     14  C   UNL     1       5.730   3.473  13.478  0.00  0.00    +0.000 A 
ATOM     15  C   UNL     1       6.180   3.499  12.157  0.00  0.00    +0.000 A 
ATOM     16  C   UNL     1       7.246   4.315  11.798  0.00  0.00    +0.000 A 
ATOM     17  C   UNL     1       7.856   5.116  12.761  0.00  0.00    +0.000 A 
ATOM     18  C   UNL     1       7.409   5.091  14.085  0.00  0.00    +0.000 A 
ENDBRANCH   5  13
TORSDOF 2
ENDMDL
MODEL 4
REMARK VINA RESULT:      -7.8      1.157      5.699
REMARK  Name = 
REMARK  3 active torsions:
REMARK  status: ('A' for Active; 'I' for Inactive)
REMARK    1  A    between atoms: C_1  and  C_2
REMARK    2  A    between atoms: C_4  and  C_5
REMARK    3  A    between atoms: C_11  and  C_12
REMARK                            x       y       z     vdW  Elec       q    Type
REMARK                         _______ _______ _______ _____ _____    ______ ____
ROOT
ATOM      1  C   UNL     1       7.686   6.519  18.304  0.00  0.00    +0.000 C 
ATOM      2  C   UNL     1       6.773   5.799  17.371  0.00  0.00    +0.000 C 
ATOM      3  N   UNL     1       7.047   4.633  16.890  0.00  0.00    +0.000 NA
ATOM      4  C   UNL     1       5.968   4.209  15.948  0.00  0.00    +0.000 C 
ATOM      5  C   UNL     1       4.660   4.981  16.276  0.00  0.00    +0.000 C 
ATOM      6  S   UNL     1       5.277   6.568  16.924  0.00  0.00    +0.000 S 
ENDROOT
BRANCH   4   7
ATOM      7  C   UNL     1       6.409   4.308  14.490  0.00  0.00    +0.000 A 
ATOM      8  C   UNL     1       5.822   3.463  13.532  0.00  0.00    +0.000 A 
ATOM      9  C   UNL     1       6.257   3.481  12.204  0.00  0.00    +0.000 A 
ATOM     10  C   UNL     1       7.274   4.349  11.812  0.00  0.00    +0.000 A 
ATOM     11  C   UNL     1       7.851   5.207  12.745  0.00  0.00    +0.000 A 
ATOM     12  C   UNL     1       7.418   5.187  14.073  0.00  0.00    +0.000 A 
ENDBRANCH   4   7
BRANCH   5  13
ATOM     13  C   UNL     1       3.757   4.309  17.310  0.00  0.00    +0.000 A 
ATOM     14  C   UNL     1       3.874   2.946  17.635  0.00  0.00    +0.000 A 
ATOM     15  C   UNL     1       3.029   2.354  18.575  0.00  0.00    +0.000 A 
ATOM     16  C   UNL     1       2.061   3.115  19.219  0.00  0.00    +0.000 A 
ATOM     17  C   UNL     1       1.946   4.473  18.932  0.00  0.00    +0.000 A 
ATOM     18  C   UNL     1       2.791   5.068  17.989  0.00  0.00    +0.000 A 
ENDBRANCH   5  13
TORSDOF 2
ENDMDL
MODEL 5
REMARK VINA RESULT:      -7.7      1.240      5.628
REMARK  Name = 
REMARK  3 active torsions:
REMARK  status: ('A' for Active; 'I' for Inactive)
REMARK    1  A    between atoms: C_1  and  C_2
REMARK    2  A    between atoms: C_4  and  C_5
REMARK    3  A    between atoms: C_11  and  C_12
REMARK                            x       y       z     vdW  Elec       q    Type
REMARK                         _______ _______ _______ _____ _____    ______ ____
ROOT
ATOM      1  C   UNL     1       7.717   7.375  17.817  0.00  0.00    +0.000 C 
ATOM      2  C   UNL     1       6.868   6.370  17.116  0.00  0.00    +0.000 C 
ATOM      3  N   UNL     1       7.310   5.210  16.763  0.00  0.00    +0.000 NA
ATOM      4  C   UNL     1       6.241   4.462  16.036  0.00  0.00    +0.000 C 
ATOM      5  C   UNL     1       4.850   5.035  16.426  0.00  0.00    +0.000 C 
ATOM      6  S   UNL     1       5.214   6.786  16.770  0.00  0.00    +0.000 S 
ENDROOT
BRANCH   4   7
ATOM      7  C   UNL     1       6.501   4.409  14.532  0.00  0.00    +0.000 A 
ATOM      8  C   UNL     1       5.758   3.522  13.734  0.00  0.00    +0.000 A 
ATOM      9  C   UNL     1       6.024   3.399  12.368  0.00  0.00    +0.000 A 
ATOM     10  C   UNL     1       7.026   4.168  11.778  0.00  0.00    +0.000 A 
ATOM     11  C   UNL     1       7.757   5.066  12.551  0.00  0.00    +0.000 A 
ATOM     12  C   UNL     1       7.493   5.186  13.918  0.00  0.00    +0.000 A 
ENDBRANCH   4   7
BRANCH   5  13
ATOM     13  C   UNL     1       4.206   4.384  17.649  0.00  0.00    +0.000 A 
ATOM     14  C   UNL     1       3.856   5.122  18.795  0.00  0.00    +0.000 A 
ATOM     15  C   UNL     1       3.279   4.500  19.903  0.00  0.00    +0.000 A 
ATOM     16  C   UNL     1       3.026   3.134  19.884  0.00  0.00    +0.000 A 
ATOM     17  C   UNL     1       3.339   2.390  18.749  0.00  0.00    +0.000 A 
ATOM     18  C   UNL     1       3.919   3.009  17.638  0.00  0.00    +0.000 A 
ENDBRANCH   5  13
TORSDOF 2
ENDMDL
MODEL 6
REMARK VINA RESULT:      -7.7      0.713      1.684
REMARK  Name = 
REMARK  3 active torsions:
REMARK  status: ('A' for Active; 'I' for Inactive)
REMARK    1  A    between atoms: C_1  and  C_2
REMARK    2  A    between atoms: C_4  and  C_5
REMARK    3  A    between atoms: C_11  and  C_12
REMARK                            x       y       z     vdW  Elec       q    Type
REMARK                         _______ _______ _______ _____ _____    ______ ____
ROOT
ATOM      1  C   UNL     1       7.129   7.413  17.581  0.00  0.00    +0.000 C 
ATOM      2  C   UNL     1       6.381   6.237  17.052  0.00  0.00    +0.000 C 
ATOM      3  N   UNL     1       5.156   6.313  16.652  0.00  0.00    +0.000 NA
ATOM      4  C   UNL     1       4.676   4.961  16.237  0.00  0.00    +0.000 C 
ATOM      5  C   UNL     1       5.894   4.065  15.878  0.00  0.00    +0.000 C 
ATOM      6  S   UNL     1       7.204   4.706  16.970  0.00  0.00    +0.000 S 
ENDROOT
BRANCH   4   7
ATOM      7  C   UNL     1       3.725   4.349  17.264  0.00  0.00    +0.000 A 
ATOM      8  C   UNL     1       2.791   5.172  17.915  0.00  0.00    +0.000 A 
ATOM      9  C   UNL     1       1.958   4.654  18.911  0.00  0.00    +0.000 A 
ATOM     10  C   UNL     1       2.039   3.307  19.261  0.00  0.00    +0.000 A 
ATOM     11  C   UNL     1       2.946   2.476  18.610  0.00  0.00    +0.000 A 
ATOM     12  C   UNL     1       3.780   2.994  17.617  0.00  0.00    +0.000 A 
ENDBRANCH   4   7
BRANCH   5  13
ATOM     13  C   UNL     1       6.344   4.143  14.420  0.00  0.00    +0.000 A 
ATOM     14  C   UNL     1       5.742   3.373  13.408  0.00  0.00    +0.000 A 
ATOM     15  C   UNL     1       6.180   3.455  12.084  0.00  0.00    +0.000 A 
ATOM     16  C   UNL     1       7.216   4.316  11.744  0.00  0.00    +0.000 A 
ATOM     17  C   UNL     1       7.807   5.108  12.727  0.00  0.00    +0.000 A 
ATOM     18  C   UNL     1       7.372   5.026  14.053  0.00  0.00    +0.000 A 
ENDBRANCH   5  13
TORSDOF 2
ENDMDL
MODEL 7
REMARK VINA RESULT:      -7.6      1.141      5.787
REMARK  Name = 
REMARK  3 active torsions:
REMARK  status: ('A' for Active; 'I' for Inactive)
REMARK    1  A    between atoms: C_1  and  C_2
REMARK    2  A    between atoms: C_4  and  C_5
REMARK    3  A    between atoms: C_11  and  C_12
REMARK                            x       y       z     vdW  Elec       q    Type
REMARK                         _______ _______ _______ _____ _____    ______ ____
ROOT
ATOM      1  C   UNL     1       7.788   6.759  18.173  0.00  0.00    +0.000 C 
ATOM      2  C   UNL     1       6.888   5.965  17.288  0.00  0.00    +0.000 C 
ATOM      3  N   UNL     1       7.189   4.780  16.874  0.00  0.00    +0.000 NA
ATOM      4  C   UNL     1       6.115   4.277  15.965  0.00  0.00    +0.000 C 
ATOM      5  C   UNL     1       4.791   5.035  16.256  0.00  0.00    +0.000 C 
ATOM      6  S   UNL     1       5.372   6.671  16.808  0.00  0.00    +0.000 S 
ENDROOT
BRANCH   4   7
ATOM      7  C   UNL     1       6.546   4.302  14.500  0.00  0.00    +0.000 A 
ATOM      8  C   UNL     1       7.582   5.164  14.099  0.00  0.00    +0.000 A 
ATOM      9  C   UNL     1       7.947   5.260  12.754  0.00  0.00    +0.000 A 
ATOM     10  C   UNL     1       7.292   4.491  11.793  0.00  0.00    +0.000 A 
ATOM     11  C   UNL     1       6.279   3.618  12.178  0.00  0.00    +0.000 A 
ATOM     12  C   UNL     1       5.911   3.523  13.522  0.00  0.00    +0.000 A 
ENDBRANCH   4   7
BRANCH   5  13
ATOM     13  C   UNL     1       3.910   4.402  17.333  0.00  0.00    +0.000 A 
ATOM     14  C   UNL     1       3.976   3.033  17.647  0.00  0.00    +0.000 A 
ATOM     15  C   UNL     1       3.151   2.478  18.627  0.00  0.00    +0.000 A 
ATOM     16  C   UNL     1       2.256   3.282  19.322  0.00  0.00    +0.000 A 
ATOM     17  C   UNL     1       2.194   4.646  19.045  0.00  0.00    +0.000 A 
ATOM     18  C   UNL     1       3.017   5.204  18.063  0.00  0.00    +0.000 A 
ENDBRANCH   5  13
TORSDOF 2
ENDMDL
MODEL 8
REMARK VINA RESULT:      -7.5      1.026      5.729
REMARK  Name = 
REMARK  3 active torsions:
REMARK  status: ('A' for Active; 'I' for Inactive)
REMARK    1  A    between atoms: C_1  and  C_2
REMARK    2  A    between atoms: C_4  and  C_5
REMARK    3  A    between atoms: C_11  and  C_12
REMARK                            x       y       z     vdW  Elec       q    Type
REMARK                         _______ _______ _______ _____ _____    ______ ____
ROOT
ATOM      1  C   UNL     1       7.780   6.212  18.570  0.00  0.00    +0.000 C 
ATOM      2  C   UNL     1       6.801   5.662  17.589  0.00  0.00    +0.000 C 
ATOM      3  N   UNL     1       6.889   4.465  17.115  0.00  0.00    +0.000 NA
ATOM      4  C   UNL     1       5.799   4.236  16.119  0.00  0.00    +0.000 C 
ATOM      5  C   UNL     1       4.633   5.228  16.388  0.00  0.00    +0.000 C 
ATOM      6  S   UNL     1       5.488   6.682  17.076  0.00  0.00    +0.000 S 
ENDROOT
BRANCH   4   7
ATOM      7  C   UNL     1       6.321   4.253  14.683  0.00  0.00    +0.000 A 
ATOM      8  C   UNL     1       7.396   5.095  14.350  0.00  0.00    +0.000 A 
ATOM      9  C   UNL     1       7.846   5.185  13.030  0.00  0.00    +0.000 A 
ATOM     10  C   UNL     1       7.238   4.429  12.029  0.00  0.00    +0.000 A 
ATOM     11  C   UNL     1       6.186   3.575  12.349  0.00  0.00    +0.000 A 
ATOM     12  C   UNL     1       5.733   3.487  13.667  0.00  0.00    +0.000 A 
ENDBRANCH   4   7
BRANCH   5  13
ATOM     13  C   UNL     1       3.577   4.727  17.373  0.00  0.00    +0.000 A 
ATOM     14  C   UNL     1       3.121   5.511  18.447  0.00  0.00    +0.000 A 
ATOM     15  C   UNL     1       2.163   5.025  19.338  0.00  0.00    +0.000 A 
ATOM     16  C   UNL     1       1.631   3.754  19.165  0.00  0.00    +0.000 A 
ATOM     17  C   UNL     1       2.048   2.971  18.092  0.00  0.00    +0.000 A 
ATOM     18  C   UNL     1       3.010   3.454  17.198  0.00  0.00    +0.000 A 
ENDBRANCH   5  13
TORSDOF 2
ENDMDL
MODEL 9
REMARK VINA RESULT:      -7.5      2.717      6.784
REMARK  Name = 
REMARK  3 active torsions:
REMARK  status: ('A' for Active; 'I' for Inactive)
REMARK    1  A    between atoms: C_1  and  C_2
REMARK    2  A    between atoms: C_4  and  C_5
REMARK    3  A    between atoms: C_11  and  C_12
REMARK                            x       y       z     vdW  Elec       q    Type
REMARK                         _______ _______ _______ _____ _____    ______ ____
ROOT
ATOM      1  C   UNL     1       0.957   3.130  19.179  0.00  0.00    +0.000 C 
ATOM      2  C   UNL     1       1.925   4.236  18.928  0.00  0.00    +0.000 C 
ATOM      3  N   UNL     1       2.225   4.642  17.740  0.00  0.00    +0.000 NA
ATOM      4  C   UNL     1       3.260   5.716  17.821  0.00  0.00    +0.000 C 
ATOM      5  C   UNL     1       3.216   6.374  19.228  0.00  0.00    +0.000 C 
ATOM      6  S   UNL     1       2.670   5.006  20.299  0.00  0.00    +0.000 S 
ENDROOT
BRANCH   4   7
ATOM      7  C   UNL     1       4.641   5.215  17.402  0.00  0.00    +0.000 A 
ATOM      8  C   UNL     1       5.775   5.641  18.114  0.00  0.00    +0.000 A 
ATOM      9  C   UNL     1       7.056   5.257  17.709  0.00  0.00    +0.000 A 
ATOM     10  C   UNL     1       7.221   4.433  16.597  0.00  0.00    +0.000 A 
ATOM     11  C   UNL     1       6.105   3.986  15.894  0.00  0.00    +0.000 A 
ATOM     12  C   UNL     1       4.825   4.373  16.297  0.00  0.00    +0.000 A 
ENDBRANCH   4   7
BRANCH   5  13
ATOM     13  C   UNL     1       2.256   7.556  19.357  0.00  0.00    +0.000 A 
ATOM     14  C   UNL     1       1.629   7.883  20.572  0.00  0.00    +0.000 A 
ATOM     15  C   UNL     1       0.747   8.962  20.660  0.00  0.00    +0.000 A 
ATOM     16  C   UNL     1       0.485   9.742  19.540  0.00  0.00    +0.000 A 
ATOM     17  C   UNL     1       1.117   9.451  18.333  0.00  0.00    +0.000 A 
ATOM     18  C   UNL     1       1.999   8.370  18.242  0.00  0.00    +0.000 A 
ENDBRANCH   5  13
TORSDOF 2
ENDMDL
