MODEL 1
REMARK VINA RESULT:      -7.1      0.000      0.000
REMARK  Name = 
REMARK  9 active torsions:
REMARK  status: ('A' for Active; 'I' for Inactive)
REMARK    1  A    between atoms: C_1  and  O_2
REMARK    2  A    between atoms: O_2  and  C_3
REMARK    3  A    between atoms: C_5  and  C_6
REMARK    4  A    between atoms: C_6  and  N_7
REMARK    5  A    between atoms: C_8  and  C_10
REMARK    6  A    between atoms: C_10  and  C_11
REMARK    7  A    between atoms: C_11  and  C_12
REMARK    8  A    between atoms: C_15  and  O_16
REMARK    9  A    between atoms: C_21  and  O_22
REMARK                            x       y       z     vdW  Elec       q    Type
REMARK                         _______ _______ _______ _____ _____    ______ ____
ROOT
ATOM      1  N   UNL     1       3.074   3.316  18.859  0.00  0.00    +0.000 N 
ATOM      2  C   UNL     1       1.777   3.758  18.695  0.00  0.00    +0.000 C 
ATOM      3  O   UNL     1       1.231   3.858  17.604  0.00  0.00    +0.000 OA
ATOM      4  H   UNL     1       3.460   3.236  19.790  0.00  0.00    +0.000 HD
ENDROOT
BRANCH   1   5
ATOM      5  C   UNL     1       3.909   2.904  17.749  0.00  0.00    +0.000 C 
BRANCH   5   8
ATOM      6  C   UNL     1       6.229   5.174  15.712  0.00  0.00    +0.000 A 
ATOM      7  C   UNL     1       5.295   4.188  16.067  0.00  0.00    +0.000 A 
ATOM      8  C   UNL     1       4.944   3.948  17.406  0.00  0.00    +0.000 A 
ATOM      9  C   UNL     1       5.541   4.729  18.400  0.00  0.00    +0.000 A 
ATOM     10  C   UNL     1       6.473   5.716  18.065  0.00  0.00    +0.000 A 
ATOM     11  C   UNL     1       6.818   5.937  16.726  0.00  0.00    +0.000 A 
BRANCH   6  13
ATOM     12  C   UNL     1       6.437   4.049  13.610  0.00  0.00    +0.000 C 
ATOM     13  O   UNL     1       6.434   5.254  14.361  0.00  0.00    +0.000 OA
ENDBRANCH   6  13
BRANCH  11  14
ATOM     14  O   UNL     1       7.737   6.911  16.450  0.00  0.00    +0.000 OA
ATOM     15  H   UNL     1       7.447   7.748  16.845  0.00  0.00    +0.000 HD
ENDBRANCH  11  14
ENDBRANCH   5   8
ENDBRANCH   1   5
BRANCH   2  16
ATOM     16  C   UNL     1       1.110   4.174  19.997  0.00  0.00    +0.000 C 
BRANCH  16  17
ATOM     17  C   UNL     1       1.949   5.210  20.744  0.00  0.00    +0.000 C 
BRANCH  17  18
ATOM     18  C   UNL     1       1.829   6.598  20.156  0.00  0.00    +0.000 A 
ATOM     19  C   UNL     1       1.191   7.619  20.878  0.00  0.00    +0.000 A 
ATOM     20  C   UNL     1       1.097   8.912  20.356  0.00  0.00    +0.000 A 
ATOM     21  C   UNL     1       1.634   9.185  19.103  0.00  0.00    +0.000 A 
ATOM     22  C   UNL     1       2.262   8.186  18.367  0.00  0.00    +0.000 A 
ATOM     23  C   UNL     1       2.357   6.893  18.891  0.00  0.00    +0.000 A 
BRANCH  21  24
ATOM     24  O   UNL     1       1.569  10.434  18.558  0.00  0.00    +0.000 OA
ATOM     25  H   UNL     1       1.941  11.067  19.194  0.00  0.00    +0.000 HD
ENDBRANCH  21  24
ENDBRANCH  17  18
ENDBRANCH  16  17
ENDBRANCH   2  16
TORSDOF 8
ENDMDL
MODEL 2
REMARK VINA RESULT:      -7.1      0.916      1.942
REMARK  Name = 
REMARK  9 active torsions:
REMARK  status: ('A' for Active; 'I' for Inactive)
REMARK    1  A    between atoms: C_1  and  O_2
REMARK    2  A    between atoms: O_2  and  C_3
REMARK    3  A    between atoms: C_5  and  C_6
REMARK    4  A    between atoms: C_6  and  N_7
REMARK    5  A    between atoms: C_8  and  C_10
REMARK    6  A    between atoms: C_10  and  C_11
REMARK    7  A    between atoms: C_11  and  C_12
REMARK    8  A    between atoms: C_15  and  O_16
REMARK    9  A    between atoms: C_21  and  O_22
REMARK                            x       y       z     vdW  Elec       q    Type
REMARK                         _______ _______ _______ _____ _____    ______ ____
ROOT
ATOM      1  N   UNL     1       2.869   3.232  18.948  0.00  0.00    +0.000 N 
ATOM      2  C   UNL     1       1.587   3.739  18.907  0.00  0.00    +0.000 C 
ATOM      3  O   UNL     1       0.922   3.812  17.882  0.00  0.00    +0.000 OA
ATOM      4  H   UNL     1       3.357   3.180  19.831  0.00  0.00    +0.000 HD
ENDROOT
BRANCH   1   5
ATOM      5  C   UNL     1       3.545   2.713  17.776  0.00  0.00    +0.000 C 
BRANCH   5   8
ATOM      6  C   UNL     1       6.808   4.713  17.584  0.00  0.00    +0.000 A 
ATOM      7  C   UNL     1       5.780   3.868  18.033  0.00  0.00    +0.000 A 
ATOM      8  C   UNL     1       4.614   3.656  17.279  0.00  0.00    +0.000 A 
ATOM      9  C   UNL     1       4.492   4.302  16.045  0.00  0.00    +0.000 A 
ATOM     10  C   UNL     1       5.506   5.147  15.583  0.00  0.00    +0.000 A 
ATOM     11  C   UNL     1       6.658   5.354  16.349  0.00  0.00    +0.000 A 
BRANCH   6  13
ATOM     12  C   UNL     1       7.883   5.858  19.390  0.00  0.00    +0.000 C 
ATOM     13  O   UNL     1       7.859   4.787  18.458  0.00  0.00    +0.000 OA
ENDBRANCH   6  13
BRANCH  11  14
ATOM     14  O   UNL     1       7.620   6.192  15.855  0.00  0.00    +0.000 OA
ATOM     15  H   UNL     1       8.117   6.581  16.591  0.00  0.00    +0.000 HD
ENDBRANCH  11  14
ENDBRANCH   5   8
ENDBRANCH   1   5
BRANCH   2  16
ATOM     16  C   UNL     1       1.101   4.264  20.250  0.00  0.00    +0.000 C 
BRANCH  16  17
ATOM     17  C   UNL     1       2.054   5.318  20.812  0.00  0.00    +0.000 C 
BRANCH  17  18
ATOM     18  C   UNL     1       1.938   6.650  20.108  0.00  0.00    +0.000 A 
ATOM     19  C   UNL     1       1.259   7.716  20.719  0.00  0.00    +0.000 A 
ATOM     20  C   UNL     1       1.168   8.961  20.089  0.00  0.00    +0.000 A 
ATOM     21  C   UNL     1       1.750   9.139  18.839  0.00  0.00    +0.000 A 
ATOM     22  C   UNL     1       2.420   8.095  18.213  0.00  0.00    +0.000 A 
ATOM     23  C   UNL     1       2.512   6.850  18.844  0.00  0.00    +0.000 A 
BRANCH  21  24
ATOM     24  O   UNL     1       1.689  10.339  18.192  0.00  0.00    +0.000 OA
ATOM     25  H   UNL     1       0.860  10.780  18.439  0.00  0.00    +0.000 HD
ENDBRANCH  21  24
ENDBRANCH  17  18
ENDBRANCH  16  17
ENDBRANCH   2  16
TORSDOF 8
ENDMDL
MODEL 3
REMARK VINA RESULT:      -7.0      0.860      1.379
REMARK  Name = 
REMARK  9 active torsions:
REMARK  status: ('A' for Active; 'I' for Inactive)
REMARK    1  A    between atoms: C_1  and  O_2
REMARK    2  A    between atoms: O_2  and  C_3
REMARK    3  A    between atoms: C_5  and  C_6
REMARK    4  A    between atoms: C_6  and  N_7
REMARK    5  A    between atoms: C_8  and  C_10
REMARK    6  A    between atoms: C_10  and  C_11
REMARK    7  A    between atoms: C_11  and  C_12
REMARK    8  A    between atoms: C_15  and  O_16
REMARK    9  A    between atoms: C_21  and  O_22
REMARK                            x       y       z     vdW  Elec       q    Type
REMARK                         _______ _______ _______ _____ _____    ______ ____
ROOT
ATOM      1  N   UNL     1       3.404   3.996  19.913  0.00  0.00    +0.000 N 
ATOM      2  C   UNL     1       2.094   3.849  19.508  0.00  0.00    +0.000 C 
ATOM      3  O   UNL     1       1.751   3.126  18.581  0.00  0.00    +0.000 OA
ATOM      4  H   UNL     1       3.620   4.593  20.700  0.00  0.00    +0.000 HD
ENDROOT
BRANCH   1   5
ATOM      5  C   UNL     1       4.503   3.284  19.291  0.00  0.00    +0.000 C 
BRANCH   5   8
ATOM      6  C   UNL     1       6.099   5.194  16.378  0.00  0.00    +0.000 A 
ATOM      7  C   UNL     1       5.294   4.317  17.122  0.00  0.00    +0.000 A 
ATOM      8  C   UNL     1       5.409   4.212  18.518  0.00  0.00    +0.000 A 
ATOM      9  C   UNL     1       6.347   5.017  19.171  0.00  0.00    +0.000 A 
ATOM     10  C   UNL     1       7.155   5.897  18.446  0.00  0.00    +0.000 A 
ATOM     11  C   UNL     1       7.034   5.984  17.054  0.00  0.00    +0.000 A 
BRANCH   6  13
ATOM     12  C   UNL     1       6.376   4.080  14.278  0.00  0.00    +0.000 C 
ATOM     13  O   UNL     1       5.835   5.152  15.035  0.00  0.00    +0.000 OA
ENDBRANCH   6  13
BRANCH  11  14
ATOM     14  O   UNL     1       7.851   6.858  16.389  0.00  0.00    +0.000 OA
ATOM     15  H   UNL     1       7.466   7.747  16.425  0.00  0.00    +0.000 HD
ENDBRANCH  11  14
ENDBRANCH   5   8
ENDBRANCH   1   5
BRANCH   2  16
ATOM     16  C   UNL     1       1.120   4.727  20.279  0.00  0.00    +0.000 C 
BRANCH  16  17
ATOM     17  C   UNL     1       1.828   5.932  20.896  0.00  0.00    +0.000 C 
BRANCH  17  18
ATOM     18  C   UNL     1       1.861   7.130  19.973  0.00  0.00    +0.000 A 
ATOM     19  C   UNL     1       2.563   7.068  18.760  0.00  0.00    +0.000 A 
ATOM     20  C   UNL     1       2.579   8.159  17.887  0.00  0.00    +0.000 A 
ATOM     21  C   UNL     1       1.896   9.320  18.230  0.00  0.00    +0.000 A 
ATOM     22  C   UNL     1       1.201   9.405  19.431  0.00  0.00    +0.000 A 
ATOM     23  C   UNL     1       1.185   8.313  20.304  0.00  0.00    +0.000 A 
BRANCH  21  24
ATOM     24  O   UNL     1       1.881  10.407  17.405  0.00  0.00    +0.000 OA
ATOM     25  H   UNL     1       2.465  11.086  17.780  0.00  0.00    +0.000 HD
ENDBRANCH  21  24
ENDBRANCH  17  18
ENDBRANCH  16  17
ENDBRANCH   2  16
TORSDOF 8
ENDMDL
MODEL 4
REMARK VINA RESULT:      -6.9      2.168      4.621
REMARK  Name = 
REMARK  9 active torsions:
REMARK  status: ('A' for Active; 'I' for Inactive)
REMARK    1  A    between atoms: C_1  and  O_2
REMARK    2  A    between atoms: O_2  and  C_3
REMARK    3  A    between atoms: C_5  and  C_6
REMARK    4  A    between atoms: C_6  and  N_7
REMARK    5  A    between atoms: C_8  and  C_10
REMARK    6  A    between atoms: C_10  and  C_11
REMARK    7  A    between atoms: C_11  and  C_12
REMARK    8  A    between atoms: C_15  and  O_16
REMARK    9  A    between atoms: C_21  and  O_22
REMARK                            x       y       z     vdW  Elec       q    Type
REMARK                         _______ _______ _______ _____ _____    ______ ____
ROOT
ATOM      1  N   UNL     1       2.158   6.171  18.431  0.00  0.00    +0.000 N 
ATOM      2  C   UNL     1       1.955   6.368  19.782  0.00  0.00    +0.000 C 
ATOM      3  O   UNL     1       2.546   7.217  20.436  0.00  0.00    +0.000 OA
ATOM      4  H   UNL     1       1.622   5.467  17.943  0.00  0.00    +0.000 HD
ENDROOT
BRANCH   1   5
ATOM      5  C   UNL     1       3.080   6.972  17.651  0.00  0.00    +0.000 C 
BRANCH   5   8
ATOM      6  C   UNL     1       6.789   6.295  16.965  0.00  0.00    +0.000 A 
ATOM      7  C   UNL     1       5.567   6.949  17.190  0.00  0.00    +0.000 A 
ATOM      8  C   UNL     1       4.370   6.238  17.377  0.00  0.00    +0.000 A 
ATOM      9  C   UNL     1       4.415   4.841  17.347  0.00  0.00    +0.000 A 
ATOM     10  C   UNL     1       5.623   4.174  17.125  0.00  0.00    +0.000 A 
ATOM     11  C   UNL     1       6.805   4.897  16.932  0.00  0.00    +0.000 A 
BRANCH   6  13
ATOM     12  C   UNL     1       7.973   8.226  17.738  0.00  0.00    +0.000 C 
ATOM     13  O   UNL     1       7.837   7.162  16.809  0.00  0.00    +0.000 OA
ENDBRANCH   6  13
BRANCH  11  14
ATOM     14  O   UNL     1       7.961   4.198  16.716  0.00  0.00    +0.000 OA
ATOM     15  H   UNL     1       8.603   4.769  16.265  0.00  0.00    +0.000 HD
ENDBRANCH  11  14
ENDBRANCH   5   8
ENDBRANCH   1   5
BRANCH   2  16
ATOM     16  C   UNL     1       0.973   5.382  20.396  0.00  0.00    +0.000 C 
BRANCH  16  17
ATOM     17  C   UNL     1       1.700   4.293  21.184  0.00  0.00    +0.000 C 
BRANCH  17  18
ATOM     18  C   UNL     1       2.376   3.276  20.292  0.00  0.00    +0.000 A 
ATOM     19  C   UNL     1       1.704   2.759  19.174  0.00  0.00    +0.000 A 
ATOM     20  C   UNL     1       2.329   1.838  18.328  0.00  0.00    +0.000 A 
ATOM     21  C   UNL     1       3.627   1.425  18.604  0.00  0.00    +0.000 A 
ATOM     22  C   UNL     1       4.307   1.919  19.712  0.00  0.00    +0.000 A 
ATOM     23  C   UNL     1       3.682   2.841  20.558  0.00  0.00    +0.000 A 
BRANCH  21  24
ATOM     24  O   UNL     1       4.275   0.532  17.802  0.00  0.00    +0.000 OA
ATOM     25  H   UNL     1       5.156   0.886  17.597  0.00  0.00    +0.000 HD
ENDBRANCH  21  24
ENDBRANCH  17  18
ENDBRANCH  16  17
ENDBRANCH   2  16
TORSDOF 8
ENDMDL
MODEL 5
REMARK VINA RESULT:      -6.9      1.285      2.355
REMARK  Name = 
REMARK  9 active torsions:
REMARK  status: ('A' for Active; 'I' for Inactive)
REMARK    1  A    between atoms: C_1  and  O_2
REMARK    2  A    between atoms: O_2  and  C_3
REMARK    3  A    between atoms: C_5  and  C_6
REMARK    4  A    between atoms: C_6  and  N_7
REMARK    5  A    between atoms: C_8  and  C_10
REMARK    6  A    between atoms: C_10  and  C_11
REMARK    7  A    between atoms: C_11  and  C_12
REMARK    8  A    between atoms: C_15  and  O_16
REMARK    9  A    between atoms: C_21  and  O_22
REMARK                            x       y       z     vdW  Elec       q    Type
REMARK                         _______ _______ _______ _____ _____    ______ ____
ROOT
ATOM      1  N   UNL     1       2.345   3.894  18.330  0.00  0.00    +0.000 N 
ATOM      2  C   UNL     1       2.268   3.712  19.695  0.00  0.00    +0.000 C 
ATOM      3  O   UNL     1       2.881   2.839  20.296  0.00  0.00    +0.000 OA
ATOM      4  H   UNL     1       1.829   4.648  17.897  0.00  0.00    +0.000 HD
ENDROOT
BRANCH   1   5
ATOM      5  C   UNL     1       3.183   3.077  17.475  0.00  0.00    +0.000 C 
BRANCH   5   8
ATOM      6  C   UNL     1       6.668   4.667  17.356  0.00  0.00    +0.000 A 
ATOM      7  C   UNL     1       5.518   3.994  17.799  0.00  0.00    +0.000 A 
ATOM      8  C   UNL     1       4.389   3.836  16.978  0.00  0.00    +0.000 A 
ATOM      9  C   UNL     1       4.431   4.359  15.682  0.00  0.00    +0.000 A 
ATOM     10  C   UNL     1       5.568   5.031  15.223  0.00  0.00    +0.000 A 
ATOM     11  C   UNL     1       6.681   5.187  16.057  0.00  0.00    +0.000 A 
BRANCH   6  13
ATOM     12  C   UNL     1       7.826   5.916  19.036  0.00  0.00    +0.000 C 
ATOM     13  O   UNL     1       7.657   4.714  18.301  0.00  0.00    +0.000 OA
ENDBRANCH   6  13
BRANCH  11  14
ATOM     14  O   UNL     1       7.768   5.855  15.563  0.00  0.00    +0.000 OA
ATOM     15  H   UNL     1       8.411   5.995  16.276  0.00  0.00    +0.000 HD
ENDBRANCH  11  14
ENDBRANCH   5   8
ENDBRANCH   1   5
BRANCH   2  16
ATOM     16  C   UNL     1       1.293   4.659  20.378  0.00  0.00    +0.000 C 
BRANCH  16  17
ATOM     17  C   UNL     1       2.012   5.883  20.945  0.00  0.00    +0.000 C 
BRANCH  17  18
ATOM     18  C   UNL     1       1.984   7.068  20.006  0.00  0.00    +0.000 A 
ATOM     19  C   UNL     1       2.678   7.021  18.787  0.00  0.00    +0.000 A 
ATOM     20  C   UNL     1       2.637   8.100  17.900  0.00  0.00    +0.000 A 
ATOM     21  C   UNL     1       1.907   9.234  18.234  0.00  0.00    +0.000 A 
ATOM     22  C   UNL     1       1.218   9.304  19.440  0.00  0.00    +0.000 A 
ATOM     23  C   UNL     1       1.259   8.224  20.327  0.00  0.00    +0.000 A 
BRANCH  21  24
ATOM     24  O   UNL     1       1.836  10.307  17.395  0.00  0.00    +0.000 OA
ATOM     25  H   UNL     1       2.172  11.088  17.865  0.00  0.00    +0.000 HD
ENDBRANCH  21  24
ENDBRANCH  17  18
ENDBRANCH  16  17
ENDBRANCH   2  16
TORSDOF 8
ENDMDL
MODEL 6
REMARK VINA RESULT:      -6.9      5.055      7.400
REMARK  Name = 
REMARK  9 active torsions:
REMARK  status: ('A' for Active; 'I' for Inactive)
REMARK    1  A    between atoms: C_1  and  O_2
REMARK    2  A    between atoms: O_2  and  C_3
REMARK    3  A    between atoms: C_5  and  C_6
REMARK    4  A    between atoms: C_6  and  N_7
REMARK    5  A    between atoms: C_8  and  C_10
REMARK    6  A    between atoms: C_10  and  C_11
REMARK    7  A    between atoms: C_11  and  C_12
REMARK    8  A    between atoms: C_15  and  O_16
REMARK    9  A    between atoms: C_21  and  O_22
REMARK                            x       y       z     vdW  Elec       q    Type
REMARK                         _______ _______ _______ _____ _____    ______ ____
ROOT
ATOM      1  N   UNL     1       7.303   7.370  16.863  0.00  0.00    +0.000 N 
ATOM      2  C   UNL     1       7.996   7.933  17.914  0.00  0.00    +0.000 C 
ATOM      3  O   UNL     1       8.422   7.289  18.864  0.00  0.00    +0.000 OA
ATOM      4  H   UNL     1       6.995   7.954  16.097  0.00  0.00    +0.000 HD
ENDROOT
BRANCH   1   5
ATOM      5  C   UNL     1       7.033   5.948  16.773  0.00  0.00    +0.000 C 
BRANCH   5   8
ATOM      6  C   UNL     1       4.050   3.963  18.130  0.00  0.00    +0.000 A 
ATOM      7  C   UNL     1       5.327   4.303  17.656  0.00  0.00    +0.000 A 
ATOM      8  C   UNL     1       5.640   5.609  17.244  0.00  0.00    +0.000 A 
ATOM      9  C   UNL     1       4.645   6.589  17.325  0.00  0.00    +0.000 A 
ATOM     10  C   UNL     1       3.369   6.267  17.796  0.00  0.00    +0.000 A 
ATOM     11  C   UNL     1       3.070   4.959  18.195  0.00  0.00    +0.000 A 
BRANCH   6  13
ATOM     12  C   UNL     1       4.186   2.290  19.836  0.00  0.00    +0.000 C 
ATOM     13  O   UNL     1       3.945   2.644  18.483  0.00  0.00    +0.000 OA
ENDBRANCH   6  13
BRANCH  11  14
ATOM     14  O   UNL     1       1.806   4.695  18.645  0.00  0.00    +0.000 OA
ATOM     15  H   UNL     1       1.243   4.445  17.895  0.00  0.00    +0.000 HD
ENDBRANCH  11  14
ENDBRANCH   5   8
ENDBRANCH   1   5
BRANCH   2  16
ATOM     16  C   UNL     1       8.122   9.446  17.814  0.00  0.00    +0.000 C 
BRANCH  16  17
ATOM     17  C   UNL     1       9.086   9.993  18.866  0.00  0.00    +0.000 C 
BRANCH  17  18
ATOM     18  C   UNL     1       9.652  11.346  18.497  0.00  0.00    +0.000 A 
ATOM     19  C   UNL     1       9.065  12.518  18.998  0.00  0.00    +0.000 A 
ATOM     20  C   UNL     1       9.595  13.773  18.685  0.00  0.00    +0.000 A 
ATOM     21  C   UNL     1      10.712  13.858  17.861  0.00  0.00    +0.000 A 
ATOM     22  C   UNL     1      11.304  12.710  17.348  0.00  0.00    +0.000 A 
ATOM     23  C   UNL     1      10.773  11.454  17.662  0.00  0.00    +0.000 A 
BRANCH  21  24
ATOM     24  O   UNL     1      11.264  15.062  17.535  0.00  0.00    +0.000 OA
ATOM     25  H   UNL     1      11.306  15.129  16.567  0.00  0.00    +0.000 HD
ENDBRANCH  21  24
ENDBRANCH  17  18
ENDBRANCH  16  17
ENDBRANCH   2  16
TORSDOF 8
ENDMDL
MODEL 7
REMARK VINA RESULT:      -6.9      0.982      1.942
REMARK  Name = 
REMARK  9 active torsions:
REMARK  status: ('A' for Active; 'I' for Inactive)
REMARK    1  A    between atoms: C_1  and  O_2
REMARK    2  A    between atoms: O_2  and  C_3
REMARK    3  A    between atoms: C_5  and  C_6
REMARK    4  A    between atoms: C_6  and  N_7
REMARK    5  A    between atoms: C_8  and  C_10
REMARK    6  A    between atoms: C_10  and  C_11
REMARK    7  A    between atoms: C_11  and  C_12
REMARK    8  A    between atoms: C_15  and  O_16
REMARK    9  A    between atoms: C_21  and  O_22
REMARK                            x       y       z     vdW  Elec       q    Type
REMARK                         _______ _______ _______ _____ _____    ______ ____
ROOT
ATOM      1  N   UNL     1       3.316   3.800  18.587  0.00  0.00    +0.000 N 
ATOM      2  C   UNL     1       1.975   4.087  18.739  0.00  0.00    +0.000 C 
ATOM      3  O   UNL     1       1.110   3.702  17.964  0.00  0.00    +0.000 OA
ATOM      4  H   UNL     1       3.979   4.131  19.274  0.00  0.00    +0.000 HD
ENDROOT
BRANCH   1   5
ATOM      5  C   UNL     1       3.826   2.989  17.499  0.00  0.00    +0.000 C 
BRANCH   5   8
ATOM      6  C   UNL     1       6.208   5.743  16.305  0.00  0.00    +0.000 A 
ATOM      7  C   UNL     1       5.231   5.038  17.026  0.00  0.00    +0.000 A 
ATOM      8  C   UNL     1       4.855   3.729  16.680  0.00  0.00    +0.000 A 
ATOM      9  C   UNL     1       5.489   3.121  15.592  0.00  0.00    +0.000 A 
ATOM     10  C   UNL     1       6.465   3.808  14.864  0.00  0.00    +0.000 A 
ATOM     11  C   UNL     1       6.822   5.114  15.217  0.00  0.00    +0.000 A 
BRANCH   6  13
ATOM     12  C   UNL     1       7.563   7.200  17.635  0.00  0.00    +0.000 C 
ATOM     13  O   UNL     1       6.433   7.000  16.799  0.00  0.00    +0.000 OA
ENDBRANCH   6  13
BRANCH  11  14
ATOM     14  O   UNL     1       7.780   5.744  14.471  0.00  0.00    +0.000 OA
ATOM     15  H   UNL     1       8.007   5.193  13.706  0.00  0.00    +0.000 HD
ENDBRANCH  11  14
ENDBRANCH   5   8
ENDBRANCH   1   5
BRANCH   2  16
ATOM     16  C   UNL     1       1.681   4.989  19.929  0.00  0.00    +0.000 C 
BRANCH  16  17
ATOM     17  C   UNL     1       2.696   6.127  20.027  0.00  0.00    +0.000 C 
BRANCH  17  18
ATOM     18  C   UNL     1       2.140   7.451  19.553  0.00  0.00    +0.000 A 
ATOM     19  C   UNL     1       1.386   8.253  20.424  0.00  0.00    +0.000 A 
ATOM     20  C   UNL     1       0.890   9.491  20.005  0.00  0.00    +0.000 A 
ATOM     21  C   UNL     1       1.141   9.927  18.709  0.00  0.00    +0.000 A 
ATOM     22  C   UNL     1       1.878   9.144  17.828  0.00  0.00    +0.000 A 
ATOM     23  C   UNL     1       2.376   7.906  18.248  0.00  0.00    +0.000 A 
BRANCH  21  24
ATOM     24  O   UNL     1       0.679  11.130  18.262  0.00  0.00    +0.000 OA
ATOM     25  H   UNL     1      -0.175  10.988  17.823  0.00  0.00    +0.000 HD
ENDBRANCH  21  24
ENDBRANCH  17  18
ENDBRANCH  16  17
ENDBRANCH   2  16
TORSDOF 8
ENDMDL
MODEL 8
REMARK VINA RESULT:      -6.9      4.413      6.988
REMARK  Name = 
REMARK  9 active torsions:
REMARK  status: ('A' for Active; 'I' for Inactive)
REMARK    1  A    between atoms: C_1  and  O_2
REMARK    2  A    between atoms: O_2  and  C_3
REMARK    3  A    between atoms: C_5  and  C_6
REMARK    4  A    between atoms: C_6  and  N_7
REMARK    5  A    between atoms: C_8  and  C_10
REMARK    6  A    between atoms: C_10  and  C_11
REMARK    7  A    between atoms: C_11  and  C_12
REMARK    8  A    between atoms: C_15  and  O_16
REMARK    9  A    between atoms: C_21  and  O_22
REMARK                            x       y       z     vdW  Elec       q    Type
REMARK                         _______ _______ _______ _____ _____    ______ ____
ROOT
ATOM      1  N   UNL     1       7.351   6.452  18.577  0.00  0.00    +0.000 N 
ATOM      2  C   UNL     1       7.573   7.176  17.424  0.00  0.00    +0.000 C 
ATOM      3  O   UNL     1       7.581   6.679  16.306  0.00  0.00    +0.000 OA
ATOM      4  H   UNL     1       7.337   6.926  19.470  0.00  0.00    +0.000 HD
ENDROOT
BRANCH   1   5
ATOM      5  C   UNL     1       7.080   5.028  18.569  0.00  0.00    +0.000 C 
BRANCH   5   8
ATOM      6  C   UNL     1       3.280   4.875  19.041  0.00  0.00    +0.000 A 
ATOM      7  C   UNL     1       4.648   5.104  19.260  0.00  0.00    +0.000 A 
ATOM      8  C   UNL     1       5.621   4.734  18.317  0.00  0.00    +0.000 A 
ATOM      9  C   UNL     1       5.199   4.133  17.127  0.00  0.00    +0.000 A 
ATOM     10  C   UNL     1       3.841   3.898  16.892  0.00  0.00    +0.000 A 
ATOM     11  C   UNL     1       2.885   4.265  17.846  0.00  0.00    +0.000 A 
BRANCH   6  13
ATOM     12  C   UNL     1       2.047   6.654  20.062  0.00  0.00    +0.000 C 
ATOM     13  O   UNL     1       2.494   5.307  20.076  0.00  0.00    +0.000 OA
ENDBRANCH   6  13
BRANCH  11  14
ATOM     14  O   UNL     1       1.569   4.011  17.571  0.00  0.00    +0.000 OA
ATOM     15  H   UNL     1       1.016   4.683  17.998  0.00  0.00    +0.000 HD
ENDBRANCH  11  14
ENDBRANCH   5   8
ENDBRANCH   1   5
BRANCH   2  16
ATOM     16  C   UNL     1       7.877   8.644  17.681  0.00  0.00    +0.000 C 
BRANCH  16  17
ATOM     17  C   UNL     1       8.835   8.815  18.860  0.00  0.00    +0.000 C 
BRANCH  17  18
ATOM     18  C   UNL     1       9.238  10.255  19.086  0.00  0.00    +0.000 A 
ATOM     19  C   UNL     1       9.494  11.096  17.993  0.00  0.00    +0.000 A 
ATOM     20  C   UNL     1       9.842  12.436  18.189  0.00  0.00    +0.000 A 
ATOM     21  C   UNL     1       9.941  12.935  19.482  0.00  0.00    +0.000 A 
ATOM     22  C   UNL     1       9.699  12.117  20.579  0.00  0.00    +0.000 A 
ATOM     23  C   UNL     1       9.351  10.776  20.383  0.00  0.00    +0.000 A 
BRANCH  21  24
ATOM     24  O   UNL     1      10.273  14.238  19.718  0.00  0.00    +0.000 OA
ATOM     25  H   UNL     1      10.988  14.259  20.374  0.00  0.00    +0.000 HD
ENDBRANCH  21  24
ENDBRANCH  17  18
ENDBRANCH  16  17
ENDBRANCH   2  16
TORSDOF 8
ENDMDL
MODEL 9
REMARK VINA RESULT:      -6.9      5.208      7.312
REMARK  Name = 
REMARK  9 active torsions:
REMARK  status: ('A' for Active; 'I' for Inactive)
REMARK    1  A    between atoms: C_1  and  O_2
REMARK    2  A    between atoms: O_2  and  C_3
REMARK    3  A    between atoms: C_5  and  C_6
REMARK    4  A    between atoms: C_6  and  N_7
REMARK    5  A    between atoms: C_8  and  C_10
REMARK    6  A    between atoms: C_10  and  C_11
REMARK    7  A    between atoms: C_11  and  C_12
REMARK    8  A    between atoms: C_15  and  O_16
REMARK    9  A    between atoms: C_21  and  O_22
REMARK                            x       y       z     vdW  Elec       q    Type
REMARK                         _______ _______ _______ _____ _____    ______ ____
ROOT
ATOM      1  N   UNL     1       8.269   8.386  18.467  0.00  0.00    +0.000 N 
ATOM      2  C   UNL     1       7.738   7.277  17.842  0.00  0.00    +0.000 C 
ATOM      3  O   UNL     1       7.226   7.309  16.731  0.00  0.00    +0.000 OA
ATOM      4  H   UNL     1       8.697   8.289  19.378  0.00  0.00    +0.000 HD
ENDROOT
BRANCH   1   5
ATOM      5  C   UNL     1       8.292   9.698  17.852  0.00  0.00    +0.000 C 
BRANCH   5   8
ATOM      6  C   UNL     1      11.177  12.202  18.156  0.00  0.00    +0.000 A 
ATOM      7  C   UNL     1      10.199  11.344  17.627  0.00  0.00    +0.000 A 
ATOM      8  C   UNL     1       9.356  10.583  18.454  0.00  0.00    +0.000 A 
ATOM      9  C   UNL     1       9.499  10.703  19.840  0.00  0.00    +0.000 A 
ATOM     10  C   UNL     1      10.466  11.553  20.384  0.00  0.00    +0.000 A 
ATOM     11  C   UNL     1      11.305  12.298  19.546  0.00  0.00    +0.000 A 
BRANCH   6  13
ATOM     12  C   UNL     1      11.442  14.131  16.766  0.00  0.00    +0.000 C 
ATOM     13  O   UNL     1      11.894  12.854  17.190  0.00  0.00    +0.000 OA
ENDBRANCH   6  13
BRANCH  11  14
ATOM     14  O   UNL     1      12.238  13.112  20.126  0.00  0.00    +0.000 OA
ATOM     15  H   UNL     1      12.665  13.650  19.442  0.00  0.00    +0.000 HD
ENDBRANCH  11  14
ENDBRANCH   5   8
ENDBRANCH   1   5
BRANCH   2  16
ATOM     16  C   UNL     1       7.787   6.019  18.697  0.00  0.00    +0.000 C 
BRANCH  16  17
ATOM     17  C   UNL     1       7.225   4.814  17.943  0.00  0.00    +0.000 C 
BRANCH  17  18
ATOM     18  C   UNL     1       5.730   4.661  18.113  0.00  0.00    +0.000 A 
ATOM     19  C   UNL     1       5.102   5.110  19.285  0.00  0.00    +0.000 A 
ATOM     20  C   UNL     1       3.718   4.998  19.442  0.00  0.00    +0.000 A 
ATOM     21  C   UNL     1       2.958   4.426  18.428  0.00  0.00    +0.000 A 
ATOM     22  C   UNL     1       3.561   3.967  17.263  0.00  0.00    +0.000 A 
ATOM     23  C   UNL     1       4.946   4.081  17.106  0.00  0.00    +0.000 A 
BRANCH  21  24
ATOM     24  O   UNL     1       1.604   4.301  18.539  0.00  0.00    +0.000 OA
ATOM     25  H   UNL     1       1.312   3.583  17.953  0.00  0.00    +0.000 HD
ENDBRANCH  21  24
ENDBRANCH  17  18
ENDBRANCH  16  17
ENDBRANCH   2  16
TORSDOF 8
ENDMDL
