MODEL 1
REMARK VINA RESULT:      -2.8      0.000      0.000
REMARK  Name = 
REMARK  0 active torsions:
REMARK  status: ('A' for Active; 'I' for Inactive)
REMARK                            x       y       z     vdW  Elec       q    Type
REMARK                         _______ _______ _______ _____ _____    ______ ____
ROOT
ATOM      1  O   UNL     1       3.660   9.838  25.760  0.00  0.00    +0.000 OA
ATOM      2  S   UNL     1       4.064  10.090  27.142  0.00  0.00    +0.000 S 
ATOM      3  O   UNL     1       3.542  11.303  27.735  0.00  0.00    +0.000 OA
ATOM      4  O   UNL     1       3.844   8.866  27.911  0.00  0.00    +0.000 OA
ATOM      5  H   UNL     1       5.398  10.261  27.104  0.00  0.00    +0.000 HD
ENDROOT
TORSDOF 0
ENDMDL
MODEL 2
REMARK VINA RESULT:      -2.8      0.090      2.103
REMARK  Name = 
REMARK  0 active torsions:
REMARK  status: ('A' for Active; 'I' for Inactive)
REMARK                            x       y       z     vdW  Elec       q    Type
REMARK                         _______ _______ _______ _____ _____    ______ ____
ROOT
ATOM      1  O   UNL     1       3.512  11.235  27.705  0.00  0.00    +0.000 OA
ATOM      2  S   UNL     1       4.064   9.985  27.186  0.00  0.00    +0.000 S 
ATOM      3  O   UNL     1       3.832   8.812  28.002  0.00  0.00    +0.000 OA
ATOM      4  O   UNL     1       3.675   9.864  25.782  0.00  0.00    +0.000 OA
ATOM      5  H   UNL     1       5.399  10.153  27.181  0.00  0.00    +0.000 HD
ENDROOT
TORSDOF 0
ENDMDL
MODEL 3
REMARK VINA RESULT:      -2.8      0.112      2.111
REMARK  Name = 
REMARK  0 active torsions:
REMARK  status: ('A' for Active; 'I' for Inactive)
REMARK                            x       y       z     vdW  Elec       q    Type
REMARK                         _______ _______ _______ _____ _____    ______ ____
ROOT
ATOM      1  O   UNL     1       3.997   8.924  27.956  0.00  0.00    +0.000 OA
ATOM      2  S   UNL     1       4.108  10.074  27.059  0.00  0.00    +0.000 S 
ATOM      3  O   UNL     1       3.686   9.845  25.694  0.00  0.00    +0.000 OA
ATOM      4  O   UNL     1       3.501  11.227  27.723  0.00  0.00    +0.000 OA
ATOM      5  H   UNL     1       5.423  10.347  26.981  0.00  0.00    +0.000 HD
ENDROOT
TORSDOF 0
ENDMDL
MODEL 4
REMARK VINA RESULT:      -2.8     12.680     13.304
REMARK  Name = 
REMARK  0 active torsions:
REMARK  status: ('A' for Active; 'I' for Inactive)
REMARK                            x       y       z     vdW  Elec       q    Type
REMARK                         _______ _______ _______ _____ _____    ______ ____
ROOT
ATOM      1  O   UNL     1       7.604   5.381  14.606  0.00  0.00    +0.000 OA
ATOM      2  S   UNL     1       6.920   4.707  15.707  0.00  0.00    +0.000 S 
ATOM      3  O   UNL     1       6.086   3.585  15.332  0.00  0.00    +0.000 OA
ATOM      4  O   UNL     1       7.901   4.440  16.757  0.00  0.00    +0.000 OA
ATOM      5  H   UNL     1       6.074   5.619  16.221  0.00  0.00    +0.000 HD
ENDROOT
TORSDOF 0
ENDMDL
MODEL 5
REMARK VINA RESULT:      -2.8     12.679     13.323
REMARK  Name = 
REMARK  0 active torsions:
REMARK  status: ('A' for Active; 'I' for Inactive)
REMARK                            x       y       z     vdW  Elec       q    Type
REMARK                         _______ _______ _______ _____ _____    ______ ____
ROOT
ATOM      1  O   UNL     1       7.904   4.407  16.775  0.00  0.00    +0.000 OA
ATOM      2  S   UNL     1       6.997   4.794  15.695  0.00  0.00    +0.000 S 
ATOM      3  O   UNL     1       7.623   5.405  14.542  0.00  0.00    +0.000 OA
ATOM      4  O   UNL     1       6.120   3.659  15.410  0.00  0.00    +0.000 OA
ATOM      5  H   UNL     1       6.203   5.748  16.212  0.00  0.00    +0.000 HD
ENDROOT
TORSDOF 0
ENDMDL
MODEL 6
REMARK VINA RESULT:      -2.7     12.506     13.012
REMARK  Name = 
REMARK  0 active torsions:
REMARK  status: ('A' for Active; 'I' for Inactive)
REMARK                            x       y       z     vdW  Elec       q    Type
REMARK                         _______ _______ _______ _____ _____    ______ ____
ROOT
ATOM      1  O   UNL     1       6.058   3.626  15.690  0.00  0.00    +0.000 OA
ATOM      2  S   UNL     1       6.966   4.654  16.195  0.00  0.00    +0.000 S 
ATOM      3  O   UNL     1       8.018   4.183  17.070  0.00  0.00    +0.000 OA
ATOM      4  O   UNL     1       7.404   5.470  15.064  0.00  0.00    +0.000 OA
ATOM      5  H   UNL     1       6.209   5.464  16.958  0.00  0.00    +0.000 HD
ENDROOT
TORSDOF 0
ENDMDL
MODEL 7
REMARK VINA RESULT:      -2.7      9.425     10.264
REMARK  Name = 
REMARK  0 active torsions:
REMARK  status: ('A' for Active; 'I' for Inactive)
REMARK                            x       y       z     vdW  Elec       q    Type
REMARK                         _______ _______ _______ _____ _____    ______ ____
ROOT
ATOM      1  O   UNL     1       7.585   5.368  20.306  0.00  0.00    +0.000 OA
ATOM      2  S   UNL     1       7.480   5.677  18.881  0.00  0.00    +0.000 S 
ATOM      3  O   UNL     1       8.078   6.929  18.467  0.00  0.00    +0.000 OA
ATOM      4  O   UNL     1       7.901   4.497  18.128  0.00  0.00    +0.000 OA
ATOM      5  H   UNL     1       6.164   5.817  18.636  0.00  0.00    +0.000 HD
ENDROOT
TORSDOF 0
ENDMDL
MODEL 8
REMARK VINA RESULT:      -2.7     12.178     12.905
REMARK  Name = 
REMARK  0 active torsions:
REMARK  status: ('A' for Active; 'I' for Inactive)
REMARK                            x       y       z     vdW  Elec       q    Type
REMARK                         _______ _______ _______ _____ _____    ______ ____
ROOT
ATOM      1  O   UNL     1       7.652   5.329  14.445  0.00  0.00    +0.000 OA
ATOM      2  S   UNL     1       7.023   5.065  15.738  0.00  0.00    +0.000 S 
ATOM      3  O   UNL     1       7.869   4.433  16.727  0.00  0.00    +0.000 OA
ATOM      4  O   UNL     1       6.346   6.286  16.172  0.00  0.00    +0.000 OA
ATOM      5  H   UNL     1       6.045   4.174  15.490  0.00  0.00    +0.000 HD
ENDROOT
TORSDOF 0
ENDMDL
MODEL 9
REMARK VINA RESULT:      -2.7      9.405     10.276
REMARK  Name = 
REMARK  0 active torsions:
REMARK  status: ('A' for Active; 'I' for Inactive)
REMARK                            x       y       z     vdW  Elec       q    Type
REMARK                         _______ _______ _______ _____ _____    ______ ____
ROOT
ATOM      1  O   UNL     1       7.902   4.492  18.088  0.00  0.00    +0.000 OA
ATOM      2  S   UNL     1       7.470   5.589  18.952  0.00  0.00    +0.000 S 
ATOM      3  O   UNL     1       7.672   5.385  20.371  0.00  0.00    +0.000 OA
ATOM      4  O   UNL     1       8.010   6.835  18.410  0.00  0.00    +0.000 OA
ATOM      5  H   UNL     1       6.136   5.671  18.794  0.00  0.00    +0.000 HD
ENDROOT
TORSDOF 0
ENDMDL
