MODEL 1
REMARK VINA RESULT:      -6.9      0.000      0.000
REMARK  Name = 
REMARK  7 active torsions:
REMARK  status: ('A' for Active; 'I' for Inactive)
REMARK    1  A    between atoms: C_1  and  S_2
REMARK    2  A    between atoms: S_2  and  N_5
REMARK    3  A    between atoms: C_7  and  C_8
REMARK    4  A    between atoms: C_13  and  N_14
REMARK    5  A    between atoms: N_14  and  C_15
REMARK    6  A    between atoms: C_15  and  C_16
REMARK    7  A    between atoms: C_16  and  N_17
REMARK                            x       y       z     vdW  Elec       q    Type
REMARK                         _______ _______ _______ _____ _____    ______ ____
ROOT
ATOM      1  N   UNL     1       3.785   4.187  18.720  0.00  0.00    +0.000 N 
ATOM      2  C   UNL     1       3.497   5.372  19.503  0.00  0.00    +0.000 C 
ATOM      3  C   UNL     1       3.619   6.565  18.511  0.00  0.00    +0.000 C 
ATOM      4  C   UNL     1       4.341   5.941  17.357  0.00  0.00    +0.000 A 
ATOM      5  C   UNL     1       4.901   6.557  16.235  0.00  0.00    +0.000 A 
ATOM      6  C   UNL     1       5.530   5.751  15.270  0.00  0.00    +0.000 A 
ATOM      7  C   UNL     1       5.557   4.339  15.418  0.00  0.00    +0.000 A 
ATOM      8  C   UNL     1       4.956   3.755  16.545  0.00  0.00    +0.000 A 
ATOM      9  C   UNL     1       4.371   4.581  17.505  0.00  0.00    +0.000 A 
ENDROOT
BRANCH   1  11
ATOM     10  C   UNL     1       2.092   2.853  19.281  0.00  0.00    +0.000 C 
ATOM     11  S   UNL     1       3.967   2.575  19.430  0.00  0.00    +0.000 S 
ATOM     12  O   UNL     1       3.407   2.479  20.856  0.00  0.00    +0.000 OA
ATOM     13  O   UNL     1       3.404   1.436  18.562  0.00  0.00    +0.000 OA
ENDBRANCH   1  11
BRANCH   3  14
ATOM     14  C   UNL     1       2.254   7.079  18.024  0.00  0.00    +0.000 C 
ATOM     15 CL   UNL     1       2.301   8.832  17.695  0.00  0.00    +0.000 Cl
ENDBRANCH   3  14
BRANCH   7  16
ATOM     16  N   UNL     1       6.189   3.484  14.467  0.00  0.00    +0.000 N 
ATOM     17  H   UNL     1       6.553   2.572  14.786  0.00  0.00    +0.000 HD
BRANCH  16  18
ATOM     18  C   UNL     1       6.503   3.885  13.113  0.00  0.00    +0.000 C 
BRANCH  18  19
ATOM     19  C   UNL     1       5.516   3.213  12.144  0.00  0.00    +0.000 C 
BRANCH  19  20
ATOM     20  N   UNL     1       6.032   1.936  11.677  0.00  0.00    +0.000 NA
ATOM     21  H   UNL     1       7.075   1.990  11.616  0.00  0.00    +0.000 HD
ATOM     22  H   UNL     1       5.672   1.779  10.708  0.00  0.00    +0.000 HD
ENDBRANCH  19  20
ENDBRANCH  18  19
ENDBRANCH  16  18
ENDBRANCH   7  16
TORSDOF 6
ENDMDL
MODEL 2
REMARK VINA RESULT:      -6.5      3.893      5.805
REMARK  Name = 
REMARK  7 active torsions:
REMARK  status: ('A' for Active; 'I' for Inactive)
REMARK    1  A    between atoms: C_1  and  S_2
REMARK    2  A    between atoms: S_2  and  N_5
REMARK    3  A    between atoms: C_7  and  C_8
REMARK    4  A    between atoms: C_13  and  N_14
REMARK    5  A    between atoms: N_14  and  C_15
REMARK    6  A    between atoms: C_15  and  C_16
REMARK    7  A    between atoms: C_16  and  N_17
REMARK                            x       y       z     vdW  Elec       q    Type
REMARK                         _______ _______ _______ _____ _____    ______ ____
ROOT
ATOM      1  N   UNL     1       3.413   4.450  20.033  0.00  0.00    +0.000 N 
ATOM      2  C   UNL     1       4.284   3.583  19.267  0.00  0.00    +0.000 C 
ATOM      3  C   UNL     1       4.966   4.504  18.214  0.00  0.00    +0.000 C 
ATOM      4  C   UNL     1       4.105   5.728  18.264  0.00  0.00    +0.000 A 
ATOM      5  C   UNL     1       4.104   6.836  17.413  0.00  0.00    +0.000 A 
ATOM      6  C   UNL     1       3.196   7.878  17.669  0.00  0.00    +0.000 A 
ATOM      7  C   UNL     1       2.330   7.819  18.792  0.00  0.00    +0.000 A 
ATOM      8  C   UNL     1       2.382   6.702  19.643  0.00  0.00    +0.000 A 
ATOM      9  C   UNL     1       3.267   5.666  19.344  0.00  0.00    +0.000 A 
ENDROOT
BRANCH   1  11
ATOM     10  C   UNL     1       2.386   2.476  19.929  0.00  0.00    +0.000 C 
ATOM     11  S   UNL     1       2.261   3.850  21.238  0.00  0.00    +0.000 S 
ATOM     12  O   UNL     1       0.845   3.666  20.677  0.00  0.00    +0.000 OA
ATOM     13  O   UNL     1       2.716   2.569  21.961  0.00  0.00    +0.000 OA
ENDBRANCH   1  11
BRANCH   3  14
ATOM     14  C   UNL     1       6.403   4.891  18.601  0.00  0.00    +0.000 C 
ATOM     15 CL   UNL     1       7.558   4.470  17.306  0.00  0.00    +0.000 Cl
ENDBRANCH   3  14
BRANCH   7  16
ATOM     16  N   UNL     1       1.389   8.851  19.086  0.00  0.00    +0.000 N 
ATOM     17  H   UNL     1       0.887   8.822  19.989  0.00  0.00    +0.000 HD
BRANCH  16  18
ATOM     18  C   UNL     1       0.968   9.848  18.128  0.00  0.00    +0.000 C 
BRANCH  18  19
ATOM     19  C   UNL     1      -0.462  10.302  18.461  0.00  0.00    +0.000 C 
BRANCH  19  20
ATOM     20  N   UNL     1      -1.288  10.348  17.264  0.00  0.00    +0.000 NA
ATOM     21  H   UNL     1      -1.075   9.514  16.670  0.00  0.00    +0.000 HD
ATOM     22  H   UNL     1      -1.014  11.196  16.718  0.00  0.00    +0.000 HD
ENDBRANCH  19  20
ENDBRANCH  18  19
ENDBRANCH  16  18
ENDBRANCH   7  16
TORSDOF 6
ENDMDL
MODEL 3
REMARK VINA RESULT:      -6.5      3.227      6.467
REMARK  Name = 
REMARK  7 active torsions:
REMARK  status: ('A' for Active; 'I' for Inactive)
REMARK    1  A    between atoms: C_1  and  S_2
REMARK    2  A    between atoms: S_2  and  N_5
REMARK    3  A    between atoms: C_7  and  C_8
REMARK    4  A    between atoms: C_13  and  N_14
REMARK    5  A    between atoms: N_14  and  C_15
REMARK    6  A    between atoms: C_15  and  C_16
REMARK    7  A    between atoms: C_16  and  N_17
REMARK                            x       y       z     vdW  Elec       q    Type
REMARK                         _______ _______ _______ _____ _____    ______ ____
ROOT
ATOM      1  N   UNL     1       4.037   4.166  18.930  0.00  0.00    +0.000 N 
ATOM      2  C   UNL     1       4.501   3.975  17.571  0.00  0.00    +0.000 C 
ATOM      3  C   UNL     1       4.464   5.386  16.916  0.00  0.00    +0.000 C 
ATOM      4  C   UNL     1       3.614   6.156  17.880  0.00  0.00    +0.000 A 
ATOM      5  C   UNL     1       3.069   7.435  17.742  0.00  0.00    +0.000 A 
ATOM      6  C   UNL     1       2.300   7.955  18.798  0.00  0.00    +0.000 A 
ATOM      7  C   UNL     1       2.120   7.209  19.993  0.00  0.00    +0.000 A 
ATOM      8  C   UNL     1       2.710   5.939  20.105  0.00  0.00    +0.000 A 
ATOM      9  C   UNL     1       3.437   5.433  19.028  0.00  0.00    +0.000 A 
ENDROOT
BRANCH   1  11
ATOM     10  C   UNL     1       3.666   2.062  18.302  0.00  0.00    +0.000 C 
ATOM     11  S   UNL     1       3.711   2.827  20.042  0.00  0.00    +0.000 S 
ATOM     12  O   UNL     1       2.305   2.233  19.873  0.00  0.00    +0.000 OA
ATOM     13  O   UNL     1       4.766   1.706  20.007  0.00  0.00    +0.000 OA
ENDBRANCH   1  11
BRANCH   3  14
ATOM     14  C   UNL     1       5.851   6.046  16.840  0.00  0.00    +0.000 C 
ATOM     15 CL   UNL     1       7.125   4.837  16.523  0.00  0.00    +0.000 Cl
ENDBRANCH   3  14
BRANCH   7  16
ATOM     16  N   UNL     1       1.344   7.695  21.086  0.00  0.00    +0.000 N 
ATOM     17  H   UNL     1       0.892   7.012  21.716  0.00  0.00    +0.000 HD
BRANCH  16  18
ATOM     18  C   UNL     1       1.011   9.090  21.275  0.00  0.00    +0.000 C 
BRANCH  18  19
ATOM     19  C   UNL     1      -0.159   9.203  22.266  0.00  0.00    +0.000 C 
BRANCH  19  20
ATOM     20  N   UNL     1       0.292   9.717  23.550  0.00  0.00    +0.000 NA
ATOM     21  H   UNL     1       0.587   8.916  24.154  0.00  0.00    +0.000 HD
ATOM     22  H   UNL     1      -0.523  10.175  24.017  0.00  0.00    +0.000 HD
ENDBRANCH  19  20
ENDBRANCH  18  19
ENDBRANCH  16  18
ENDBRANCH   7  16
TORSDOF 6
ENDMDL
MODEL 4
REMARK VINA RESULT:      -6.5      0.949      1.113
REMARK  Name = 
REMARK  7 active torsions:
REMARK  status: ('A' for Active; 'I' for Inactive)
REMARK    1  A    between atoms: C_1  and  S_2
REMARK    2  A    between atoms: S_2  and  N_5
REMARK    3  A    between atoms: C_7  and  C_8
REMARK    4  A    between atoms: C_13  and  N_14
REMARK    5  A    between atoms: N_14  and  C_15
REMARK    6  A    between atoms: C_15  and  C_16
REMARK    7  A    between atoms: C_16  and  N_17
REMARK                            x       y       z     vdW  Elec       q    Type
REMARK                         _______ _______ _______ _____ _____    ______ ____
ROOT
ATOM      1  N   UNL     1       2.903   4.063  18.301  0.00  0.00    +0.000 N 
ATOM      2  C   UNL     1       2.719   5.102  19.294  0.00  0.00    +0.000 C 
ATOM      3  C   UNL     1       3.397   6.371  18.699  0.00  0.00    +0.000 C 
ATOM      4  C   UNL     1       4.224   5.794  17.592  0.00  0.00    +0.000 A 
ATOM      5  C   UNL     1       5.200   6.416  16.810  0.00  0.00    +0.000 A 
ATOM      6  C   UNL     1       5.845   5.660  15.815  0.00  0.00    +0.000 A 
ATOM      7  C   UNL     1       5.479   4.308  15.586  0.00  0.00    +0.000 A 
ATOM      8  C   UNL     1       4.470   3.727  16.373  0.00  0.00    +0.000 A 
ATOM      9  C   UNL     1       3.873   4.489  17.378  0.00  0.00    +0.000 A 
ENDROOT
BRANCH   1  11
ATOM     10  C   UNL     1       3.411   2.921  20.145  0.00  0.00    +0.000 C 
ATOM     11  S   UNL     1       2.479   2.367  18.583  0.00  0.00    +0.000 S 
ATOM     12  O   UNL     1       3.705   1.450  18.695  0.00  0.00    +0.000 OA
ATOM     13  O   UNL     1       1.538   2.142  19.780  0.00  0.00    +0.000 OA
ENDBRANCH   1  11
BRANCH   3  14
ATOM     14  C   UNL     1       2.385   7.362  18.099  0.00  0.00    +0.000 C 
ATOM     15 CL   UNL     1       1.736   8.459  19.347  0.00  0.00    +0.000 Cl
ENDBRANCH   3  14
BRANCH   7  16
ATOM     16  N   UNL     1       6.110   3.503  14.592  0.00  0.00    +0.000 N 
ATOM     17  H   UNL     1       6.429   2.555  14.851  0.00  0.00    +0.000 HD
BRANCH  16  18
ATOM     18  C   UNL     1       6.482   3.992  13.283  0.00  0.00    +0.000 C 
BRANCH  18  19
ATOM     19  C   UNL     1       5.647   3.269  12.214  0.00  0.00    +0.000 C 
BRANCH  19  20
ATOM     20  N   UNL     1       6.265   2.008  11.834  0.00  0.00    +0.000 NA
ATOM     21  H   UNL     1       5.530   1.367  11.456  0.00  0.00    +0.000 HD
ATOM     22  H   UNL     1       6.649   1.565  12.699  0.00  0.00    +0.000 HD
ENDBRANCH  19  20
ENDBRANCH  18  19
ENDBRANCH  16  18
ENDBRANCH   7  16
TORSDOF 6
ENDMDL
MODEL 5
REMARK VINA RESULT:      -6.4      3.696      6.772
REMARK  Name = 
REMARK  7 active torsions:
REMARK  status: ('A' for Active; 'I' for Inactive)
REMARK    1  A    between atoms: C_1  and  S_2
REMARK    2  A    between atoms: S_2  and  N_5
REMARK    3  A    between atoms: C_7  and  C_8
REMARK    4  A    between atoms: C_13  and  N_14
REMARK    5  A    between atoms: N_14  and  C_15
REMARK    6  A    between atoms: C_15  and  C_16
REMARK    7  A    between atoms: C_16  and  N_17
REMARK                            x       y       z     vdW  Elec       q    Type
REMARK                         _______ _______ _______ _____ _____    ______ ____
ROOT
ATOM      1  N   UNL     1       2.770   4.614  19.924  0.00  0.00    +0.000 N 
ATOM      2  C   UNL     1       3.265   4.008  18.705  0.00  0.00    +0.000 C 
ATOM      3  C   UNL     1       3.598   5.196  17.756  0.00  0.00    +0.000 C 
ATOM      4  C   UNL     1       2.887   6.335  18.419  0.00  0.00    +0.000 A 
ATOM      5  C   UNL     1       2.663   7.628  17.939  0.00  0.00    +0.000 A 
ATOM      6  C   UNL     1       1.968   8.536  18.757  0.00  0.00    +0.000 A 
ATOM      7  C   UNL     1       1.542   8.155  20.057  0.00  0.00    +0.000 A 
ATOM      8  C   UNL     1       1.814   6.855  20.515  0.00  0.00    +0.000 A 
ATOM      9  C   UNL     1       2.473   5.963  19.669  0.00  0.00    +0.000 A 
ENDROOT
BRANCH   1  11
ATOM     10  C   UNL     1       2.393   2.420  19.871  0.00  0.00    +0.000 C 
ATOM     11  S   UNL     1       2.070   3.681  21.257  0.00  0.00    +0.000 S 
ATOM     12  O   UNL     1       0.706   3.068  20.912  0.00  0.00    +0.000 OA
ATOM     13  O   UNL     1       3.006   2.601  21.830  0.00  0.00    +0.000 OA
ENDBRANCH   1  11
BRANCH   3  14
ATOM     14  C   UNL     1       5.102   5.512  17.701  0.00  0.00    +0.000 C 
ATOM     15 CL   UNL     1       5.538   6.317  16.168  0.00  0.00    +0.000 Cl
ENDBRANCH   3  14
BRANCH   7  16
ATOM     16  N   UNL     1       0.829   9.042  20.917  0.00  0.00    +0.000 N 
ATOM     17  H   UNL     1       1.260   9.947  21.163  0.00  0.00    +0.000 HD
BRANCH  16  18
ATOM     18  C   UNL     1      -0.392   8.682  21.604  0.00  0.00    +0.000 C 
BRANCH  18  19
ATOM     19  C   UNL     1      -0.497   9.489  22.908  0.00  0.00    +0.000 C 
BRANCH  19  20
ATOM     20  N   UNL     1       0.811   9.667  23.519  0.00  0.00    +0.000 NA
ATOM     21  H   UNL     1       0.695  10.145  24.442  0.00  0.00    +0.000 HD
ATOM     22  H   UNL     1       1.368  10.304  22.906  0.00  0.00    +0.000 HD
ENDBRANCH  19  20
ENDBRANCH  18  19
ENDBRANCH  16  18
ENDBRANCH   7  16
TORSDOF 6
ENDMDL
MODEL 6
REMARK VINA RESULT:      -6.3      3.825      6.226
REMARK  Name = 
REMARK  7 active torsions:
REMARK  status: ('A' for Active; 'I' for Inactive)
REMARK    1  A    between atoms: C_1  and  S_2
REMARK    2  A    between atoms: S_2  and  N_5
REMARK    3  A    between atoms: C_7  and  C_8
REMARK    4  A    between atoms: C_13  and  N_14
REMARK    5  A    between atoms: N_14  and  C_15
REMARK    6  A    between atoms: C_15  and  C_16
REMARK    7  A    between atoms: C_16  and  N_17
REMARK                            x       y       z     vdW  Elec       q    Type
REMARK                         _______ _______ _______ _____ _____    ______ ____
ROOT
ATOM      1  N   UNL     1       5.137   5.156  17.559  0.00  0.00    +0.000 N 
ATOM      2  C   UNL     1       5.399   4.091  18.506  0.00  0.00    +0.000 C 
ATOM      3  C   UNL     1       4.193   4.106  19.491  0.00  0.00    +0.000 C 
ATOM      4  C   UNL     1       3.571   5.439  19.205  0.00  0.00    +0.000 A 
ATOM      5  C   UNL     1       2.560   6.103  19.903  0.00  0.00    +0.000 A 
ATOM      6  C   UNL     1       2.133   7.358  19.434  0.00  0.00    +0.000 A 
ATOM      7  C   UNL     1       2.692   7.913  18.253  0.00  0.00    +0.000 A 
ATOM      8  C   UNL     1       3.685   7.200  17.561  0.00  0.00    +0.000 A 
ATOM      9  C   UNL     1       4.116   5.974  18.070  0.00  0.00    +0.000 A 
ENDROOT
BRANCH   1  11
ATOM     10  C   UNL     1       5.772   3.939  15.805  0.00  0.00    +0.000 C 
ATOM     11  S   UNL     1       6.312   5.681  16.341  0.00  0.00    +0.000 S 
ATOM     12  O   UNL     1       7.586   4.825  16.326  0.00  0.00    +0.000 OA
ATOM     13  O   UNL     1       5.736   5.799  14.919  0.00  0.00    +0.000 OA
ENDBRANCH   1  11
BRANCH   3  14
ATOM     14  C   UNL     1       3.164   3.003  19.190  0.00  0.00    +0.000 C 
ATOM     15 CL   UNL     1       2.167   2.639  20.625  0.00  0.00    +0.000 Cl
ENDBRANCH   3  14
BRANCH   7  16
ATOM     16  N   UNL     1       2.293   9.185  17.744  0.00  0.00    +0.000 N 
ATOM     17  H   UNL     1       2.921   9.675  17.087  0.00  0.00    +0.000 HD
BRANCH  16  18
ATOM     18  C   UNL     1       1.136   9.911  18.220  0.00  0.00    +0.000 C 
BRANCH  18  19
ATOM     19  C   UNL     1       1.556  11.339  18.604  0.00  0.00    +0.000 C 
BRANCH  19  20
ATOM     20  N   UNL     1       2.543  11.862  17.672  0.00  0.00    +0.000 NA
ATOM     21  H   UNL     1       3.472  11.429  17.880  0.00  0.00    +0.000 HD
ATOM     22  H   UNL     1       2.633  12.889  17.842  0.00  0.00    +0.000 HD
ENDBRANCH  19  20
ENDBRANCH  18  19
ENDBRANCH  16  18
ENDBRANCH   7  16
TORSDOF 6
ENDMDL
MODEL 7
REMARK VINA RESULT:      -6.3      3.532      6.057
REMARK  Name = 
REMARK  7 active torsions:
REMARK  status: ('A' for Active; 'I' for Inactive)
REMARK    1  A    between atoms: C_1  and  S_2
REMARK    2  A    between atoms: S_2  and  N_5
REMARK    3  A    between atoms: C_7  and  C_8
REMARK    4  A    between atoms: C_13  and  N_14
REMARK    5  A    between atoms: N_14  and  C_15
REMARK    6  A    between atoms: C_15  and  C_16
REMARK    7  A    between atoms: C_16  and  N_17
REMARK                            x       y       z     vdW  Elec       q    Type
REMARK                         _______ _______ _______ _____ _____    ______ ____
ROOT
ATOM      1  N   UNL     1       6.099   5.235  17.624  0.00  0.00    +0.000 N 
ATOM      2  C   UNL     1       6.785   4.500  16.581  0.00  0.00    +0.000 C 
ATOM      3  C   UNL     1       5.665   3.770  15.782  0.00  0.00    +0.000 C 
ATOM      4  C   UNL     1       4.496   3.879  16.712  0.00  0.00    +0.000 A 
ATOM      5  C   UNL     1       3.250   3.253  16.630  0.00  0.00    +0.000 A 
ATOM      6  C   UNL     1       2.299   3.518  17.631  0.00  0.00    +0.000 A 
ATOM      7  C   UNL     1       2.589   4.435  18.676  0.00  0.00    +0.000 A 
ATOM      8  C   UNL     1       3.843   5.068  18.705  0.00  0.00    +0.000 A 
ATOM      9  C   UNL     1       4.781   4.758  17.720  0.00  0.00    +0.000 A 
ENDROOT
BRANCH   1  11
ATOM     10  C   UNL     1       8.161   4.757  18.316  0.00  0.00    +0.000 C 
ATOM     11  S   UNL     1       6.944   6.081  18.931  0.00  0.00    +0.000 S 
ATOM     12  O   UNL     1       7.240   5.181  20.138  0.00  0.00    +0.000 OA
ATOM     13  O   UNL     1       8.225   6.810  18.485  0.00  0.00    +0.000 OA
ENDBRANCH   1  11
BRANCH   3  14
ATOM     14  C   UNL     1       5.318   4.478  14.461  0.00  0.00    +0.000 C 
ATOM     15 CL   UNL     1       6.059   3.645  13.067  0.00  0.00    +0.000 Cl
ENDBRANCH   3  14
BRANCH   7  16
ATOM     16  N   UNL     1       1.656   4.729  19.715  0.00  0.00    +0.000 N 
ATOM     17  H   UNL     1       1.702   5.653  20.174  0.00  0.00    +0.000 HD
BRANCH  16  18
ATOM     18  C   UNL     1       0.754   3.752  20.282  0.00  0.00    +0.000 C 
BRANCH  18  19
ATOM     19  C   UNL     1       1.570   2.644  20.967  0.00  0.00    +0.000 C 
BRANCH  19  20
ATOM     20  N   UNL     1       2.203   3.138  22.181  0.00  0.00    +0.000 NA
ATOM     21  H   UNL     1       2.477   4.138  22.040  0.00  0.00    +0.000 HD
ATOM     22  H   UNL     1       3.082   2.593  22.329  0.00  0.00    +0.000 HD
ENDBRANCH  19  20
ENDBRANCH  18  19
ENDBRANCH  16  18
ENDBRANCH   7  16
TORSDOF 6
ENDMDL
MODEL 8
REMARK VINA RESULT:      -6.2      3.748      6.373
REMARK  Name = 
REMARK  7 active torsions:
REMARK  status: ('A' for Active; 'I' for Inactive)
REMARK    1  A    between atoms: C_1  and  S_2
REMARK    2  A    between atoms: S_2  and  N_5
REMARK    3  A    between atoms: C_7  and  C_8
REMARK    4  A    between atoms: C_13  and  N_14
REMARK    5  A    between atoms: N_14  and  C_15
REMARK    6  A    between atoms: C_15  and  C_16
REMARK    7  A    between atoms: C_16  and  N_17
REMARK                            x       y       z     vdW  Elec       q    Type
REMARK                         _______ _______ _______ _____ _____    ______ ____
ROOT
ATOM      1  N   UNL     1       4.947   5.368  17.685  0.00  0.00    +0.000 N 
ATOM      2  C   UNL     1       5.486   4.113  18.167  0.00  0.00    +0.000 C 
ATOM      3  C   UNL     1       4.437   3.572  19.182  0.00  0.00    +0.000 C 
ATOM      4  C   UNL     1       3.596   4.785  19.438  0.00  0.00    +0.000 A 
ATOM      5  C   UNL     1       2.604   4.976  20.403  0.00  0.00    +0.000 A 
ATOM      6  C   UNL     1       1.939   6.215  20.446  0.00  0.00    +0.000 A 
ATOM      7  C   UNL     1       2.246   7.230  19.502  0.00  0.00    +0.000 A 
ATOM      8  C   UNL     1       3.228   6.987  18.527  0.00  0.00    +0.000 A 
ATOM      9  C   UNL     1       3.897   5.763  18.531  0.00  0.00    +0.000 A 
ENDROOT
BRANCH   1  11
ATOM     10  C   UNL     1       5.736   4.856  15.666  0.00  0.00    +0.000 C 
ATOM     11  S   UNL     1       5.856   6.479  16.648  0.00  0.00    +0.000 S 
ATOM     12  O   UNL     1       7.301   6.024  16.398  0.00  0.00    +0.000 OA
ATOM     13  O   UNL     1       5.164   6.804  15.312  0.00  0.00    +0.000 OA
ENDBRANCH   1  11
BRANCH   3  14
ATOM     14  C   UNL     1       3.547   2.467  18.588  0.00  0.00    +0.000 C 
ATOM     15 CL   UNL     1       2.555   3.089  17.241  0.00  0.00    +0.000 Cl
ENDBRANCH   3  14
BRANCH   7  16
ATOM     16  N   UNL     1       1.601   8.502  19.512  0.00  0.00    +0.000 N 
ATOM     17  H   UNL     1       1.179   8.837  20.393  0.00  0.00    +0.000 HD
BRANCH  16  18
ATOM     18  C   UNL     1       1.355   9.285  18.322  0.00  0.00    +0.000 C 
BRANCH  18  19
ATOM     19  C   UNL     1       0.131  10.187  18.551  0.00  0.00    +0.000 C 
BRANCH  19  20
ATOM     20  N   UNL     1      -0.816  10.069  17.453  0.00  0.00    +0.000 NA
ATOM     21  H   UNL     1      -0.357  10.390  16.570  0.00  0.00    +0.000 HD
ATOM     22  H   UNL     1      -1.612  10.719  17.644  0.00  0.00    +0.000 HD
ENDBRANCH  19  20
ENDBRANCH  18  19
ENDBRANCH  16  18
ENDBRANCH   7  16
TORSDOF 6
ENDMDL
MODEL 9
REMARK VINA RESULT:      -6.2      3.069      6.052
REMARK  Name = 
REMARK  7 active torsions:
REMARK  status: ('A' for Active; 'I' for Inactive)
REMARK    1  A    between atoms: C_1  and  S_2
REMARK    2  A    between atoms: S_2  and  N_5
REMARK    3  A    between atoms: C_7  and  C_8
REMARK    4  A    between atoms: C_13  and  N_14
REMARK    5  A    between atoms: N_14  and  C_15
REMARK    6  A    between atoms: C_15  and  C_16
REMARK    7  A    between atoms: C_16  and  N_17
REMARK                            x       y       z     vdW  Elec       q    Type
REMARK                         _______ _______ _______ _____ _____    ______ ____
ROOT
ATOM      1  N   UNL     1       3.959   3.787  18.396  0.00  0.00    +0.000 N 
ATOM      2  C   UNL     1       4.457   3.759  17.036  0.00  0.00    +0.000 C 
ATOM      3  C   UNL     1       4.574   5.250  16.605  0.00  0.00    +0.000 C 
ATOM      4  C   UNL     1       3.760   5.944  17.654  0.00  0.00    +0.000 A 
ATOM      5  C   UNL     1       3.339   7.275  17.700  0.00  0.00    +0.000 A 
ATOM      6  C   UNL     1       2.579   7.701  18.804  0.00  0.00    +0.000 A 
ATOM      7  C   UNL     1       2.285   6.804  19.864  0.00  0.00    +0.000 A 
ATOM      8  C   UNL     1       2.753   5.481  19.795  0.00  0.00    +0.000 A 
ATOM      9  C   UNL     1       3.472   5.076  18.672  0.00  0.00    +0.000 A 
ENDROOT
BRANCH   1  11
ATOM     10  C   UNL     1       2.470   2.302  17.662  0.00  0.00    +0.000 C 
ATOM     11  S   UNL     1       3.469   2.333  19.279  0.00  0.00    +0.000 S 
ATOM     12  O   UNL     1       1.990   2.348  19.691  0.00  0.00    +0.000 OA
ATOM     13  O   UNL     1       3.804   1.014  18.560  0.00  0.00    +0.000 OA
ENDBRANCH   1  11
BRANCH   3  14
ATOM     14  C   UNL     1       6.017   5.778  16.666  0.00  0.00    +0.000 C 
ATOM     15 CL   UNL     1       7.184   4.532  16.144  0.00  0.00    +0.000 Cl
ENDBRANCH   3  14
BRANCH   7  16
ATOM     16  N   UNL     1       1.513   7.192  21.000  0.00  0.00    +0.000 N 
ATOM     17  H   UNL     1       0.956   6.473  21.489  0.00  0.00    +0.000 HD
BRANCH  16  18
ATOM     18  C   UNL     1       1.330   8.566  21.413  0.00  0.00    +0.000 C 
BRANCH  18  19
ATOM     19  C   UNL     1      -0.159   8.933  21.309  0.00  0.00    +0.000 C 
BRANCH  19  20
ATOM     20  N   UNL     1      -0.387   9.883  20.230  0.00  0.00    +0.000 NA
ATOM     21  H   UNL     1      -0.405  10.851  20.625  0.00  0.00    +0.000 HD
ATOM     22  H   UNL     1      -1.334   9.693  19.831  0.00  0.00    +0.000 HD
ENDBRANCH  19  20
ENDBRANCH  18  19
ENDBRANCH  16  18
ENDBRANCH   7  16
TORSDOF 6
ENDMDL
