MODEL 1
REMARK VINA RESULT:      -7.3      0.000      0.000
REMARK  Name = 
REMARK  5 active torsions:
REMARK  status: ('A' for Active; 'I' for Inactive)
REMARK    1  A    between atoms: C_1  and  C_2
REMARK    2  A    between atoms: C_6  and  C_7
REMARK    3  A    between atoms: C_8  and  C_9
REMARK    4  A    between atoms: N_14  and  C_15
REMARK    5  A    between atoms: C_16  and  C_17
REMARK                            x       y       z     vdW  Elec       q    Type
REMARK                         _______ _______ _______ _____ _____    ______ ____
ROOT
ATOM      1  C   UNL     1       4.063   4.477  18.827  0.00  0.00    +0.000 A 
ATOM      2  C   UNL     1       3.076   5.485  19.127  0.00  0.00    +0.000 A 
ATOM      3  N   UNL     1       2.275   5.075  20.133  0.00  0.00    +0.000 NA
ATOM      4  N   UNL     1       2.725   3.867  20.473  0.00  0.00    +0.000 N 
ATOM      5  C   UNL     1       2.042   3.144  21.522  0.00  0.00    +0.000 C 
ATOM      6  C   UNL     1       3.808   3.452  19.736  0.00  0.00    +0.000 A 
ATOM      7  C   UNL     1       4.457   2.128  19.964  0.00  0.00    +0.000 C 
ENDROOT
BRANCH   1  13
ATOM      8  C   UNL     1       5.537   4.102  14.054  0.00  0.00    +0.000 C 
ATOM      9  C   UNL     1       5.860   4.249  15.506  0.00  0.00    +0.000 A 
ATOM     10  C   UNL     1       7.150   4.514  15.942  0.00  0.00    +0.000 A 
ATOM     11  N   UNL     1       7.474   4.741  17.230  0.00  0.00    +0.000 NA
ATOM     12  C   UNL     1       6.452   4.727  18.125  0.00  0.00    +0.000 A 
ATOM     13  C   UNL     1       5.122   4.453  17.818  0.00  0.00    +0.000 A 
ATOM     14  C   UNL     1       4.846   4.182  16.474  0.00  0.00    +0.000 A 
ENDBRANCH   1  13
BRANCH   2  15
ATOM     15  C   UNL     1       2.852   6.843  18.511  0.00  0.00    +0.000 C 
ATOM     16  F   UNL     1       3.937   7.350  17.869  0.00  0.00    +0.000 F 
ATOM     17  F   UNL     1       1.848   6.817  17.586  0.00  0.00    +0.000 F 
ATOM     18  F   UNL     1       2.501   7.783  19.434  0.00  0.00    +0.000 F 
ENDBRANCH   2  15
TORSDOF 2
ENDMDL
MODEL 2
REMARK VINA RESULT:      -7.1      1.115      1.115
REMARK  Name = 
REMARK  5 active torsions:
REMARK  status: ('A' for Active; 'I' for Inactive)
REMARK    1  A    between atoms: C_1  and  C_2
REMARK    2  A    between atoms: C_6  and  C_7
REMARK    3  A    between atoms: C_8  and  C_9
REMARK    4  A    between atoms: N_14  and  C_15
REMARK    5  A    between atoms: C_16  and  C_17
REMARK                            x       y       z     vdW  Elec       q    Type
REMARK                         _______ _______ _______ _____ _____    ______ ____
ROOT
ATOM      1  C   UNL     1       3.696   4.282  17.893  0.00  0.00    +0.000 A 
ATOM      2  C   UNL     1       2.813   5.321  18.364  0.00  0.00    +0.000 A 
ATOM      3  N   UNL     1       1.747   4.783  18.995  0.00  0.00    +0.000 NA
ATOM      4  N   UNL     1       1.935   3.464  18.943  0.00  0.00    +0.000 N 
ATOM      5  C   UNL     1       0.931   2.599  19.520  0.00  0.00    +0.000 C 
ATOM      6  C   UNL     1       3.095   3.094  18.306  0.00  0.00    +0.000 A 
ATOM      7  C   UNL     1       3.486   1.663  18.144  0.00  0.00    +0.000 C 
ENDROOT
BRANCH   1  13
ATOM      8  C   UNL     1       6.231   4.041  13.579  0.00  0.00    +0.000 C 
ATOM      9  C   UNL     1       6.204   4.230  15.061  0.00  0.00    +0.000 A 
ATOM     10  C   UNL     1       7.329   4.636  15.765  0.00  0.00    +0.000 A 
ATOM     11  N   UNL     1       7.331   4.903  17.086  0.00  0.00    +0.000 NA
ATOM     12  C   UNL     1       6.142   4.785  17.731  0.00  0.00    +0.000 A 
ATOM     13  C   UNL     1       4.951   4.366  17.145  0.00  0.00    +0.000 A 
ATOM     14  C   UNL     1       5.012   4.060  15.782  0.00  0.00    +0.000 A 
ENDBRANCH   1  13
BRANCH   2  15
ATOM     15  C   UNL     1       2.928   6.820  18.256  0.00  0.00    +0.000 C 
ATOM     16  F   UNL     1       4.064   7.250  17.646  0.00  0.00    +0.000 F 
ATOM     17  F   UNL     1       1.894   7.355  17.543  0.00  0.00    +0.000 F 
ATOM     18  F   UNL     1       2.913   7.433  19.475  0.00  0.00    +0.000 F 
ENDBRANCH   2  15
TORSDOF 2
ENDMDL
MODEL 3
REMARK VINA RESULT:      -7.0      2.612      3.295
REMARK  Name = 
REMARK  5 active torsions:
REMARK  status: ('A' for Active; 'I' for Inactive)
REMARK    1  A    between atoms: C_1  and  C_2
REMARK    2  A    between atoms: C_6  and  C_7
REMARK    3  A    between atoms: C_8  and  C_9
REMARK    4  A    between atoms: N_14  and  C_15
REMARK    5  A    between atoms: C_16  and  C_17
REMARK                            x       y       z     vdW  Elec       q    Type
REMARK                         _______ _______ _______ _____ _____    ______ ____
ROOT
ATOM      1  C   UNL     1       4.047   4.604  18.172  0.00  0.00    +0.000 A 
ATOM      2  C   UNL     1       3.375   3.583  18.938  0.00  0.00    +0.000 A 
ATOM      3  N   UNL     1       2.459   4.138  19.760  0.00  0.00    +0.000 NA
ATOM      4  N   UNL     1       2.528   5.450  19.532  0.00  0.00    +0.000 N 
ATOM      5  C   UNL     1       1.673   6.331  20.294  0.00  0.00    +0.000 C 
ATOM      6  C   UNL     1       3.453   5.798  18.577  0.00  0.00    +0.000 A 
ATOM      7  C   UNL     1       3.682   7.218  18.180  0.00  0.00    +0.000 C 
ENDROOT
BRANCH   1  13
ATOM      8  C   UNL     1       5.565   3.950  13.443  0.00  0.00    +0.000 C 
ATOM      9  C   UNL     1       5.875   4.159  14.889  0.00  0.00    +0.000 A 
ATOM     10  C   UNL     1       7.167   4.407  15.329  0.00  0.00    +0.000 A 
ATOM     11  N   UNL     1       7.483   4.687  16.609  0.00  0.00    +0.000 NA
ATOM     12  C   UNL     1       6.451   4.749  17.490  0.00  0.00    +0.000 A 
ATOM     13  C   UNL     1       5.117   4.499  17.179  0.00  0.00    +0.000 A 
ATOM     14  C   UNL     1       4.848   4.170  15.846  0.00  0.00    +0.000 A 
ENDBRANCH   1  13
BRANCH   2  15
ATOM     15  C   UNL     1       3.547   2.085  18.928  0.00  0.00    +0.000 C 
ATOM     16  F   UNL     1       3.871   1.569  17.714  0.00  0.00    +0.000 F 
ATOM     17  F   UNL     1       4.537   1.687  19.780  0.00  0.00    +0.000 F 
ATOM     18  F   UNL     1       2.417   1.427  19.316  0.00  0.00    +0.000 F 
ENDBRANCH   2  15
TORSDOF 2
ENDMDL
MODEL 4
REMARK VINA RESULT:      -6.9      2.466      3.262
REMARK  Name = 
REMARK  5 active torsions:
REMARK  status: ('A' for Active; 'I' for Inactive)
REMARK    1  A    between atoms: C_1  and  C_2
REMARK    2  A    between atoms: C_6  and  C_7
REMARK    3  A    between atoms: C_8  and  C_9
REMARK    4  A    between atoms: N_14  and  C_15
REMARK    5  A    between atoms: C_16  and  C_17
REMARK                            x       y       z     vdW  Elec       q    Type
REMARK                         _______ _______ _______ _____ _____    ______ ____
ROOT
ATOM      1  C   UNL     1       4.140   4.992  18.119  0.00  0.00    +0.000 A 
ATOM      2  C   UNL     1       3.514   4.087  19.051  0.00  0.00    +0.000 A 
ATOM      3  N   UNL     1       2.631   4.748  19.830  0.00  0.00    +0.000 NA
ATOM      4  N   UNL     1       2.678   6.016  19.417  0.00  0.00    +0.000 N 
ATOM      5  C   UNL     1       1.850   6.993  20.088  0.00  0.00    +0.000 C 
ATOM      6  C   UNL     1       3.554   6.229  18.381  0.00  0.00    +0.000 A 
ATOM      7  C   UNL     1       3.750   7.580  17.777  0.00  0.00    +0.000 C 
ENDROOT
BRANCH   1  13
ATOM      8  C   UNL     1       5.437   3.910  13.402  0.00  0.00    +0.000 C 
ATOM      9  C   UNL     1       5.813   4.203  14.818  0.00  0.00    +0.000 A 
ATOM     10  C   UNL     1       7.134   4.404  15.195  0.00  0.00    +0.000 A 
ATOM     11  N   UNL     1       7.513   4.756  16.440  0.00  0.00    +0.000 NA
ATOM     12  C   UNL     1       6.520   4.942  17.348  0.00  0.00    +0.000 A 
ATOM     13  C   UNL     1       5.163   4.751  17.101  0.00  0.00    +0.000 A 
ATOM     14  C   UNL     1       4.826   4.345  15.806  0.00  0.00    +0.000 A 
ENDBRANCH   1  13
BRANCH   2  15
ATOM     15  C   UNL     1       3.700   2.603  19.243  0.00  0.00    +0.000 C 
ATOM     16  F   UNL     1       2.670   1.990  19.883  0.00  0.00    +0.000 F 
ATOM     17  F   UNL     1       3.840   1.954  18.051  0.00  0.00    +0.000 F 
ATOM     18  F   UNL     1       4.813   2.307  19.975  0.00  0.00    +0.000 F 
ENDBRANCH   2  15
TORSDOF 2
ENDMDL
MODEL 5
REMARK VINA RESULT:      -6.9      2.574      5.279
REMARK  Name = 
REMARK  5 active torsions:
REMARK  status: ('A' for Active; 'I' for Inactive)
REMARK    1  A    between atoms: C_1  and  C_2
REMARK    2  A    between atoms: C_6  and  C_7
REMARK    3  A    between atoms: C_8  and  C_9
REMARK    4  A    between atoms: N_14  and  C_15
REMARK    5  A    between atoms: C_16  and  C_17
REMARK                            x       y       z     vdW  Elec       q    Type
REMARK                         _______ _______ _______ _____ _____    ______ ____
ROOT
ATOM      1  C   UNL     1       3.809   5.601  17.768  0.00  0.00    +0.000 A 
ATOM      2  C   UNL     1       3.490   4.228  17.460  0.00  0.00    +0.000 A 
ATOM      3  N   UNL     1       4.489   3.660  16.751  0.00  0.00    +0.000 NA
ATOM      4  N   UNL     1       5.411   4.615  16.614  0.00  0.00    +0.000 N 
ATOM      5  C   UNL     1       6.610   4.316  15.864  0.00  0.00    +0.000 C 
ATOM      6  C   UNL     1       5.071   5.803  17.214  0.00  0.00    +0.000 A 
ATOM      7  C   UNL     1       5.970   6.993  17.173  0.00  0.00    +0.000 C 
ENDROOT
BRANCH   1  13
ATOM      8  C   UNL     1       1.384   9.983  17.868  0.00  0.00    +0.000 C 
ATOM      9  C   UNL     1       1.878   8.756  18.563  0.00  0.00    +0.000 A 
ATOM     10  C   UNL     1       1.508   8.457  19.867  0.00  0.00    +0.000 A 
ATOM     11  N   UNL     1       1.857   7.321  20.503  0.00  0.00    +0.000 NA
ATOM     12  C   UNL     1       2.590   6.426  19.792  0.00  0.00    +0.000 A 
ATOM     13  C   UNL     1       3.040   6.617  18.488  0.00  0.00    +0.000 A 
ATOM     14  C   UNL     1       2.688   7.830  17.888  0.00  0.00    +0.000 A 
ENDBRANCH   1  13
BRANCH   2  15
ATOM     15  C   UNL     1       2.277   3.406  17.814  0.00  0.00    +0.000 C 
ATOM     16  F   UNL     1       2.233   2.188  17.212  0.00  0.00    +0.000 F 
ATOM     17  F   UNL     1       2.206   3.164  19.155  0.00  0.00    +0.000 F 
ATOM     18  F   UNL     1       1.110   4.025  17.472  0.00  0.00    +0.000 F 
ENDBRANCH   2  15
TORSDOF 2
ENDMDL
MODEL 6
REMARK VINA RESULT:      -6.9      2.692      5.449
REMARK  Name = 
REMARK  5 active torsions:
REMARK  status: ('A' for Active; 'I' for Inactive)
REMARK    1  A    between atoms: C_1  and  C_2
REMARK    2  A    between atoms: C_6  and  C_7
REMARK    3  A    between atoms: C_8  and  C_9
REMARK    4  A    between atoms: N_14  and  C_15
REMARK    5  A    between atoms: C_16  and  C_17
REMARK                            x       y       z     vdW  Elec       q    Type
REMARK                         _______ _______ _______ _____ _____    ______ ____
ROOT
ATOM      1  C   UNL     1       3.678   5.964  17.774  0.00  0.00    +0.000 A 
ATOM      2  C   UNL     1       3.342   4.573  17.585  0.00  0.00    +0.000 A 
ATOM      3  N   UNL     1       4.400   3.896  17.091  0.00  0.00    +0.000 NA
ATOM      4  N   UNL     1       5.374   4.800  16.974  0.00  0.00    +0.000 N 
ATOM      5  C   UNL     1       6.648   4.379  16.436  0.00  0.00    +0.000 C 
ATOM      6  C   UNL     1       5.011   6.061  17.381  0.00  0.00    +0.000 A 
ATOM      7  C   UNL     1       5.960   7.212  17.328  0.00  0.00    +0.000 C 
ENDROOT
BRANCH   1  13
ATOM      8  C   UNL     1       1.229   8.300  21.468  0.00  0.00    +0.000 C 
ATOM      9  C   UNL     1       1.651   8.219  20.036  0.00  0.00    +0.000 A 
ATOM     10  C   UNL     1       1.421   9.261  19.149  0.00  0.00    +0.000 A 
ATOM     11  N   UNL     1       1.859   9.270  17.874  0.00  0.00    +0.000 NA
ATOM     12  C   UNL     1       2.587   8.196  17.474  0.00  0.00    +0.000 A 
ATOM     13  C   UNL     1       2.867   7.081  18.259  0.00  0.00    +0.000 A 
ATOM     14  C   UNL     1       2.353   7.101  19.560  0.00  0.00    +0.000 A 
ENDBRANCH   1  13
BRANCH   2  15
ATOM     15  C   UNL     1       2.057   3.836  17.860  0.00  0.00    +0.000 C 
ATOM     16  F   UNL     1       1.737   3.743  19.178  0.00  0.00    +0.000 F 
ATOM     17  F   UNL     1       0.991   4.439  17.258  0.00  0.00    +0.000 F 
ATOM     18  F   UNL     1       2.083   2.552  17.400  0.00  0.00    +0.000 F 
ENDBRANCH   2  15
TORSDOF 2
ENDMDL
MODEL 7
REMARK VINA RESULT:      -6.7      1.502      2.246
REMARK  Name = 
REMARK  5 active torsions:
REMARK  status: ('A' for Active; 'I' for Inactive)
REMARK    1  A    between atoms: C_1  and  C_2
REMARK    2  A    between atoms: C_6  and  C_7
REMARK    3  A    between atoms: C_8  and  C_9
REMARK    4  A    between atoms: N_14  and  C_15
REMARK    5  A    between atoms: C_16  and  C_17
REMARK                            x       y       z     vdW  Elec       q    Type
REMARK                         _______ _______ _______ _____ _____    ______ ____
ROOT
ATOM      1  C   UNL     1       3.565   4.310  18.085  0.00  0.00    +0.000 A 
ATOM      2  C   UNL     1       2.508   5.270  18.294  0.00  0.00    +0.000 A 
ATOM      3  N   UNL     1       1.348   4.639  18.577  0.00  0.00    +0.000 NA
ATOM      4  N   UNL     1       1.641   3.338  18.562  0.00  0.00    +0.000 N 
ATOM      5  C   UNL     1       0.581   2.387  18.807  0.00  0.00    +0.000 C 
ATOM      6  C   UNL     1       2.961   3.071  18.286  0.00  0.00    +0.000 A 
ATOM      7  C   UNL     1       3.487   1.676  18.223  0.00  0.00    +0.000 C 
ENDROOT
BRANCH   1  13
ATOM      8  C   UNL     1       8.215   5.699  19.328  0.00  0.00    +0.000 C 
ATOM      9  C   UNL     1       7.235   5.200  18.316  0.00  0.00    +0.000 A 
ATOM     10  C   UNL     1       7.639   4.765  17.062  0.00  0.00    +0.000 A 
ATOM     11  N   UNL     1       6.805   4.226  16.150  0.00  0.00    +0.000 NA
ATOM     12  C   UNL     1       5.506   4.091  16.520  0.00  0.00    +0.000 A 
ATOM     13  C   UNL     1       4.973   4.507  17.738  0.00  0.00    +0.000 A 
ATOM     14  C   UNL     1       5.871   5.098  18.631  0.00  0.00    +0.000 A 
ENDBRANCH   1  13
BRANCH   2  15
ATOM     15  C   UNL     1       2.537   6.777  18.248  0.00  0.00    +0.000 C 
ATOM     16  F   UNL     1       3.591   7.294  17.564  0.00  0.00    +0.000 F 
ATOM     17  F   UNL     1       1.418   7.284  17.653  0.00  0.00    +0.000 F 
ATOM     18  F   UNL     1       2.598   7.335  19.491  0.00  0.00    +0.000 F 
ENDBRANCH   2  15
TORSDOF 2
ENDMDL
MODEL 8
REMARK VINA RESULT:      -6.6      2.642      3.351
REMARK  Name = 
REMARK  5 active torsions:
REMARK  status: ('A' for Active; 'I' for Inactive)
REMARK    1  A    between atoms: C_1  and  C_2
REMARK    2  A    between atoms: C_6  and  C_7
REMARK    3  A    between atoms: C_8  and  C_9
REMARK    4  A    between atoms: N_14  and  C_15
REMARK    5  A    between atoms: C_16  and  C_17
REMARK                            x       y       z     vdW  Elec       q    Type
REMARK                         _______ _______ _______ _____ _____    ______ ____
ROOT
ATOM      1  C   UNL     1       5.525   4.669  17.442  0.00  0.00    +0.000 A 
ATOM      2  C   UNL     1       6.111   5.056  18.703  0.00  0.00    +0.000 A 
ATOM      3  N   UNL     1       5.215   4.914  19.702  0.00  0.00    +0.000 NA
ATOM      4  N   UNL     1       4.108   4.451  19.120  0.00  0.00    +0.000 N 
ATOM      5  C   UNL     1       2.940   4.219  19.940  0.00  0.00    +0.000 C 
ATOM      6  C   UNL     1       4.230   4.268  17.764  0.00  0.00    +0.000 A 
ATOM      7  C   UNL     1       3.102   3.757  16.931  0.00  0.00    +0.000 C 
ENDROOT
BRANCH   1  13
ATOM      8  C   UNL     1       5.345   3.263  12.637  0.00  0.00    +0.000 C 
ATOM      9  C   UNL     1       6.031   3.977  13.757  0.00  0.00    +0.000 A 
ATOM     10  C   UNL     1       7.138   4.784  13.538  0.00  0.00    +0.000 A 
ATOM     11  N   UNL     1       7.735   5.514  14.501  0.00  0.00    +0.000 NA
ATOM     12  C   UNL     1       7.182   5.456  15.739  0.00  0.00    +0.000 A 
ATOM     13  C   UNL     1       6.088   4.670  16.092  0.00  0.00    +0.000 A 
ATOM     14  C   UNL     1       5.532   3.898  15.067  0.00  0.00    +0.000 A 
ENDBRANCH   1  13
BRANCH   2  15
ATOM     15  C   UNL     1       7.499   5.551  19.021  0.00  0.00    +0.000 C 
ATOM     16  F   UNL     1       8.497   4.764  18.538  0.00  0.00    +0.000 F 
ATOM     17  F   UNL     1       7.721   6.795  18.505  0.00  0.00    +0.000 F 
ATOM     18  F   UNL     1       7.725   5.645  20.363  0.00  0.00    +0.000 F 
ENDBRANCH   2  15
TORSDOF 2
ENDMDL
MODEL 9
REMARK VINA RESULT:      -6.5      2.536      5.012
REMARK  Name = 
REMARK  5 active torsions:
REMARK  status: ('A' for Active; 'I' for Inactive)
REMARK    1  A    between atoms: C_1  and  C_2
REMARK    2  A    between atoms: C_6  and  C_7
REMARK    3  A    between atoms: C_8  and  C_9
REMARK    4  A    between atoms: N_14  and  C_15
REMARK    5  A    between atoms: C_16  and  C_17
REMARK                            x       y       z     vdW  Elec       q    Type
REMARK                         _______ _______ _______ _____ _____    ______ ____
ROOT
ATOM      1  C   UNL     1       3.137   5.628  18.034  0.00  0.00    +0.000 A 
ATOM      2  C   UNL     1       4.343   5.383  17.280  0.00  0.00    +0.000 A 
ATOM      3  N   UNL     1       4.552   4.056  17.145  0.00  0.00    +0.000 NA
ATOM      4  N   UNL     1       3.529   3.472  17.771  0.00  0.00    +0.000 N 
ATOM      5  C   UNL     1       3.483   2.029  17.824  0.00  0.00    +0.000 C 
ATOM      6  C   UNL     1       2.633   4.360  18.316  0.00  0.00    +0.000 A 
ATOM      7  C   UNL     1       1.421   3.905  19.057  0.00  0.00    +0.000 C 
ENDROOT
BRANCH   1  13
ATOM      8  C   UNL     1       1.301   8.613  21.613  0.00  0.00    +0.000 C 
ATOM      9  C   UNL     1       1.597   8.341  20.174  0.00  0.00    +0.000 A 
ATOM     10  C   UNL     1       1.435   9.316  19.199  0.00  0.00    +0.000 A 
ATOM     11  N   UNL     1       1.770   9.145  17.905  0.00  0.00    +0.000 NA
ATOM     12  C   UNL     1       2.321   7.949  17.573  0.00  0.00    +0.000 A 
ATOM     13  C   UNL     1       2.516   6.886  18.451  0.00  0.00    +0.000 A 
ATOM     14  C   UNL     1       2.111   7.099  19.772  0.00  0.00    +0.000 A 
ENDBRANCH   1  13
BRANCH   2  15
ATOM     15  C   UNL     1       5.320   6.351  16.663  0.00  0.00    +0.000 C 
ATOM     16  F   UNL     1       6.498   5.789  16.284  0.00  0.00    +0.000 F 
ATOM     17  F   UNL     1       4.808   6.939  15.543  0.00  0.00    +0.000 F 
ATOM     18  F   UNL     1       5.656   7.365  17.511  0.00  0.00    +0.000 F 
ENDBRANCH   2  15
TORSDOF 2
ENDMDL
