MODEL 1
REMARK VINA RESULT:      -7.5      0.000      0.000
REMARK  Name = 
REMARK  5 active torsions:
REMARK  status: ('A' for Active; 'I' for Inactive)
REMARK    1  A    between atoms: C_1  and  O_2
REMARK    2  A    between atoms: O_2  and  C_3
REMARK    3  A    between atoms: C_6  and  C_7
REMARK    4  A    between atoms: C_14  and  O_15
REMARK    5  A    between atoms: O_15  and  C_16
REMARK                            x       y       z     vdW  Elec       q    Type
REMARK                         _______ _______ _______ _____ _____    ______ ____
ROOT
ATOM      1  C   UNL     1       5.757   5.355  15.634  0.00  0.00    +0.000 A 
ATOM      2  C   UNL     1       5.152   4.093  15.675  0.00  0.00    +0.000 A 
ATOM      3  C   UNL     1       4.238   3.765  16.679  0.00  0.00    +0.000 A 
ATOM      4  C   UNL     1       3.917   4.664  17.703  0.00  0.00    +0.000 A 
ATOM      5  C   UNL     1       4.601   5.892  17.702  0.00  0.00    +0.000 A 
ATOM      6  C   UNL     1       5.515   6.238  16.690  0.00  0.00    +0.000 A 
ENDROOT
BRANCH   4   7
ATOM      7  C   UNL     1       2.901   4.327  18.725  0.00  0.00    +0.000 A 
ATOM      8  C   UNL     1       2.957   4.877  20.020  0.00  0.00    +0.000 A 
ATOM      9  C   UNL     1       2.044   4.511  21.012  0.00  0.00    +0.000 A 
ATOM     10  C   UNL     1       1.038   3.601  20.728  0.00  0.00    +0.000 A 
ATOM     11  C   UNL     1       0.945   3.051  19.452  0.00  0.00    +0.000 A 
ATOM     12  C   UNL     1       1.868   3.410  18.466  0.00  0.00    +0.000 A 
ENDBRANCH   4   7
BRANCH   1  14
ATOM     13  C   UNL     1       7.046   4.663  13.782  0.00  0.00    +0.000 C 
ATOM     14  O   UNL     1       6.593   5.730  14.617  0.00  0.00    +0.000 OA
ENDBRANCH   1  14
BRANCH   6  15
ATOM     15  O   UNL     1       6.172   7.418  16.941  0.00  0.00    +0.000 OA
BRANCH  15  16
ATOM     16  C   UNL     1       7.584   7.421  17.252  0.00  0.00    +0.000 C 
ATOM     17  C   UNL     1       8.055   8.752  17.891  0.00  0.00    +0.000 C 
ATOM     18  N   UNL     1       8.665   8.025  19.008  0.00  0.00    +0.000 NA
ATOM     19  C   UNL     1       8.019   6.776  18.582  0.00  0.00    +0.000 C 
ATOM     20  H   UNL     1       8.359   8.349  19.925  0.00  0.00    +0.000 HD
ENDBRANCH  15  16
ENDBRANCH   6  15
TORSDOF 4
ENDMDL
MODEL 2
REMARK VINA RESULT:      -7.5      0.136      1.108
REMARK  Name = 
REMARK  5 active torsions:
REMARK  status: ('A' for Active; 'I' for Inactive)
REMARK    1  A    between atoms: C_1  and  O_2
REMARK    2  A    between atoms: O_2  and  C_3
REMARK    3  A    between atoms: C_6  and  C_7
REMARK    4  A    between atoms: C_14  and  O_15
REMARK    5  A    between atoms: O_15  and  C_16
REMARK                            x       y       z     vdW  Elec       q    Type
REMARK                         _______ _______ _______ _____ _____    ______ ____
ROOT
ATOM      1  C   UNL     1       5.837   5.276  15.622  0.00  0.00    +0.000 A 
ATOM      2  C   UNL     1       5.238   4.012  15.668  0.00  0.00    +0.000 A 
ATOM      3  C   UNL     1       4.307   3.692  16.659  0.00  0.00    +0.000 A 
ATOM      4  C   UNL     1       3.963   4.604  17.664  0.00  0.00    +0.000 A 
ATOM      5  C   UNL     1       4.640   5.835  17.660  0.00  0.00    +0.000 A 
ATOM      6  C   UNL     1       5.572   6.172  16.660  0.00  0.00    +0.000 A 
ENDROOT
BRANCH   4   7
ATOM      7  C   UNL     1       2.929   4.275  18.672  0.00  0.00    +0.000 A 
ATOM      8  C   UNL     1       1.930   3.319  18.408  0.00  0.00    +0.000 A 
ATOM      9  C   UNL     1       0.909   3.053  19.324  0.00  0.00    +0.000 A 
ATOM     10  C   UNL     1       0.875   3.722  20.538  0.00  0.00    +0.000 A 
ATOM     11  C   UNL     1       1.858   4.663  20.837  0.00  0.00    +0.000 A 
ATOM     12  C   UNL     1       2.869   4.935  19.912  0.00  0.00    +0.000 A 
ENDBRANCH   4   7
BRANCH   1  14
ATOM     13  C   UNL     1       6.942   4.631  13.638  0.00  0.00    +0.000 C 
ATOM     14  O   UNL     1       6.692   5.642  14.615  0.00  0.00    +0.000 OA
ENDBRANCH   1  14
BRANCH   6  15
ATOM     15  O   UNL     1       6.219   7.359  16.908  0.00  0.00    +0.000 OA
BRANCH  15  16
ATOM     16  C   UNL     1       7.621   7.372  17.259  0.00  0.00    +0.000 C 
ATOM     17  C   UNL     1       8.073   8.719  17.877  0.00  0.00    +0.000 C 
ATOM     18  N   UNL     1       8.652   8.020  19.028  0.00  0.00    +0.000 NA
ATOM     19  C   UNL     1       8.019   6.760  18.616  0.00  0.00    +0.000 C 
ATOM     20  H   UNL     1       8.320   8.367  19.929  0.00  0.00    +0.000 HD
ENDBRANCH  15  16
ENDBRANCH   6  15
TORSDOF 4
ENDMDL
MODEL 3
REMARK VINA RESULT:      -7.3      3.275      4.622
REMARK  Name = 
REMARK  5 active torsions:
REMARK  status: ('A' for Active; 'I' for Inactive)
REMARK    1  A    between atoms: C_1  and  O_2
REMARK    2  A    between atoms: O_2  and  C_3
REMARK    3  A    between atoms: C_6  and  C_7
REMARK    4  A    between atoms: C_14  and  O_15
REMARK    5  A    between atoms: O_15  and  C_16
REMARK                            x       y       z     vdW  Elec       q    Type
REMARK                         _______ _______ _______ _____ _____    ______ ____
ROOT
ATOM      1  C   UNL     1       3.762   3.565  19.547  0.00  0.00    +0.000 A 
ATOM      2  C   UNL     1       2.700   3.953  20.372  0.00  0.00    +0.000 A 
ATOM      3  C   UNL     1       2.186   5.251  20.322  0.00  0.00    +0.000 A 
ATOM      4  C   UNL     1       2.733   6.225  19.477  0.00  0.00    +0.000 A 
ATOM      5  C   UNL     1       3.858   5.848  18.723  0.00  0.00    +0.000 A 
ATOM      6  C   UNL     1       4.376   4.540  18.757  0.00  0.00    +0.000 A 
ENDROOT
BRANCH   4   7
ATOM      7  C   UNL     1       2.141   7.579  19.388  0.00  0.00    +0.000 A 
ATOM      8  C   UNL     1       1.505   8.172  20.496  0.00  0.00    +0.000 A 
ATOM      9  C   UNL     1       0.881   9.419  20.402  0.00  0.00    +0.000 A 
ATOM     10  C   UNL     1       0.897  10.114  19.203  0.00  0.00    +0.000 A 
ATOM     11  C   UNL     1       1.532   9.563  18.093  0.00  0.00    +0.000 A 
ATOM     12  C   UNL     1       2.143   8.309  18.188  0.00  0.00    +0.000 A 
ENDBRANCH   4   7
BRANCH   1  14
ATOM     13  C   UNL     1       3.629   1.438  18.531  0.00  0.00    +0.000 C 
ATOM     14  O   UNL     1       4.231   2.278  19.518  0.00  0.00    +0.000 OA
ENDBRANCH   1  14
BRANCH   6  15
ATOM     15  O   UNL     1       5.551   4.410  18.057  0.00  0.00    +0.000 OA
BRANCH  15  16
ATOM     16  C   UNL     1       5.724   5.072  16.783  0.00  0.00    +0.000 C 
ATOM     17  C   UNL     1       6.981   5.978  16.744  0.00  0.00    +0.000 C 
ATOM     18  N   UNL     1       7.442   5.321  15.517  0.00  0.00    +0.000 NA
ATOM     19  C   UNL     1       6.417   4.278  15.659  0.00  0.00    +0.000 C 
ATOM     20  H   UNL     1       8.397   4.965  15.576  0.00  0.00    +0.000 HD
ENDBRANCH  15  16
ENDBRANCH   6  15
TORSDOF 4
ENDMDL
MODEL 4
REMARK VINA RESULT:      -7.2      3.138      6.673
REMARK  Name = 
REMARK  5 active torsions:
REMARK  status: ('A' for Active; 'I' for Inactive)
REMARK    1  A    between atoms: C_1  and  O_2
REMARK    2  A    between atoms: O_2  and  C_3
REMARK    3  A    between atoms: C_6  and  C_7
REMARK    4  A    between atoms: C_14  and  O_15
REMARK    5  A    between atoms: O_15  and  C_16
REMARK                            x       y       z     vdW  Elec       q    Type
REMARK                         _______ _______ _______ _____ _____    ______ ____
ROOT
ATOM      1  C   UNL     1       4.288   5.510  18.227  0.00  0.00    +0.000 A 
ATOM      2  C   UNL     1       4.688   6.518  17.343  0.00  0.00    +0.000 A 
ATOM      3  C   UNL     1       5.242   6.206  16.098  0.00  0.00    +0.000 A 
ATOM      4  C   UNL     1       5.455   4.881  15.701  0.00  0.00    +0.000 A 
ATOM      5  C   UNL     1       5.135   3.882  16.636  0.00  0.00    +0.000 A 
ATOM      6  C   UNL     1       4.566   4.183  17.887  0.00  0.00    +0.000 A 
ENDROOT
BRANCH   4   7
ATOM      7  C   UNL     1       5.985   4.563  14.356  0.00  0.00    +0.000 A 
ATOM      8  C   UNL     1       5.341   3.632  13.518  0.00  0.00    +0.000 A 
ATOM      9  C   UNL     1       5.872   3.273  12.277  0.00  0.00    +0.000 A 
ATOM     10  C   UNL     1       7.050   3.853  11.831  0.00  0.00    +0.000 A 
ATOM     11  C   UNL     1       7.703   4.790  12.629  0.00  0.00    +0.000 A 
ATOM     12  C   UNL     1       7.175   5.136  13.876  0.00  0.00    +0.000 A 
ENDBRANCH   4   7
BRANCH   1  14
ATOM     13  C   UNL     1       2.526   6.639  19.320  0.00  0.00    +0.000 C 
ATOM     14  O   UNL     1       3.669   5.787  19.417  0.00  0.00    +0.000 OA
ENDBRANCH   1  14
BRANCH   6  15
ATOM     15  O   UNL     1       4.452   3.085  18.704  0.00  0.00    +0.000 OA
BRANCH  15  16
ATOM     16  C   UNL     1       3.244   2.291  18.705  0.00  0.00    +0.000 C 
ATOM     17  C   UNL     1       2.381   2.513  19.973  0.00  0.00    +0.000 C 
ATOM     18  N   UNL     1       1.201   2.787  19.147  0.00  0.00    +0.000 NA
ATOM     19  C   UNL     1       2.030   2.846  17.935  0.00  0.00    +0.000 C 
ATOM     20  H   UNL     1       0.741   3.670  19.369  0.00  0.00    +0.000 HD
ENDBRANCH  15  16
ENDBRANCH   6  15
TORSDOF 4
ENDMDL
MODEL 5
REMARK VINA RESULT:      -7.2      3.602      4.934
REMARK  Name = 
REMARK  5 active torsions:
REMARK  status: ('A' for Active; 'I' for Inactive)
REMARK    1  A    between atoms: C_1  and  O_2
REMARK    2  A    between atoms: O_2  and  C_3
REMARK    3  A    between atoms: C_6  and  C_7
REMARK    4  A    between atoms: C_14  and  O_15
REMARK    5  A    between atoms: O_15  and  C_16
REMARK                            x       y       z     vdW  Elec       q    Type
REMARK                         _______ _______ _______ _____ _____    ______ ____
ROOT
ATOM      1  C   UNL     1       4.568   4.819  16.947  0.00  0.00    +0.000 A 
ATOM      2  C   UNL     1       4.892   6.166  16.751  0.00  0.00    +0.000 A 
ATOM      3  C   UNL     1       4.109   7.183  17.304  0.00  0.00    +0.000 A 
ATOM      4  C   UNL     1       2.953   6.901  18.041  0.00  0.00    +0.000 A 
ATOM      5  C   UNL     1       2.588   5.548  18.151  0.00  0.00    +0.000 A 
ATOM      6  C   UNL     1       3.375   4.515  17.608  0.00  0.00    +0.000 A 
ENDROOT
BRANCH   4   7
ATOM      7  C   UNL     1       2.167   7.985  18.673  0.00  0.00    +0.000 A 
ATOM      8  C   UNL     1       1.828   7.940  20.039  0.00  0.00    +0.000 A 
ATOM      9  C   UNL     1       1.028   8.921  20.628  0.00  0.00    +0.000 A 
ATOM     10  C   UNL     1       0.564   9.986  19.871  0.00  0.00    +0.000 A 
ATOM     11  C   UNL     1       0.895  10.069  18.520  0.00  0.00    +0.000 A 
ATOM     12  C   UNL     1       1.685   9.077  17.932  0.00  0.00    +0.000 A 
ENDBRANCH   4   7
BRANCH   1  14
ATOM     13  C   UNL     1       5.871   3.987  15.163  0.00  0.00    +0.000 C 
ATOM     14  O   UNL     1       5.362   3.803  16.485  0.00  0.00    +0.000 OA
ENDBRANCH   1  14
BRANCH   6  15
ATOM     15  O   UNL     1       2.781   3.280  17.706  0.00  0.00    +0.000 OA
BRANCH  15  16
ATOM     16  C   UNL     1       3.023   2.438  18.856  0.00  0.00    +0.000 C 
ATOM     17  C   UNL     1       3.916   1.214  18.526  0.00  0.00    +0.000 C 
ATOM     18  N   UNL     1       4.818   1.549  19.631  0.00  0.00    +0.000 NA
ATOM     19  C   UNL     1       4.160   2.850  19.811  0.00  0.00    +0.000 C 
ATOM     20  H   UNL     1       5.797   1.622  19.353  0.00  0.00    +0.000 HD
ENDBRANCH  15  16
ENDBRANCH   6  15
TORSDOF 4
ENDMDL
MODEL 6
REMARK VINA RESULT:      -7.2      3.270      4.695
REMARK  Name = 
REMARK  5 active torsions:
REMARK  status: ('A' for Active; 'I' for Inactive)
REMARK    1  A    between atoms: C_1  and  O_2
REMARK    2  A    between atoms: O_2  and  C_3
REMARK    3  A    between atoms: C_6  and  C_7
REMARK    4  A    between atoms: C_14  and  O_15
REMARK    5  A    between atoms: O_15  and  C_16
REMARK                            x       y       z     vdW  Elec       q    Type
REMARK                         _______ _______ _______ _____ _____    ______ ____
ROOT
ATOM      1  C   UNL     1       3.746   3.571  19.564  0.00  0.00    +0.000 A 
ATOM      2  C   UNL     1       2.689   3.981  20.384  0.00  0.00    +0.000 A 
ATOM      3  C   UNL     1       2.170   5.275  20.297  0.00  0.00    +0.000 A 
ATOM      4  C   UNL     1       2.706   6.223  19.417  0.00  0.00    +0.000 A 
ATOM      5  C   UNL     1       3.826   5.827  18.667  0.00  0.00    +0.000 A 
ATOM      6  C   UNL     1       4.350   4.523  18.738  0.00  0.00    +0.000 A 
ENDROOT
BRANCH   4   7
ATOM      7  C   UNL     1       2.107   7.571  19.289  0.00  0.00    +0.000 A 
ATOM      8  C   UNL     1       2.177   8.290  18.080  0.00  0.00    +0.000 A 
ATOM      9  C   UNL     1       1.678   9.590  17.971  0.00  0.00    +0.000 A 
ATOM     10  C   UNL     1       1.075  10.197  19.062  0.00  0.00    +0.000 A 
ATOM     11  C   UNL     1       0.975   9.507  20.268  0.00  0.00    +0.000 A 
ATOM     12  C   UNL     1       1.488   8.211  20.377  0.00  0.00    +0.000 A 
ENDBRANCH   4   7
BRANCH   1  14
ATOM     13  C   UNL     1       3.654   1.427  18.581  0.00  0.00    +0.000 C 
ATOM     14  O   UNL     1       4.220   2.286  19.573  0.00  0.00    +0.000 OA
ENDBRANCH   1  14
BRANCH   6  15
ATOM     15  O   UNL     1       5.520   4.375  18.033  0.00  0.00    +0.000 OA
BRANCH  15  16
ATOM     16  C   UNL     1       5.760   5.149  16.836  0.00  0.00    +0.000 C 
ATOM     17  C   UNL     1       7.091   5.942  16.890  0.00  0.00    +0.000 C 
ATOM     18  N   UNL     1       7.502   5.379  15.601  0.00  0.00    +0.000 NA
ATOM     19  C   UNL     1       6.389   4.420  15.634  0.00  0.00    +0.000 C 
ATOM     20  H   UNL     1       8.421   4.938  15.620  0.00  0.00    +0.000 HD
ENDBRANCH  15  16
ENDBRANCH   6  15
TORSDOF 4
ENDMDL
MODEL 7
REMARK VINA RESULT:      -7.2      3.602      4.992
REMARK  Name = 
REMARK  5 active torsions:
REMARK  status: ('A' for Active; 'I' for Inactive)
REMARK    1  A    between atoms: C_1  and  O_2
REMARK    2  A    between atoms: O_2  and  C_3
REMARK    3  A    between atoms: C_6  and  C_7
REMARK    4  A    between atoms: C_14  and  O_15
REMARK    5  A    between atoms: O_15  and  C_16
REMARK                            x       y       z     vdW  Elec       q    Type
REMARK                         _______ _______ _______ _____ _____    ______ ____
ROOT
ATOM      1  C   UNL     1       4.504   4.746  16.913  0.00  0.00    +0.000 A 
ATOM      2  C   UNL     1       4.837   6.089  16.703  0.00  0.00    +0.000 A 
ATOM      3  C   UNL     1       4.070   7.116  17.259  0.00  0.00    +0.000 A 
ATOM      4  C   UNL     1       2.921   6.849  18.013  0.00  0.00    +0.000 A 
ATOM      5  C   UNL     1       2.547   5.500  18.138  0.00  0.00    +0.000 A 
ATOM      6  C   UNL     1       3.318   4.457  17.593  0.00  0.00    +0.000 A 
ENDROOT
BRANCH   4   7
ATOM      7  C   UNL     1       2.153   7.944  18.648  0.00  0.00    +0.000 A 
ATOM      8  C   UNL     1       1.770   9.086  17.919  0.00  0.00    +0.000 A 
ATOM      9  C   UNL     1       1.108  10.155  18.526  0.00  0.00    +0.000 A 
ATOM     10  C   UNL     1       0.790  10.099  19.875  0.00  0.00    +0.000 A 
ATOM     11  C   UNL     1       1.140   8.976  20.621  0.00  0.00    +0.000 A 
ATOM     12  C   UNL     1       1.815   7.915  20.012  0.00  0.00    +0.000 A 
ENDBRANCH   4   7
BRANCH   1  14
ATOM     13  C   UNL     1       6.097   4.043  15.319  0.00  0.00    +0.000 C 
ATOM     14  O   UNL     1       5.283   3.720  16.448  0.00  0.00    +0.000 OA
ENDBRANCH   1  14
BRANCH   6  15
ATOM     15  O   UNL     1       2.715   3.228  17.708  0.00  0.00    +0.000 OA
BRANCH  15  16
ATOM     16  C   UNL     1       2.987   2.379  18.846  0.00  0.00    +0.000 C 
ATOM     17  C   UNL     1       3.941   1.206  18.507  0.00  0.00    +0.000 C 
ATOM     18  N   UNL     1       4.816   1.566  19.626  0.00  0.00    +0.000 NA
ATOM     19  C   UNL     1       4.094   2.831  19.819  0.00  0.00    +0.000 C 
ATOM     20  H   UNL     1       5.793   1.692  19.359  0.00  0.00    +0.000 HD
ENDBRANCH  15  16
ENDBRANCH   6  15
TORSDOF 4
ENDMDL
MODEL 8
REMARK VINA RESULT:      -7.2      3.183      6.448
REMARK  Name = 
REMARK  5 active torsions:
REMARK  status: ('A' for Active; 'I' for Inactive)
REMARK    1  A    between atoms: C_1  and  O_2
REMARK    2  A    between atoms: O_2  and  C_3
REMARK    3  A    between atoms: C_6  and  C_7
REMARK    4  A    between atoms: C_14  and  O_15
REMARK    5  A    between atoms: O_15  and  C_16
REMARK                            x       y       z     vdW  Elec       q    Type
REMARK                         _______ _______ _______ _____ _____    ______ ____
ROOT
ATOM      1  C   UNL     1       4.292   5.756  18.335  0.00  0.00    +0.000 A 
ATOM      2  C   UNL     1       4.434   6.688  17.302  0.00  0.00    +0.000 A 
ATOM      3  C   UNL     1       5.018   6.330  16.084  0.00  0.00    +0.000 A 
ATOM      4  C   UNL     1       5.516   5.041  15.860  0.00  0.00    +0.000 A 
ATOM      5  C   UNL     1       5.450   4.142  16.938  0.00  0.00    +0.000 A 
ATOM      6  C   UNL     1       4.854   4.488  18.165  0.00  0.00    +0.000 A 
ENDROOT
BRANCH   4   7
ATOM      7  C   UNL     1       6.075   4.656  14.544  0.00  0.00    +0.000 A 
ATOM      8  C   UNL     1       7.257   5.242  14.053  0.00  0.00    +0.000 A 
ATOM      9  C   UNL     1       7.754   4.938  12.784  0.00  0.00    +0.000 A 
ATOM     10  C   UNL     1       7.092   4.021  11.981  0.00  0.00    +0.000 A 
ATOM     11  C   UNL     1       5.929   3.411  12.443  0.00  0.00    +0.000 A 
ATOM     12  C   UNL     1       5.428   3.729  13.709  0.00  0.00    +0.000 A 
ENDBRANCH   4   7
BRANCH   1  14
ATOM     13  C   UNL     1       2.530   6.934  19.375  0.00  0.00    +0.000 C 
ATOM     14  O   UNL     1       3.652   6.059  19.508  0.00  0.00    +0.000 OA
ENDBRANCH   1  14
BRANCH   6  15
ATOM     15  O   UNL     1       5.009   3.522  19.129  0.00  0.00    +0.000 OA
BRANCH  15  16
ATOM     16  C   UNL     1       3.966   2.551  19.371  0.00  0.00    +0.000 C 
ATOM     17  C   UNL     1       2.581   3.015  18.851  0.00  0.00    +0.000 C 
ATOM     18  N   UNL     1       2.418   1.763  18.107  0.00  0.00    +0.000 NA
ATOM     19  C   UNL     1       3.819   1.400  18.357  0.00  0.00    +0.000 C 
ATOM     20  H   UNL     1       2.201   1.898  17.119  0.00  0.00    +0.000 HD
ENDBRANCH  15  16
ENDBRANCH   6  15
TORSDOF 4
ENDMDL
MODEL 9
REMARK VINA RESULT:      -7.2      3.103      6.690
REMARK  Name = 
REMARK  5 active torsions:
REMARK  status: ('A' for Active; 'I' for Inactive)
REMARK    1  A    between atoms: C_1  and  O_2
REMARK    2  A    between atoms: O_2  and  C_3
REMARK    3  A    between atoms: C_6  and  C_7
REMARK    4  A    between atoms: C_14  and  O_15
REMARK    5  A    between atoms: O_15  and  C_16
REMARK                            x       y       z     vdW  Elec       q    Type
REMARK                         _______ _______ _______ _____ _____    ______ ____
ROOT
ATOM      1  C   UNL     1       3.994   6.051  17.983  0.00  0.00    +0.000 A 
ATOM      2  C   UNL     1       4.852   6.865  17.234  0.00  0.00    +0.000 A 
ATOM      3  C   UNL     1       5.465   6.388  16.073  0.00  0.00    +0.000 A 
ATOM      4  C   UNL     1       5.279   5.073  15.632  0.00  0.00    +0.000 A 
ATOM      5  C   UNL     1       4.490   4.240  16.443  0.00  0.00    +0.000 A 
ATOM      6  C   UNL     1       3.858   4.712  17.608  0.00  0.00    +0.000 A 
ENDROOT
BRANCH   4   7
ATOM      7  C   UNL     1       5.885   4.599  14.367  0.00  0.00    +0.000 A 
ATOM      8  C   UNL     1       7.139   5.071  13.936  0.00  0.00    +0.000 A 
ATOM      9  C   UNL     1       7.687   4.684  12.710  0.00  0.00    +0.000 A 
ATOM     10  C   UNL     1       7.003   3.796  11.894  0.00  0.00    +0.000 A 
ATOM     11  C   UNL     1       5.767   3.297  12.299  0.00  0.00    +0.000 A 
ATOM     12  C   UNL     1       5.217   3.698  13.520  0.00  0.00    +0.000 A 
ENDBRANCH   4   7
BRANCH   1  14
ATOM     13  C   UNL     1       2.369   7.552  18.808  0.00  0.00    +0.000 C 
ATOM     14  O   UNL     1       3.317   6.518  19.079  0.00  0.00    +0.000 OA
ENDBRANCH   1  14
BRANCH   6  15
ATOM     15  O   UNL     1       3.245   3.716  18.328  0.00  0.00    +0.000 OA
BRANCH  15  16
ATOM     16  C   UNL     1       1.806   3.685  18.465  0.00  0.00    +0.000 C 
ATOM     17  C   UNL     1       1.262   2.267  18.772  0.00  0.00    +0.000 C 
ATOM     18  N   UNL     1       0.522   2.780  19.929  0.00  0.00    +0.000 NA
ATOM     19  C   UNL     1       1.215   4.072  19.834  0.00  0.00    +0.000 C 
ATOM     20  H   UNL     1       0.715   2.276  20.795  0.00  0.00    +0.000 HD
ENDBRANCH  15  16
ENDBRANCH   6  15
TORSDOF 4
ENDMDL
