MODEL 1
REMARK VINA RESULT:      -7.0      0.000      0.000
REMARK  Name = 
REMARK  5 active torsions:
REMARK  status: ('A' for Active; 'I' for Inactive)
REMARK    1  A    between atoms: C_1  and  C_2
REMARK    2  A    between atoms: C_4  and  C_5
REMARK    3  A    between atoms: C_4  and  C_6
REMARK    4  A    between atoms: N_10  and  C_11
REMARK    5  A    between atoms: C_16  and  C_17
REMARK                            x       y       z     vdW  Elec       q    Type
REMARK                         _______ _______ _______ _____ _____    ______ ____
ROOT
ATOM      1  C   UNL     1       4.053   1.531  17.873  0.00  0.00    +0.000 C 
ATOM      2  C   UNL     1       3.514   2.795  18.518  0.00  0.00    +0.000 C 
ATOM      3  C   UNL     1       2.607   2.615  19.491  0.00  0.00    +0.000 C 
ATOM      4  C   UNL     1       2.037   3.700  20.339  0.00  0.00    +0.000 C 
ATOM      5  C   UNL     1       2.395   3.424  21.801  0.00  0.00    +0.000 C 
ATOM      6  C   UNL     1       0.514   3.750  20.167  0.00  0.00    +0.000 C 
ATOM      7  N   UNL     1       2.607   4.967  19.926  0.00  0.00    +0.000 N 
ATOM      8  C   UNL     1       3.281   5.197  18.754  0.00  0.00    +0.000 C 
ATOM      9  S   UNL     1       3.135   6.765  18.154  0.00  0.00    +0.000 S 
ATOM     10  N   UNL     1       3.956   4.094  18.171  0.00  0.00    +0.000 N 
ATOM     11  H   UNL     1       2.182   5.799  20.316  0.00  0.00    +0.000 HD
ENDROOT
BRANCH  10  12
ATOM     12  C   UNL     1       5.025   4.344  17.198  0.00  0.00    +0.000 A 
ATOM     13  C   UNL     1       4.825   4.009  15.842  0.00  0.00    +0.000 A 
ATOM     14  C   UNL     1       5.818   4.195  14.873  0.00  0.00    +0.000 A 
ATOM     15  C   UNL     1       7.010   4.813  15.207  0.00  0.00    +0.000 A 
ATOM     16  C   UNL     1       7.232   5.191  16.530  0.00  0.00    +0.000 A 
ATOM     17  C   UNL     1       6.275   4.914  17.529  0.00  0.00    +0.000 A 
BRANCH  17  18
ATOM     18  C   UNL     1       6.714   5.141  18.881  0.00  0.00    +0.000 C 
ATOM     19  N   UNL     1       7.134   5.353  19.941  0.00  0.00    +0.000 NA
ENDBRANCH  17  18
ENDBRANCH  10  12
TORSDOF 2
ENDMDL
MODEL 2
REMARK VINA RESULT:      -6.3      1.530      2.289
REMARK  Name = 
REMARK  5 active torsions:
REMARK  status: ('A' for Active; 'I' for Inactive)
REMARK    1  A    between atoms: C_1  and  C_2
REMARK    2  A    between atoms: C_4  and  C_5
REMARK    3  A    between atoms: C_4  and  C_6
REMARK    4  A    between atoms: N_10  and  C_11
REMARK    5  A    between atoms: C_16  and  C_17
REMARK                            x       y       z     vdW  Elec       q    Type
REMARK                         _______ _______ _______ _____ _____    ______ ____
ROOT
ATOM      1  C   UNL     1       3.239   6.610  18.443  0.00  0.00    +0.000 C 
ATOM      2  C   UNL     1       3.079   5.163  18.873  0.00  0.00    +0.000 C 
ATOM      3  C   UNL     1       2.076   4.912  19.727  0.00  0.00    +0.000 C 
ATOM      4  C   UNL     1       1.662   3.555  20.186  0.00  0.00    +0.000 C 
ATOM      5  C   UNL     1       0.214   3.310  19.755  0.00  0.00    +0.000 C 
ATOM      6  C   UNL     1       1.785   3.460  21.710  0.00  0.00    +0.000 C 
ATOM      7  N   UNL     1       2.528   2.569  19.572  0.00  0.00    +0.000 N 
ATOM      8  C   UNL     1       3.727   2.827  18.959  0.00  0.00    +0.000 C 
ATOM      9  S   UNL     1       4.852   1.576  19.054  0.00  0.00    +0.000 S 
ATOM     10  N   UNL     1       3.892   4.113  18.382  0.00  0.00    +0.000 N 
ATOM     11  H   UNL     1       2.454   1.623  19.927  0.00  0.00    +0.000 HD
ENDROOT
BRANCH  10  12
ATOM     12  C   UNL     1       4.927   4.310  17.360  0.00  0.00    +0.000 A 
ATOM     13  C   UNL     1       4.677   3.913  16.029  0.00  0.00    +0.000 A 
ATOM     14  C   UNL     1       5.635   4.046  15.018  0.00  0.00    +0.000 A 
ATOM     15  C   UNL     1       6.842   4.670  15.280  0.00  0.00    +0.000 A 
ATOM     16  C   UNL     1       7.114   5.107  16.575  0.00  0.00    +0.000 A 
ATOM     17  C   UNL     1       6.192   4.884  17.620  0.00  0.00    +0.000 A 
BRANCH  17  18
ATOM     18  C   UNL     1       6.681   5.171  18.943  0.00  0.00    +0.000 C 
ATOM     19  N   UNL     1       7.077   5.325  20.022  0.00  0.00    +0.000 NA
ENDBRANCH  17  18
ENDBRANCH  10  12
TORSDOF 2
ENDMDL
MODEL 3
REMARK VINA RESULT:      -5.9      1.799      5.289
REMARK  Name = 
REMARK  5 active torsions:
REMARK  status: ('A' for Active; 'I' for Inactive)
REMARK    1  A    between atoms: C_1  and  C_2
REMARK    2  A    between atoms: C_4  and  C_5
REMARK    3  A    between atoms: C_4  and  C_6
REMARK    4  A    between atoms: N_10  and  C_11
REMARK    5  A    between atoms: C_16  and  C_17
REMARK                            x       y       z     vdW  Elec       q    Type
REMARK                         _______ _______ _______ _____ _____    ______ ____
ROOT
ATOM      1  C   UNL     1       2.805   3.012  16.684  0.00  0.00    +0.000 C 
ATOM      2  C   UNL     1       4.004   3.916  16.904  0.00  0.00    +0.000 C 
ATOM      3  C   UNL     1       4.666   4.291  15.799  0.00  0.00    +0.000 C 
ATOM      4  C   UNL     1       5.794   5.266  15.767  0.00  0.00    +0.000 C 
ATOM      5  C   UNL     1       5.392   6.457  14.892  0.00  0.00    +0.000 C 
ATOM      6  C   UNL     1       7.049   4.593  15.201  0.00  0.00    +0.000 C 
ATOM      7  N   UNL     1       6.059   5.719  17.117  0.00  0.00    +0.000 N 
ATOM      8  C   UNL     1       5.609   5.121  18.266  0.00  0.00    +0.000 C 
ATOM      9  S   UNL     1       6.625   5.298  19.599  0.00  0.00    +0.000 S 
ATOM     10  N   UNL     1       4.396   4.390  18.179  0.00  0.00    +0.000 N 
ATOM     11  H   UNL     1       6.906   6.261  17.251  0.00  0.00    +0.000 HD
ENDROOT
BRANCH  10  12
ATOM     12  C   UNL     1       3.643   4.107  19.406  0.00  0.00    +0.000 A 
ATOM     13  C   UNL     1       3.713   2.822  19.985  0.00  0.00    +0.000 A 
ATOM     14  C   UNL     1       2.995   2.482  21.138  0.00  0.00    +0.000 A 
ATOM     15  C   UNL     1       2.257   3.443  21.806  0.00  0.00    +0.000 A 
ATOM     16  C   UNL     1       2.190   4.734  21.285  0.00  0.00    +0.000 A 
ATOM     17  C   UNL     1       2.831   5.054  20.069  0.00  0.00    +0.000 A 
BRANCH  17  18
ATOM     18  C   UNL     1       2.500   6.344  19.521  0.00  0.00    +0.000 C 
ATOM     19  N   UNL     1       2.289   7.371  19.025  0.00  0.00    +0.000 NA
ENDBRANCH  17  18
ENDBRANCH  10  12
TORSDOF 2
ENDMDL
MODEL 4
REMARK VINA RESULT:      -5.4      9.881     12.056
REMARK  Name = 
REMARK  5 active torsions:
REMARK  status: ('A' for Active; 'I' for Inactive)
REMARK    1  A    between atoms: C_1  and  C_2
REMARK    2  A    between atoms: C_4  and  C_5
REMARK    3  A    between atoms: C_4  and  C_6
REMARK    4  A    between atoms: N_10  and  C_11
REMARK    5  A    between atoms: C_16  and  C_17
REMARK                            x       y       z     vdW  Elec       q    Type
REMARK                         _______ _______ _______ _____ _____    ______ ____
ROOT
ATOM      1  C   UNL     1       7.223  14.423  17.672  0.00  0.00    +0.000 C 
ATOM      2  C   UNL     1       8.511  15.065  18.155  0.00  0.00    +0.000 C 
ATOM      3  C   UNL     1       8.582  16.399  18.034  0.00  0.00    +0.000 C 
ATOM      4  C   UNL     1       9.695  17.247  18.550  0.00  0.00    +0.000 C 
ATOM      5  C   UNL     1       9.132  18.229  19.579  0.00  0.00    +0.000 C 
ATOM      6  C   UNL     1      10.349  18.009  17.392  0.00  0.00    +0.000 C 
ATOM      7  N   UNL     1      10.682  16.392  19.178  0.00  0.00    +0.000 N 
ATOM      8  C   UNL     1      10.771  15.031  19.034  0.00  0.00    +0.000 C 
ATOM      9  S   UNL     1      12.332  14.409  19.158  0.00  0.00    +0.000 S 
ATOM     10  N   UNL     1       9.570  14.333  18.744  0.00  0.00    +0.000 N 
ATOM     11  H   UNL     1      11.563  16.828  19.425  0.00  0.00    +0.000 HD
ENDROOT
BRANCH  10  12
ATOM     12  C   UNL     1       9.500  12.891  19.006  0.00  0.00    +0.000 A 
ATOM     13  C   UNL     1       9.574  11.984  17.928  0.00  0.00    +0.000 A 
ATOM     14  C   UNL     1       9.483  10.599  18.111  0.00  0.00    +0.000 A 
ATOM     15  C   UNL     1       9.412  10.068  19.388  0.00  0.00    +0.000 A 
ATOM     16  C   UNL     1       9.373  10.931  20.481  0.00  0.00    +0.000 A 
ATOM     17  C   UNL     1       9.363  12.330  20.295  0.00  0.00    +0.000 A 
BRANCH  17  18
ATOM     18  C   UNL     1       9.088  13.105  21.477  0.00  0.00    +0.000 C 
ATOM     19  N   UNL     1       8.893  13.792  22.391  0.00  0.00    +0.000 NA
ENDBRANCH  17  18
ENDBRANCH  10  12
TORSDOF 2
ENDMDL
MODEL 5
REMARK VINA RESULT:      -5.4      2.004      3.334
REMARK  Name = 
REMARK  5 active torsions:
REMARK  status: ('A' for Active; 'I' for Inactive)
REMARK    1  A    between atoms: C_1  and  C_2
REMARK    2  A    between atoms: C_4  and  C_5
REMARK    3  A    between atoms: C_4  and  C_6
REMARK    4  A    between atoms: N_10  and  C_11
REMARK    5  A    between atoms: C_16  and  C_17
REMARK                            x       y       z     vdW  Elec       q    Type
REMARK                         _______ _______ _______ _____ _____    ______ ____
ROOT
ATOM      1  C   UNL     1       3.055   6.501  18.977  0.00  0.00    +0.000 C 
ATOM      2  C   UNL     1       3.009   5.017  19.293  0.00  0.00    +0.000 C 
ATOM      3  C   UNL     1       1.800   4.517  19.589  0.00  0.00    +0.000 C 
ATOM      4  C   UNL     1       1.502   3.073  19.812  0.00  0.00    +0.000 C 
ATOM      5  C   UNL     1       0.489   2.610  18.762  0.00  0.00    +0.000 C 
ATOM      6  C   UNL     1       0.936   2.870  21.221  0.00  0.00    +0.000 C 
ATOM      7  N   UNL     1       2.730   2.315  19.674  0.00  0.00    +0.000 N 
ATOM      8  C   UNL     1       3.998   2.836  19.683  0.00  0.00    +0.000 C 
ATOM      9  S   UNL     1       5.181   1.804  20.295  0.00  0.00    +0.000 S 
ATOM     10  N   UNL     1       4.147   4.176  19.240  0.00  0.00    +0.000 N 
ATOM     11  H   UNL     1       2.692   1.344  19.961  0.00  0.00    +0.000 HD
ENDROOT
BRANCH  10  12
ATOM     12  C   UNL     1       5.471   4.643  18.811  0.00  0.00    +0.000 A 
ATOM     13  C   UNL     1       6.313   5.294  19.738  0.00  0.00    +0.000 A 
ATOM     14  C   UNL     1       7.573   5.789  19.382  0.00  0.00    +0.000 A 
ATOM     15  C   UNL     1       8.075   5.565  18.112  0.00  0.00    +0.000 A 
ATOM     16  C   UNL     1       7.288   4.895  17.178  0.00  0.00    +0.000 A 
ATOM     17  C   UNL     1       5.978   4.483  17.503  0.00  0.00    +0.000 A 
BRANCH  17  18
ATOM     18  C   UNL     1       5.189   4.013  16.394  0.00  0.00    +0.000 C 
ATOM     19  N   UNL     1       4.520   3.705  15.498  0.00  0.00    +0.000 NA
ENDBRANCH  17  18
ENDBRANCH  10  12
TORSDOF 2
ENDMDL
MODEL 6
REMARK VINA RESULT:      -5.4      1.719      5.452
REMARK  Name = 
REMARK  5 active torsions:
REMARK  status: ('A' for Active; 'I' for Inactive)
REMARK    1  A    between atoms: C_1  and  C_2
REMARK    2  A    between atoms: C_4  and  C_5
REMARK    3  A    between atoms: C_4  and  C_6
REMARK    4  A    between atoms: N_10  and  C_11
REMARK    5  A    between atoms: C_16  and  C_17
REMARK                            x       y       z     vdW  Elec       q    Type
REMARK                         _______ _______ _______ _____ _____    ______ ____
ROOT
ATOM      1  C   UNL     1       5.744   3.604  19.603  0.00  0.00    +0.000 C 
ATOM      2  C   UNL     1       5.500   4.787  18.683  0.00  0.00    +0.000 C 
ATOM      3  C   UNL     1       6.569   5.235  18.008  0.00  0.00    +0.000 C 
ATOM      4  C   UNL     1       6.538   6.300  16.966  0.00  0.00    +0.000 C 
ATOM      5  C   UNL     1       7.023   5.708  15.640  0.00  0.00    +0.000 C 
ATOM      6  C   UNL     1       7.439   7.467  17.386  0.00  0.00    +0.000 C 
ATOM      7  N   UNL     1       5.176   6.774  16.821  0.00  0.00    +0.000 N 
ATOM      8  C   UNL     1       4.152   6.550  17.705  0.00  0.00    +0.000 C 
ATOM      9  S   UNL     1       2.992   7.771  17.764  0.00  0.00    +0.000 S 
ATOM     10  N   UNL     1       4.225   5.370  18.490  0.00  0.00    +0.000 N 
ATOM     11  H   UNL     1       5.048   7.609  16.260  0.00  0.00    +0.000 HD
ENDROOT
BRANCH  10  12
ATOM     12  C   UNL     1       3.002   4.850  19.111  0.00  0.00    +0.000 A 
ATOM     13  C   UNL     1       2.615   5.318  20.385  0.00  0.00    +0.000 A 
ATOM     14  C   UNL     1       1.476   4.838  21.042  0.00  0.00    +0.000 A 
ATOM     15  C   UNL     1       0.631   3.943  20.408  0.00  0.00    +0.000 A 
ATOM     16  C   UNL     1       0.960   3.484  19.135  0.00  0.00    +0.000 A 
ATOM     17  C   UNL     1       2.159   3.889  18.510  0.00  0.00    +0.000 A 
BRANCH  17  18
ATOM     18  C   UNL     1       2.498   3.173  17.307  0.00  0.00    +0.000 C 
ATOM     19  N   UNL     1       2.702   2.617  16.310  0.00  0.00    +0.000 NA
ENDBRANCH  17  18
ENDBRANCH  10  12
TORSDOF 2
ENDMDL
MODEL 7
REMARK VINA RESULT:      -5.4      1.304      2.462
REMARK  Name = 
REMARK  5 active torsions:
REMARK  status: ('A' for Active; 'I' for Inactive)
REMARK    1  A    between atoms: C_1  and  C_2
REMARK    2  A    between atoms: C_4  and  C_5
REMARK    3  A    between atoms: C_4  and  C_6
REMARK    4  A    between atoms: N_10  and  C_11
REMARK    5  A    between atoms: C_16  and  C_17
REMARK                            x       y       z     vdW  Elec       q    Type
REMARK                         _______ _______ _______ _____ _____    ______ ____
ROOT
ATOM      1  C   UNL     1       4.911   1.634  19.148  0.00  0.00    +0.000 C 
ATOM      2  C   UNL     1       3.831   2.698  19.230  0.00  0.00    +0.000 C 
ATOM      3  C   UNL     1       2.617   2.272  19.610  0.00  0.00    +0.000 C 
ATOM      4  C   UNL     1       1.445   3.155  19.874  0.00  0.00    +0.000 C 
ATOM      5  C   UNL     1       1.017   2.986  21.334  0.00  0.00    +0.000 C 
ATOM      6  C   UNL     1       0.291   2.782  18.937  0.00  0.00    +0.000 C 
ATOM      7  N   UNL     1       1.832   4.531  19.634  0.00  0.00    +0.000 N 
ATOM      8  C   UNL     1       2.952   4.942  18.958  0.00  0.00    +0.000 C 
ATOM      9  S   UNL     1       2.788   6.410  18.147  0.00  0.00    +0.000 S 
ATOM     10  N   UNL     1       4.071   4.069  18.975  0.00  0.00    +0.000 N 
ATOM     11  H   UNL     1       1.082   5.213  19.622  0.00  0.00    +0.000 HD
ENDROOT
BRANCH  10  12
ATOM     12  C   UNL     1       5.401   4.608  18.668  0.00  0.00    +0.000 A 
ATOM     13  C   UNL     1       6.165   5.203  19.695  0.00  0.00    +0.000 A 
ATOM     14  C   UNL     1       7.426   5.762  19.458  0.00  0.00    +0.000 A 
ATOM     15  C   UNL     1       8.010   5.659  18.208  0.00  0.00    +0.000 A 
ATOM     16  C   UNL     1       7.302   5.046  17.175  0.00  0.00    +0.000 A 
ATOM     17  C   UNL     1       5.990   4.571  17.384  0.00  0.00    +0.000 A 
BRANCH  17  18
ATOM     18  C   UNL     1       5.283   4.173  16.195  0.00  0.00    +0.000 C 
ATOM     19  N   UNL     1       4.731   3.922  15.206  0.00  0.00    +0.000 NA
ENDBRANCH  17  18
ENDBRANCH  10  12
TORSDOF 2
ENDMDL
MODEL 8
REMARK VINA RESULT:      -5.3      1.845      5.247
REMARK  Name = 
REMARK  5 active torsions:
REMARK  status: ('A' for Active; 'I' for Inactive)
REMARK    1  A    between atoms: C_1  and  C_2
REMARK    2  A    between atoms: C_4  and  C_5
REMARK    3  A    between atoms: C_4  and  C_6
REMARK    4  A    between atoms: N_10  and  C_11
REMARK    5  A    between atoms: C_16  and  C_17
REMARK                            x       y       z     vdW  Elec       q    Type
REMARK                         _______ _______ _______ _____ _____    ______ ____
ROOT
ATOM      1  C   UNL     1       2.682   2.922  16.725  0.00  0.00    +0.000 C 
ATOM      2  C   UNL     1       3.895   3.812  16.928  0.00  0.00    +0.000 C 
ATOM      3  C   UNL     1       4.617   4.079  15.829  0.00  0.00    +0.000 C 
ATOM      4  C   UNL     1       5.771   5.021  15.772  0.00  0.00    +0.000 C 
ATOM      5  C   UNL     1       5.442   6.145  14.787  0.00  0.00    +0.000 C 
ATOM      6  C   UNL     1       7.032   4.274  15.323  0.00  0.00    +0.000 C 
ATOM      7  N   UNL     1       5.988   5.577  17.093  0.00  0.00    +0.000 N 
ATOM      8  C   UNL     1       5.469   5.086  18.264  0.00  0.00    +0.000 C 
ATOM      9  S   UNL     1       6.428   5.346  19.625  0.00  0.00    +0.000 S 
ATOM     10  N   UNL     1       4.241   4.379  18.178  0.00  0.00    +0.000 N 
ATOM     11  H   UNL     1       6.842   6.107  17.223  0.00  0.00    +0.000 HD
ENDROOT
BRANCH  10  12
ATOM     12  C   UNL     1       3.426   4.216  19.387  0.00  0.00    +0.000 A 
ATOM     13  C   UNL     1       2.518   5.231  19.757  0.00  0.00    +0.000 A 
ATOM     14  C   UNL     1       1.735   5.146  20.915  0.00  0.00    +0.000 A 
ATOM     15  C   UNL     1       1.763   4.001  21.692  0.00  0.00    +0.000 A 
ATOM     16  C   UNL     1       2.621   2.961  21.340  0.00  0.00    +0.000 A 
ATOM     17  C   UNL     1       3.484   3.084  20.230  0.00  0.00    +0.000 A 
BRANCH  17  18
ATOM     18  C   UNL     1       4.478   2.049  20.108  0.00  0.00    +0.000 C 
ATOM     19  N   UNL     1       5.273   1.205  20.086  0.00  0.00    +0.000 NA
ENDBRANCH  17  18
ENDBRANCH  10  12
TORSDOF 2
ENDMDL
MODEL 9
REMARK VINA RESULT:      -5.3     10.320     11.551
REMARK  Name = 
REMARK  5 active torsions:
REMARK  status: ('A' for Active; 'I' for Inactive)
REMARK    1  A    between atoms: C_1  and  C_2
REMARK    2  A    between atoms: C_4  and  C_5
REMARK    3  A    between atoms: C_4  and  C_6
REMARK    4  A    between atoms: N_10  and  C_11
REMARK    5  A    between atoms: C_16  and  C_17
REMARK                            x       y       z     vdW  Elec       q    Type
REMARK                         _______ _______ _______ _____ _____    ______ ____
ROOT
ATOM      1  C   UNL     1       7.754  13.003  17.178  0.00  0.00    +0.000 C 
ATOM      2  C   UNL     1       7.655  14.055  18.268  0.00  0.00    +0.000 C 
ATOM      3  C   UNL     1       6.485  14.705  18.351  0.00  0.00    +0.000 C 
ATOM      4  C   UNL     1       6.125  15.686  19.415  0.00  0.00    +0.000 C 
ATOM      5  C   UNL     1       4.908  15.161  20.181  0.00  0.00    +0.000 C 
ATOM      6  C   UNL     1       5.808  17.046  18.784  0.00  0.00    +0.000 C 
ATOM      7  N   UNL     1       7.248  15.828  20.320  0.00  0.00    +0.000 N 
ATOM      8  C   UNL     1       8.533  15.416  20.074  0.00  0.00    +0.000 C 
ATOM      9  S   UNL     1       9.726  16.339  20.824  0.00  0.00    +0.000 S 
ATOM     10  N   UNL     1       8.699  14.321  19.186  0.00  0.00    +0.000 N 
ATOM     11  H   UNL     1       7.191  16.584  20.992  0.00  0.00    +0.000 HD
ENDROOT
BRANCH  10  12
ATOM     12  C   UNL     1       9.955  13.563  19.215  0.00  0.00    +0.000 A 
ATOM     13  C   UNL     1      10.130  12.542  20.174  0.00  0.00    +0.000 A 
ATOM     14  C   UNL     1      11.316  11.805  20.272  0.00  0.00    +0.000 A 
ATOM     15  C   UNL     1      12.333  11.997  19.352  0.00  0.00    +0.000 A 
ATOM     16  C   UNL     1      12.184  12.972  18.368  0.00  0.00    +0.000 A 
ATOM     17  C   UNL     1      11.032  13.786  18.328  0.00  0.00    +0.000 A 
BRANCH  17  18
ATOM     18  C   UNL     1      11.097  14.901  17.419  0.00  0.00    +0.000 C 
ATOM     19  N   UNL     1      11.171  15.843  16.747  0.00  0.00    +0.000 NA
ENDBRANCH  17  18
ENDBRANCH  10  12
TORSDOF 2
ENDMDL
