MODEL 1
REMARK VINA RESULT:      -8.6      0.000      0.000
REMARK  Name = 
REMARK  5 active torsions:
REMARK  status: ('A' for Active; 'I' for Inactive)
REMARK    1  A    between atoms: C_2  and  C_3
REMARK    2  A    between atoms: C_7  and  N_8
REMARK    3  A    between atoms: N_8  and  S_9
REMARK    4  A    between atoms: S_9  and  C_12
REMARK    5  A    between atoms: N_23  and  C_24
REMARK                            x       y       z     vdW  Elec       q    Type
REMARK                         _______ _______ _______ _____ _____    ______ ____
ROOT
ATOM      1  C   UNL     1       2.455   4.958  19.057  0.00  0.00    +0.000 A 
ATOM      2  C   UNL     1       1.456   4.105  18.573  0.00  0.00    +0.000 A 
ATOM      3  C   UNL     1       1.767   3.124  17.627  0.00  0.00    +0.000 A 
ATOM      4  C   UNL     1       3.080   2.985  17.172  0.00  0.00    +0.000 A 
ATOM      5  C   UNL     1       4.063   3.859  17.624  0.00  0.00    +0.000 A 
ATOM      6  C   UNL     1       3.741   4.871  18.522  0.00  0.00    +0.000 A 
ENDROOT
BRANCH   1   8
ATOM      7  O   UNL     1       1.815   5.539  21.209  0.00  0.00    +0.000 OA
ATOM      8  C   UNL     1       2.098   5.966  20.094  0.00  0.00    +0.000 C 
ATOM      9  N   UNL     1       2.104   7.326  19.789  0.00  0.00    +0.000 N 
ATOM     10  C   UNL     1       2.508   7.986  18.535  0.00  0.00    +0.000 C 
ATOM     11  C   UNL     1       1.311   8.761  17.960  0.00  0.00    +0.000 C 
ATOM     12  N   UNL     1       0.854   9.754  18.943  0.00  0.00    +0.000 N 
ATOM     13  C   UNL     1       0.522   9.206  20.278  0.00  0.00    +0.000 C 
ATOM     14  C   UNL     1       1.656   8.289  20.806  0.00  0.00    +0.000 C 
BRANCH  12  15
ATOM     15  C   UNL     1       0.978  11.112  18.721  0.00  0.00    +0.000 A 
ATOM     16  C   UNL     1       2.216  11.682  18.389  0.00  0.00    +0.000 A 
ATOM     17  C   UNL     1       2.370  13.063  18.214  0.00  0.00    +0.000 A 
ATOM     18  C   UNL     1       1.282  13.912  18.365  0.00  0.00    +0.000 A 
ATOM     19  C   UNL     1       0.038  13.377  18.683  0.00  0.00    +0.000 A 
ATOM     20  C   UNL     1      -0.105  11.996  18.854  0.00  0.00    +0.000 A 
ENDBRANCH  12  15
ENDBRANCH   1   8
BRANCH   5  21
ATOM     21  N   UNL     1       5.401   3.689  17.196  0.00  0.00    +0.000 N 
ATOM     22  H   UNL     1       6.067   3.202  17.793  0.00  0.00    +0.000 HD
BRANCH  21  23
ATOM     23  S   UNL     1       6.068   4.724  16.059  0.00  0.00    +0.000 S 
ATOM     24  O   UNL     1       7.062   3.952  15.345  0.00  0.00    +0.000 OA
ATOM     25  O   UNL     1       5.004   5.418  15.366  0.00  0.00    +0.000 OA
BRANCH  23  26
ATOM     26  C   UNL     1       6.943   5.914  17.057  0.00  0.00    +0.000 A 
ATOM     27  C   UNL     1       7.026   7.246  16.632  0.00  0.00    +0.000 A 
ATOM     28  C   UNL     1       7.720   8.172  17.414  0.00  0.00    +0.000 A 
ATOM     29  C   UNL     1       8.315   7.760  18.603  0.00  0.00    +0.000 A 
ATOM     30  F   UNL     1       8.987   8.650  19.345  0.00  0.00    +0.000 F 
ATOM     31  C   UNL     1       8.223   6.440  19.037  0.00  0.00    +0.000 A 
ATOM     32  C   UNL     1       7.520   5.511  18.269  0.00  0.00    +0.000 A 
ENDBRANCH  23  26
ENDBRANCH  21  23
ENDBRANCH   5  21
TORSDOF 5
ENDMDL
MODEL 2
REMARK VINA RESULT:      -8.5      0.183      1.239
REMARK  Name = 
REMARK  5 active torsions:
REMARK  status: ('A' for Active; 'I' for Inactive)
REMARK    1  A    between atoms: C_2  and  C_3
REMARK    2  A    between atoms: C_7  and  N_8
REMARK    3  A    between atoms: N_8  and  S_9
REMARK    4  A    between atoms: S_9  and  C_12
REMARK    5  A    between atoms: N_23  and  C_24
REMARK                            x       y       z     vdW  Elec       q    Type
REMARK                         _______ _______ _______ _____ _____    ______ ____
ROOT
ATOM      1  C   UNL     1       2.406   5.136  19.002  0.00  0.00    +0.000 A 
ATOM      2  C   UNL     1       1.397   4.352  18.430  0.00  0.00    +0.000 A 
ATOM      3  C   UNL     1       1.713   3.400  17.456  0.00  0.00    +0.000 A 
ATOM      4  C   UNL     1       3.040   3.223  17.060  0.00  0.00    +0.000 A 
ATOM      5  C   UNL     1       4.035   4.030  17.600  0.00  0.00    +0.000 A 
ATOM      6  C   UNL     1       3.712   5.015  18.527  0.00  0.00    +0.000 A 
ENDROOT
BRANCH   1   8
ATOM      7  O   UNL     1       1.752   5.652  21.166  0.00  0.00    +0.000 OA
ATOM      8  C   UNL     1       2.040   6.112  20.065  0.00  0.00    +0.000 C 
ATOM      9  N   UNL     1       2.045   7.481  19.801  0.00  0.00    +0.000 N 
ATOM     10  C   UNL     1       2.456   8.178  18.570  0.00  0.00    +0.000 C 
ATOM     11  C   UNL     1       1.260   8.968  18.011  0.00  0.00    +0.000 C 
ATOM     12  N   UNL     1       0.795   9.930  19.020  0.00  0.00    +0.000 N 
ATOM     13  C   UNL     1       0.457   9.343  20.336  0.00  0.00    +0.000 C 
ATOM     14  C   UNL     1       1.589   8.413  20.843  0.00  0.00    +0.000 C 
BRANCH  12  15
ATOM     15  C   UNL     1       0.918  11.294  18.838  0.00  0.00    +0.000 A 
ATOM     16  C   UNL     1      -0.190  12.145  18.957  0.00  0.00    +0.000 A 
ATOM     17  C   UNL     1      -0.094  13.522  18.722  0.00  0.00    +0.000 A 
ATOM     18  C   UNL     1       1.124  14.086  18.363  0.00  0.00    +0.000 A 
ATOM     19  C   UNL     1       2.245  13.271  18.246  0.00  0.00    +0.000 A 
ATOM     20  C   UNL     1       2.137  11.897  18.485  0.00  0.00    +0.000 A 
ENDBRANCH  12  15
ENDBRANCH   1   8
BRANCH   5  21
ATOM     21  N   UNL     1       5.385   3.818  17.230  0.00  0.00    +0.000 N 
ATOM     22  H   UNL     1       6.016   3.337  17.868  0.00  0.00    +0.000 HD
BRANCH  21  23
ATOM     23  S   UNL     1       6.118   4.801  16.087  0.00  0.00    +0.000 S 
ATOM     24  O   UNL     1       7.112   3.981  15.428  0.00  0.00    +0.000 OA
ATOM     25  O   UNL     1       5.098   5.504  15.341  0.00  0.00    +0.000 OA
BRANCH  23  26
ATOM     26  C   UNL     1       6.994   5.994  17.081  0.00  0.00    +0.000 A 
ATOM     27  C   UNL     1       7.584   5.591  18.285  0.00  0.00    +0.000 A 
ATOM     28  C   UNL     1       8.262   6.531  19.065  0.00  0.00    +0.000 A 
ATOM     29  C   UNL     1       8.345   7.851  18.633  0.00  0.00    +0.000 A 
ATOM     30  F   UNL     1       8.988   8.751  19.388  0.00  0.00    +0.000 F 
ATOM     31  C   UNL     1       7.772   8.254  17.429  0.00  0.00    +0.000 A 
ATOM     32  C   UNL     1       7.104   7.318  16.638  0.00  0.00    +0.000 A 
ENDBRANCH  23  26
ENDBRANCH  21  23
ENDBRANCH   5  21
TORSDOF 5
ENDMDL
MODEL 3
REMARK VINA RESULT:      -8.3      2.763      3.365
REMARK  Name = 
REMARK  5 active torsions:
REMARK  status: ('A' for Active; 'I' for Inactive)
REMARK    1  A    between atoms: C_2  and  C_3
REMARK    2  A    between atoms: C_7  and  N_8
REMARK    3  A    between atoms: N_8  and  S_9
REMARK    4  A    between atoms: S_9  and  C_12
REMARK    5  A    between atoms: N_23  and  C_24
REMARK                            x       y       z     vdW  Elec       q    Type
REMARK                         _______ _______ _______ _____ _____    ______ ____
ROOT
ATOM      1  C   UNL     1       2.566   5.455  18.965  0.00  0.00    +0.000 A 
ATOM      2  C   UNL     1       1.700   4.510  18.401  0.00  0.00    +0.000 A 
ATOM      3  C   UNL     1       2.156   3.650  17.397  0.00  0.00    +0.000 A 
ATOM      4  C   UNL     1       3.481   3.725  16.964  0.00  0.00    +0.000 A 
ATOM      5  C   UNL     1       4.329   4.690  17.498  0.00  0.00    +0.000 A 
ATOM      6  C   UNL     1       3.859   5.583  18.455  0.00  0.00    +0.000 A 
ENDROOT
BRANCH   1   8
ATOM      7  O   UNL     1       1.765   5.780  21.117  0.00  0.00    +0.000 OA
ATOM      8  C   UNL     1       2.060   6.329  20.059  0.00  0.00    +0.000 C 
ATOM      9  N   UNL     1       1.947   7.705  19.870  0.00  0.00    +0.000 N 
ATOM     10  C   UNL     1       2.347   8.509  18.702  0.00  0.00    +0.000 C 
ATOM     11  C   UNL     1       1.109   9.217  18.125  0.00  0.00    +0.000 C 
ATOM     12  N   UNL     1       0.508  10.070  19.159  0.00  0.00    +0.000 N 
ATOM     13  C   UNL     1       0.165   9.378  20.422  0.00  0.00    +0.000 C 
ATOM     14  C   UNL     1       1.356   8.528  20.936  0.00  0.00    +0.000 C 
BRANCH  12  15
ATOM     15  C   UNL     1       0.509  11.449  19.058  0.00  0.00    +0.000 A 
ATOM     16  C   UNL     1      -0.645  12.149  18.681  0.00  0.00    +0.000 A 
ATOM     17  C   UNL     1      -0.646  13.541  18.521  0.00  0.00    +0.000 A 
ATOM     18  C   UNL     1       0.515  14.270  18.739  0.00  0.00    +0.000 A 
ATOM     19  C   UNL     1       1.675  13.606  19.125  0.00  0.00    +0.000 A 
ATOM     20  C   UNL     1       1.664  12.216  19.283  0.00  0.00    +0.000 A 
ENDBRANCH  12  15
ENDBRANCH   1   8
BRANCH   5  21
ATOM     21  N   UNL     1       5.683   4.735  17.089  0.00  0.00    +0.000 N 
ATOM     22  H   UNL     1       6.402   4.305  17.669  0.00  0.00    +0.000 HD
BRANCH  21  23
ATOM     23  S   UNL     1       6.215   5.926  16.037  0.00  0.00    +0.000 S 
ATOM     24  O   UNL     1       5.086   6.805  15.819  0.00  0.00    +0.000 OA
ATOM     25  O   UNL     1       7.491   6.429  16.496  0.00  0.00    +0.000 OA
BRANCH  23  26
ATOM     26  C   UNL     1       6.488   5.033  14.519  0.00  0.00    +0.000 A 
ATOM     27  C   UNL     1       7.614   5.323  13.739  0.00  0.00    +0.000 A 
ATOM     28  C   UNL     1       7.819   4.627  12.546  0.00  0.00    +0.000 A 
ATOM     29  C   UNL     1       6.905   3.655  12.151  0.00  0.00    +0.000 A 
ATOM     30  F   UNL     1       7.100   2.997  11.001  0.00  0.00    +0.000 F 
ATOM     31  C   UNL     1       5.790   3.354  12.930  0.00  0.00    +0.000 A 
ATOM     32  C   UNL     1       5.586   4.035  14.130  0.00  0.00    +0.000 A 
ENDBRANCH  23  26
ENDBRANCH  21  23
ENDBRANCH   5  21
TORSDOF 5
ENDMDL
MODEL 4
REMARK VINA RESULT:      -8.3      2.454      3.120
REMARK  Name = 
REMARK  5 active torsions:
REMARK  status: ('A' for Active; 'I' for Inactive)
REMARK    1  A    between atoms: C_2  and  C_3
REMARK    2  A    between atoms: C_7  and  N_8
REMARK    3  A    between atoms: N_8  and  S_9
REMARK    4  A    between atoms: S_9  and  C_12
REMARK    5  A    between atoms: N_23  and  C_24
REMARK                            x       y       z     vdW  Elec       q    Type
REMARK                         _______ _______ _______ _____ _____    ______ ____
ROOT
ATOM      1  C   UNL     1       2.550   5.206  18.945  0.00  0.00    +0.000 A 
ATOM      2  C   UNL     1       1.575   4.580  18.158  0.00  0.00    +0.000 A 
ATOM      3  C   UNL     1       1.951   3.664  17.171  0.00  0.00    +0.000 A 
ATOM      4  C   UNL     1       3.300   3.362  16.976  0.00  0.00    +0.000 A 
ATOM      5  C   UNL     1       4.269   4.014  17.732  0.00  0.00    +0.000 A 
ATOM      6  C   UNL     1       3.898   4.967  18.674  0.00  0.00    +0.000 A 
ENDROOT
BRANCH   1   8
ATOM      7  O   UNL     1       1.797   5.653  21.092  0.00  0.00    +0.000 OA
ATOM      8  C   UNL     1       2.114   6.146  20.014  0.00  0.00    +0.000 C 
ATOM      9  N   UNL     1       2.087   7.520  19.779  0.00  0.00    +0.000 N 
ATOM     10  C   UNL     1       2.523   8.257  18.580  0.00  0.00    +0.000 C 
ATOM     11  C   UNL     1       1.326   9.023  17.992  0.00  0.00    +0.000 C 
ATOM     12  N   UNL     1       0.794   9.948  19.002  0.00  0.00    +0.000 N 
ATOM     13  C   UNL     1       0.423   9.321  20.291  0.00  0.00    +0.000 C 
ATOM     14  C   UNL     1       1.563   8.414  20.822  0.00  0.00    +0.000 C 
BRANCH  12  15
ATOM     15  C   UNL     1       0.882  11.319  18.855  0.00  0.00    +0.000 A 
ATOM     16  C   UNL     1      -0.240  12.141  19.034  0.00  0.00    +0.000 A 
ATOM     17  C   UNL     1      -0.180  13.526  18.834  0.00  0.00    +0.000 A 
ATOM     18  C   UNL     1       1.012  14.126  18.451  0.00  0.00    +0.000 A 
ATOM     19  C   UNL     1       2.146  13.340  18.276  0.00  0.00    +0.000 A 
ATOM     20  C   UNL     1       2.075  11.958  18.479  0.00  0.00    +0.000 A 
ENDBRANCH  12  15
ENDBRANCH   1   8
BRANCH   5  21
ATOM     21  N   UNL     1       5.633   3.675  17.564  0.00  0.00    +0.000 N 
ATOM     22  H   UNL     1       6.015   2.859  18.040  0.00  0.00    +0.000 HD
BRANCH  21  23
ATOM     23  S   UNL     1       6.749   4.839  17.109  0.00  0.00    +0.000 S 
ATOM     24  O   UNL     1       6.127   6.119  17.372  0.00  0.00    +0.000 OA
ATOM     25  O   UNL     1       8.043   4.497  17.659  0.00  0.00    +0.000 OA
BRANCH  23  26
ATOM     26  C   UNL     1       6.834   4.649  15.339  0.00  0.00    +0.000 A 
ATOM     27  C   UNL     1       5.981   3.742  14.699  0.00  0.00    +0.000 A 
ATOM     28  C   UNL     1       6.057   3.590  13.312  0.00  0.00    +0.000 A 
ATOM     29  C   UNL     1       6.976   4.343  12.588  0.00  0.00    +0.000 A 
ATOM     30  F   UNL     1       7.053   4.189  11.260  0.00  0.00    +0.000 F 
ATOM     31  C   UNL     1       7.817   5.257  13.218  0.00  0.00    +0.000 A 
ATOM     32  C   UNL     1       7.738   5.425  14.601  0.00  0.00    +0.000 A 
ENDBRANCH  23  26
ENDBRANCH  21  23
ENDBRANCH   5  21
TORSDOF 5
ENDMDL
MODEL 5
REMARK VINA RESULT:      -8.2      2.651      3.193
REMARK  Name = 
REMARK  5 active torsions:
REMARK  status: ('A' for Active; 'I' for Inactive)
REMARK    1  A    between atoms: C_2  and  C_3
REMARK    2  A    between atoms: C_7  and  N_8
REMARK    3  A    between atoms: N_8  and  S_9
REMARK    4  A    between atoms: S_9  and  C_12
REMARK    5  A    between atoms: N_23  and  C_24
REMARK                            x       y       z     vdW  Elec       q    Type
REMARK                         _______ _______ _______ _____ _____    ______ ____
ROOT
ATOM      1  C   UNL     1       2.484   5.243  18.970  0.00  0.00    +0.000 A 
ATOM      2  C   UNL     1       1.573   4.323  18.438  0.00  0.00    +0.000 A 
ATOM      3  C   UNL     1       1.988   3.401  17.472  0.00  0.00    +0.000 A 
ATOM      4  C   UNL     1       3.317   3.390  17.045  0.00  0.00    +0.000 A 
ATOM      5  C   UNL     1       4.211   4.330  17.545  0.00  0.00    +0.000 A 
ATOM      6  C   UNL     1       3.784   5.283  18.463  0.00  0.00    +0.000 A 
ENDROOT
BRANCH   1   8
ATOM      7  O   UNL     1       1.636   5.690  21.081  0.00  0.00    +0.000 OA
ATOM      8  C   UNL     1       2.020   6.185  20.026  0.00  0.00    +0.000 C 
ATOM      9  N   UNL     1       2.041   7.561  19.805  0.00  0.00    +0.000 N 
ATOM     10  C   UNL     1       2.558   8.297  18.638  0.00  0.00    +0.000 C 
ATOM     11  C   UNL     1       1.413   9.101  17.998  0.00  0.00    +0.000 C 
ATOM     12  N   UNL     1       0.855  10.031  18.990  0.00  0.00    +0.000 N 
ATOM     13  C   UNL     1       0.402   9.402  20.252  0.00  0.00    +0.000 C 
ATOM     14  C   UNL     1       1.488   8.459  20.830  0.00  0.00    +0.000 C 
BRANCH  12  15
ATOM     15  C   UNL     1       0.987  11.400  18.862  0.00  0.00    +0.000 A 
ATOM     16  C   UNL     1       2.114  11.966  18.249  0.00  0.00    +0.000 A 
ATOM     17  C   UNL     1       2.289  13.353  18.161  0.00  0.00    +0.000 A 
ATOM     18  C   UNL     1       1.332  14.213  18.685  0.00  0.00    +0.000 A 
ATOM     19  C   UNL     1       0.197  13.683  19.289  0.00  0.00    +0.000 A 
ATOM     20  C   UNL     1       0.032  12.296  19.371  0.00  0.00    +0.000 A 
ENDBRANCH  12  15
ENDBRANCH   1   8
BRANCH   5  21
ATOM     21  N   UNL     1       5.568   4.289  17.144  0.00  0.00    +0.000 N 
ATOM     22  H   UNL     1       6.220   3.672  17.625  0.00  0.00    +0.000 HD
BRANCH  21  23
ATOM     23  S   UNL     1       6.256   5.585  16.336  0.00  0.00    +0.000 S 
ATOM     24  O   UNL     1       5.215   6.584  16.216  0.00  0.00    +0.000 OA
ATOM     25  O   UNL     1       7.537   5.892  16.934  0.00  0.00    +0.000 OA
BRANCH  23  26
ATOM     26  C   UNL     1       6.551   4.935  14.703  0.00  0.00    +0.000 A 
ATOM     27  C   UNL     1       5.704   3.945  14.189  0.00  0.00    +0.000 A 
ATOM     28  C   UNL     1       5.945   3.432  12.912  0.00  0.00    +0.000 A 
ATOM     29  C   UNL     1       7.018   3.914  12.169  0.00  0.00    +0.000 A 
ATOM     30  F   UNL     1       7.251   3.413  10.949  0.00  0.00    +0.000 F 
ATOM     31  C   UNL     1       7.854   4.908  12.670  0.00  0.00    +0.000 A 
ATOM     32  C   UNL     1       7.613   5.436  13.939  0.00  0.00    +0.000 A 
ENDBRANCH  23  26
ENDBRANCH  21  23
ENDBRANCH   5  21
TORSDOF 5
ENDMDL
MODEL 6
REMARK VINA RESULT:      -7.9      0.976      1.420
REMARK  Name = 
REMARK  5 active torsions:
REMARK  status: ('A' for Active; 'I' for Inactive)
REMARK    1  A    between atoms: C_2  and  C_3
REMARK    2  A    between atoms: C_7  and  N_8
REMARK    3  A    between atoms: N_8  and  S_9
REMARK    4  A    between atoms: S_9  and  C_12
REMARK    5  A    between atoms: N_23  and  C_24
REMARK                            x       y       z     vdW  Elec       q    Type
REMARK                         _______ _______ _______ _____ _____    ______ ____
ROOT
ATOM      1  C   UNL     1       2.457   5.489  18.854  0.00  0.00    +0.000 A 
ATOM      2  C   UNL     1       1.728   4.329  18.564  0.00  0.00    +0.000 A 
ATOM      3  C   UNL     1       2.186   3.438  17.588  0.00  0.00    +0.000 A 
ATOM      4  C   UNL     1       3.377   3.698  16.909  0.00  0.00    +0.000 A 
ATOM      5  C   UNL     1       4.079   4.871  17.171  0.00  0.00    +0.000 A 
ATOM      6  C   UNL     1       3.594   5.784  18.100  0.00  0.00    +0.000 A 
ENDROOT
BRANCH   1   8
ATOM      7  O   UNL     1       1.599   5.872  20.974  0.00  0.00    +0.000 OA
ATOM      8  C   UNL     1       1.963   6.397  19.926  0.00  0.00    +0.000 C 
ATOM      9  N   UNL     1       1.937   7.777  19.727  0.00  0.00    +0.000 N 
ATOM     10  C   UNL     1       2.425   8.549  18.572  0.00  0.00    +0.000 C 
ATOM     11  C   UNL     1       1.253   9.324  17.947  0.00  0.00    +0.000 C 
ATOM     12  N   UNL     1       0.665  10.217  18.956  0.00  0.00    +0.000 N 
ATOM     13  C   UNL     1       0.237   9.553  20.208  0.00  0.00    +0.000 C 
ATOM     14  C   UNL     1       1.357   8.639  20.768  0.00  0.00    +0.000 C 
BRANCH  12  15
ATOM     15  C   UNL     1       0.750  11.593  18.850  0.00  0.00    +0.000 A 
ATOM     16  C   UNL     1       1.961  12.222  18.529  0.00  0.00    +0.000 A 
ATOM     17  C   UNL     1       2.078  13.616  18.472  0.00  0.00    +0.000 A 
ATOM     18  C   UNL     1       0.976  14.420  18.734  0.00  0.00    +0.000 A 
ATOM     19  C   UNL     1      -0.243  13.827  19.046  0.00  0.00    +0.000 A 
ATOM     20  C   UNL     1      -0.347  12.433  19.099  0.00  0.00    +0.000 A 
ENDBRANCH  12  15
ENDBRANCH   1   8
BRANCH   5  21
ATOM     21  N   UNL     1       5.309   5.111  16.514  0.00  0.00    +0.000 N 
ATOM     22  H   UNL     1       5.341   5.156  15.497  0.00  0.00    +0.000 HD
BRANCH  21  23
ATOM     23  S   UNL     1       6.761   4.753  17.270  0.00  0.00    +0.000 S 
ATOM     24  O   UNL     1       6.418   4.063  18.495  0.00  0.00    +0.000 OA
ATOM     25  O   UNL     1       7.671   4.178  16.304  0.00  0.00    +0.000 OA
BRANCH  23  26
ATOM     26  C   UNL     1       7.386   6.358  17.728  0.00  0.00    +0.000 A 
ATOM     27  C   UNL     1       8.165   6.493  18.884  0.00  0.00    +0.000 A 
ATOM     28  C   UNL     1       8.646   7.754  19.244  0.00  0.00    +0.000 A 
ATOM     29  C   UNL     1       8.347   8.856  18.448  0.00  0.00    +0.000 A 
ATOM     30  F   UNL     1       8.802  10.065  18.801  0.00  0.00    +0.000 F 
ATOM     31  C   UNL     1       7.584   8.725  17.290  0.00  0.00    +0.000 A 
ATOM     32  C   UNL     1       7.112   7.467  16.917  0.00  0.00    +0.000 A 
ENDBRANCH  23  26
ENDBRANCH  21  23
ENDBRANCH   5  21
TORSDOF 5
ENDMDL
MODEL 7
REMARK VINA RESULT:      -7.9      2.740      4.622
REMARK  Name = 
REMARK  5 active torsions:
REMARK  status: ('A' for Active; 'I' for Inactive)
REMARK    1  A    between atoms: C_2  and  C_3
REMARK    2  A    between atoms: C_7  and  N_8
REMARK    3  A    between atoms: N_8  and  S_9
REMARK    4  A    between atoms: S_9  and  C_12
REMARK    5  A    between atoms: N_23  and  C_24
REMARK                            x       y       z     vdW  Elec       q    Type
REMARK                         _______ _______ _______ _____ _____    ______ ____
ROOT
ATOM      1  C   UNL     1       1.147   9.168  19.583  0.00  0.00    +0.000 A 
ATOM      2  C   UNL     1       1.519   9.386  18.252  0.00  0.00    +0.000 A 
ATOM      3  C   UNL     1       2.344   8.469  17.594  0.00  0.00    +0.000 A 
ATOM      4  C   UNL     1       2.789   7.327  18.262  0.00  0.00    +0.000 A 
ATOM      5  C   UNL     1       2.451   7.132  19.597  0.00  0.00    +0.000 A 
ATOM      6  C   UNL     1       1.678   8.073  20.267  0.00  0.00    +0.000 A 
ENDROOT
BRANCH   1   8
ATOM      7  O   UNL     1      -0.701   9.680  20.887  0.00  0.00    +0.000 OA
ATOM      8  C   UNL     1       0.235  10.143  20.243  0.00  0.00    +0.000 C 
ATOM      9  N   UNL     1       0.463  11.514  20.128  0.00  0.00    +0.000 N 
ATOM     10  C   UNL     1       1.585  12.208  19.474  0.00  0.00    +0.000 C 
ATOM     11  C   UNL     1       1.043  13.095  18.340  0.00  0.00    +0.000 C 
ATOM     12  N   UNL     1       0.088  14.065  18.894  0.00  0.00    +0.000 N 
ATOM     13  C   UNL     1      -1.028  13.473  19.666  0.00  0.00    +0.000 C 
ATOM     14  C   UNL     1      -0.509  12.452  20.710  0.00  0.00    +0.000 C 
BRANCH  12  15
ATOM     15  C   UNL     1       0.355  15.420  18.917  0.00  0.00    +0.000 A 
ATOM     16  C   UNL     1      -0.681  16.364  18.874  0.00  0.00    +0.000 A 
ATOM     17  C   UNL     1      -0.426  17.741  18.841  0.00  0.00    +0.000 A 
ATOM     18  C   UNL     1       0.882  18.210  18.854  0.00  0.00    +0.000 A 
ATOM     19  C   UNL     1       1.932  17.299  18.908  0.00  0.00    +0.000 A 
ATOM     20  C   UNL     1       1.665  15.926  18.941  0.00  0.00    +0.000 A 
ENDBRANCH  12  15
ENDBRANCH   1   8
BRANCH   5  21
ATOM     21  N   UNL     1       2.867   5.953  20.259  0.00  0.00    +0.000 N 
ATOM     22  H   UNL     1       3.542   6.009  21.020  0.00  0.00    +0.000 HD
BRANCH  21  23
ATOM     23  S   UNL     1       2.755   4.465  19.496  0.00  0.00    +0.000 S 
ATOM     24  O   UNL     1       2.988   3.468  20.520  0.00  0.00    +0.000 OA
ATOM     25  O   UNL     1       1.567   4.442  18.671  0.00  0.00    +0.000 OA
BRANCH  23  26
ATOM     26  C   UNL     1       4.175   4.454  18.419  0.00  0.00    +0.000 A 
ATOM     27  C   UNL     1       4.025   4.070  17.081  0.00  0.00    +0.000 A 
ATOM     28  C   UNL     1       5.142   4.055  16.242  0.00  0.00    +0.000 A 
ATOM     29  C   UNL     1       6.385   4.425  16.747  0.00  0.00    +0.000 A 
ATOM     30  F   UNL     1       7.456   4.400  15.942  0.00  0.00    +0.000 F 
ATOM     31  C   UNL     1       6.537   4.821  18.073  0.00  0.00    +0.000 A 
ATOM     32  C   UNL     1       5.424   4.852  18.914  0.00  0.00    +0.000 A 
ENDBRANCH  23  26
ENDBRANCH  21  23
ENDBRANCH   5  21
TORSDOF 5
ENDMDL
MODEL 8
REMARK VINA RESULT:      -7.7      2.805      3.833
REMARK  Name = 
REMARK  5 active torsions:
REMARK  status: ('A' for Active; 'I' for Inactive)
REMARK    1  A    between atoms: C_2  and  C_3
REMARK    2  A    between atoms: C_7  and  N_8
REMARK    3  A    between atoms: N_8  and  S_9
REMARK    4  A    between atoms: S_9  and  C_12
REMARK    5  A    between atoms: N_23  and  C_24
REMARK                            x       y       z     vdW  Elec       q    Type
REMARK                         _______ _______ _______ _____ _____    ______ ____
ROOT
ATOM      1  C   UNL     1       2.014   7.759  19.113  0.00  0.00    +0.000 A 
ATOM      2  C   UNL     1       1.822   7.253  20.404  0.00  0.00    +0.000 A 
ATOM      3  C   UNL     1       2.080   5.906  20.676  0.00  0.00    +0.000 A 
ATOM      4  C   UNL     1       2.542   5.066  19.662  0.00  0.00    +0.000 A 
ATOM      5  C   UNL     1       2.694   5.561  18.371  0.00  0.00    +0.000 A 
ATOM      6  C   UNL     1       2.383   6.887  18.088  0.00  0.00    +0.000 A 
ENDROOT
BRANCH   1   8
ATOM      7  O   UNL     1       2.395   9.728  17.949  0.00  0.00    +0.000 OA
ATOM      8  C   UNL     1       1.768   9.207  18.866  0.00  0.00    +0.000 C 
ATOM      9  N   UNL     1       0.854   9.912  19.647  0.00  0.00    +0.000 N 
ATOM     10  C   UNL     1      -0.032   9.406  20.709  0.00  0.00    +0.000 C 
ATOM     11  C   UNL     1       0.306  10.112  22.033  0.00  0.00    +0.000 C 
ATOM     12  N   UNL     1       0.139  11.563  21.869  0.00  0.00    +0.000 N 
ATOM     13  C   UNL     1       0.908  12.160  20.753  0.00  0.00    +0.000 C 
ATOM     14  C   UNL     1       0.703  11.361  19.440  0.00  0.00    +0.000 C 
BRANCH  12  15
ATOM     15  C   UNL     1      -0.853  12.263  22.529  0.00  0.00    +0.000 A 
ATOM     16  C   UNL     1      -2.022  11.624  22.966  0.00  0.00    +0.000 A 
ATOM     17  C   UNL     1      -3.062  12.329  23.587  0.00  0.00    +0.000 A 
ATOM     18  C   UNL     1      -2.954  13.699  23.789  0.00  0.00    +0.000 A 
ATOM     19  C   UNL     1      -1.802  14.360  23.377  0.00  0.00    +0.000 A 
ATOM     20  C   UNL     1      -0.770  13.646  22.759  0.00  0.00    +0.000 A 
ENDBRANCH  12  15
ENDBRANCH   1   8
BRANCH   5  21
ATOM     21  N   UNL     1       3.204   4.720  17.354  0.00  0.00    +0.000 N 
ATOM     22  H   UNL     1       2.579   4.354  16.637  0.00  0.00    +0.000 HD
BRANCH  21  23
ATOM     23  S   UNL     1       4.616   3.851  17.598  0.00  0.00    +0.000 S 
ATOM     24  O   UNL     1       4.449   3.154  18.856  0.00  0.00    +0.000 OA
ATOM     25  O   UNL     1       4.957   3.148  16.381  0.00  0.00    +0.000 OA
BRANCH  23  26
ATOM     26  C   UNL     1       5.836   5.124  17.860  0.00  0.00    +0.000 A 
ATOM     27  C   UNL     1       6.679   5.055  18.976  0.00  0.00    +0.000 A 
ATOM     28  C   UNL     1       7.627   6.059  19.182  0.00  0.00    +0.000 A 
ATOM     29  C   UNL     1       7.723   7.111  18.275  0.00  0.00    +0.000 A 
ATOM     30  F   UNL     1       8.628   8.077  18.481  0.00  0.00    +0.000 F 
ATOM     31  C   UNL     1       6.896   7.176  17.156  0.00  0.00    +0.000 A 
ATOM     32  C   UNL     1       5.956   6.170  16.936  0.00  0.00    +0.000 A 
ENDBRANCH  23  26
ENDBRANCH  21  23
ENDBRANCH   5  21
TORSDOF 5
ENDMDL
MODEL 9
REMARK VINA RESULT:      -7.7      2.758      4.324
REMARK  Name = 
REMARK  5 active torsions:
REMARK  status: ('A' for Active; 'I' for Inactive)
REMARK    1  A    between atoms: C_2  and  C_3
REMARK    2  A    between atoms: C_7  and  N_8
REMARK    3  A    between atoms: N_8  and  S_9
REMARK    4  A    between atoms: S_9  and  C_12
REMARK    5  A    between atoms: N_23  and  C_24
REMARK                            x       y       z     vdW  Elec       q    Type
REMARK                         _______ _______ _______ _____ _____    ______ ____
ROOT
ATOM      1  C   UNL     1       1.219   8.655  19.913  0.00  0.00    +0.000 A 
ATOM      2  C   UNL     1       1.455   9.084  18.601  0.00  0.00    +0.000 A 
ATOM      3  C   UNL     1       2.342   8.380  17.781  0.00  0.00    +0.000 A 
ATOM      4  C   UNL     1       2.984   7.239  18.265  0.00  0.00    +0.000 A 
ATOM      5  C   UNL     1       2.779   6.838  19.581  0.00  0.00    +0.000 A 
ATOM      6  C   UNL     1       1.941   7.571  20.414  0.00  0.00    +0.000 A 
ENDROOT
BRANCH   1   8
ATOM      7  O   UNL     1      -0.475   8.742  21.493  0.00  0.00    +0.000 OA
ATOM      8  C   UNL     1       0.240   9.405  20.747  0.00  0.00    +0.000 C 
ATOM      9  N   UNL     1       0.166  10.794  20.675  0.00  0.00    +0.000 N 
ATOM     10  C   UNL     1       1.014  11.721  19.905  0.00  0.00    +0.000 C 
ATOM     11  C   UNL     1       0.138  12.503  18.911  0.00  0.00    +0.000 C 
ATOM     12  N   UNL     1      -0.898  13.240  19.647  0.00  0.00    +0.000 N 
ATOM     13  C   UNL     1      -1.742  12.412  20.538  0.00  0.00    +0.000 C 
ATOM     14  C   UNL     1      -0.875  11.497  21.440  0.00  0.00    +0.000 C 
BRANCH  12  15
ATOM     15  C   UNL     1      -0.910  14.621  19.704  0.00  0.00    +0.000 A 
ATOM     16  C   UNL     1      -0.074  15.388  18.880  0.00  0.00    +0.000 A 
ATOM     17  C   UNL     1      -0.034  16.786  18.965  0.00  0.00    +0.000 A 
ATOM     18  C   UNL     1      -0.837  17.454  19.880  0.00  0.00    +0.000 A 
ATOM     19  C   UNL     1      -1.685  16.722  20.705  0.00  0.00    +0.000 A 
ATOM     20  C   UNL     1      -1.718  15.327  20.611  0.00  0.00    +0.000 A 
ENDBRANCH  12  15
ENDBRANCH   1   8
BRANCH   5  21
ATOM     21  N   UNL     1       3.396   5.657  20.057  0.00  0.00    +0.000 N 
ATOM     22  H   UNL     1       4.208   5.720  20.670  0.00  0.00    +0.000 HD
BRANCH  21  23
ATOM     23  S   UNL     1       3.228   4.213  19.222  0.00  0.00    +0.000 S 
ATOM     24  O   UNL     1       3.564   3.163  20.161  0.00  0.00    +0.000 OA
ATOM     25  O   UNL     1       1.969   4.221  18.510  0.00  0.00    +0.000 OA
BRANCH  23  26
ATOM     26  C   UNL     1       4.542   4.285  18.020  0.00  0.00    +0.000 A 
ATOM     27  C   UNL     1       5.843   4.596  18.435  0.00  0.00    +0.000 A 
ATOM     28  C   UNL     1       6.868   4.659  17.488  0.00  0.00    +0.000 A 
ATOM     29  C   UNL     1       6.583   4.409  16.149  0.00  0.00    +0.000 A 
ATOM     30  F   UNL     1       7.567   4.479  15.243  0.00  0.00    +0.000 F 
ATOM     31  C   UNL     1       5.294   4.085  15.734  0.00  0.00    +0.000 A 
ATOM     32  C   UNL     1       4.267   4.006  16.675  0.00  0.00    +0.000 A 
ENDBRANCH  23  26
ENDBRANCH  21  23
ENDBRANCH   5  21
TORSDOF 5
ENDMDL
