MODEL 1
REMARK VINA RESULT:      -7.1      0.000      0.000
REMARK  Name = 
REMARK  18 active torsions:
REMARK  status: ('A' for Active; 'I' for Inactive)
REMARK    1  A    between atoms: C_1  and  C_2
REMARK    2  A    between atoms: C_2  and  C_3
REMARK    3  A    between atoms: C_3  and  C_4
REMARK    4  A    between atoms: C_4  and  C_5
REMARK    5  A    between atoms: C_5  and  C_6
REMARK    6  A    between atoms: C_6  and  C_7
REMARK    7  A    between atoms: C_7  and  C_8
REMARK    8  A    between atoms: C_8  and  C_9
REMARK    9  A    between atoms: C_12  and  C_13
REMARK   10  A    between atoms: C_13  and  C_14
REMARK   11  A    between atoms: C_14  and  C_15
REMARK   12  A    between atoms: C_15  and  C_16
REMARK   13  A    between atoms: C_15  and  C_22
REMARK   14  A    between atoms: C_15  and  N_24
REMARK   15  A    between atoms: C_17  and  P_18
REMARK   16  A    between atoms: P_18  and  O_20
REMARK   17  A    between atoms: P_18  and  O_21
REMARK   18  A    between atoms: C_22  and  O_23
REMARK                            x       y       z     vdW  Elec       q    Type
REMARK                         _______ _______ _______ _____ _____    ______ ____
ROOT
ATOM      1  C   UNL     1       4.989   5.829  16.574  0.00  0.00    +0.000 C 
ENDROOT
BRANCH   1   2
ATOM      2  C   UNL     1       6.251   4.956  16.413  0.00  0.00    +0.000 C 
BRANCH   2   3
ATOM      3  N   UNL     1       7.398   5.844  16.036  0.00  0.00    +0.000 NA
ATOM      4  N   UNL     1       7.527   6.943  16.642  0.00  0.00    +0.000 NA
ATOM      5  N   UNL     1       7.682   7.911  17.179  0.00  0.00    +0.000 NA
ENDBRANCH   2   3
BRANCH   2   6
ATOM      6  C   UNL     1       6.006   3.887  15.263  0.00  0.00    +0.000 C 
ATOM      7  C   UNL     1       5.653   4.168  14.005  0.00  0.00    +0.000 C 
BRANCH   7   8
ATOM      8  P   UNL     1       5.759   3.426  12.444  0.00  0.00    +0.000 P 
ATOM      9  O   UNL     1       4.611   3.643  11.507  0.00  0.00    +0.000 OA
BRANCH   8  10
ATOM     10  O   UNL     1       6.224   1.929  12.072  0.00  0.00    +0.000 OA
ATOM     11  H   UNL     1       7.055   1.827  12.600  0.00  0.00    +0.000 HD
ENDBRANCH   8  10
BRANCH   8  12
ATOM     12  O   UNL     1       7.044   4.184  11.851  0.00  0.00    +0.000 OA
ATOM     13  H   UNL     1       7.814   3.592  11.972  0.00  0.00    +0.000 HD
ENDBRANCH   8  12
ENDBRANCH   7   8
ENDBRANCH   2   6
BRANCH   2  14
ATOM     14  C   UNL     1       6.648   4.212  17.740  0.00  0.00    +0.000 C 
BRANCH  14  15
ATOM     15  O   UNL     1       7.216   5.076  18.731  0.00  0.00    +0.000 OA
ATOM     16  H   UNL     1       7.899   4.578  19.216  0.00  0.00    +0.000 HD
ENDBRANCH  14  15
ENDBRANCH   2  14
ENDBRANCH   1   2
BRANCH   1  17
ATOM     17  C   UNL     1       3.849   5.108  17.298  0.00  0.00    +0.000 C 
BRANCH  17  21
ATOM     18  C   UNL     1       1.788   7.649  20.080  0.00  0.00    +0.000 A 
ATOM     19  C   UNL     1       2.013   6.300  20.382  0.00  0.00    +0.000 A 
ATOM     20  C   UNL     1       2.690   5.488  19.486  0.00  0.00    +0.000 A 
ATOM     21  C   UNL     1       3.107   5.998  18.253  0.00  0.00    +0.000 A 
ATOM     22  C   UNL     1       2.868   7.343  17.944  0.00  0.00    +0.000 A 
ATOM     23  C   UNL     1       2.208   8.165  18.852  0.00  0.00    +0.000 A 
BRANCH  18  24
ATOM     24  C   UNL     1       1.181   8.553  21.110  0.00  0.00    +0.000 C 
BRANCH  24  25
ATOM     25  C   UNL     1       0.799   9.870  20.446  0.00  0.00    +0.000 C 
BRANCH  25  26
ATOM     26  C   UNL     1      -0.596   9.790  19.863  0.00  0.00    +0.000 C 
BRANCH  26  27
ATOM     27  C   UNL     1      -0.819  10.956  18.915  0.00  0.00    +0.000 C 
BRANCH  27  28
ATOM     28  C   UNL     1      -1.455  10.456  17.631  0.00  0.00    +0.000 C 
BRANCH  28  29
ATOM     29  C   UNL     1      -2.921  10.118  17.858  0.00  0.00    +0.000 C 
BRANCH  29  31
ATOM     30  C   UNL     1      -2.906   9.887  15.366  0.00  0.00    +0.000 C 
ATOM     31  C   UNL     1      -3.715  10.318  16.574  0.00  0.00    +0.000 C 
ENDBRANCH  29  31
ENDBRANCH  28  29
ENDBRANCH  27  28
ENDBRANCH  26  27
ENDBRANCH  25  26
ENDBRANCH  24  25
ENDBRANCH  18  24
ENDBRANCH  17  21
ENDBRANCH   1  17
TORSDOF 17
ENDMDL
MODEL 2
REMARK VINA RESULT:      -7.0      3.033      4.133
REMARK  Name = 
REMARK  18 active torsions:
REMARK  status: ('A' for Active; 'I' for Inactive)
REMARK    1  A    between atoms: C_1  and  C_2
REMARK    2  A    between atoms: C_2  and  C_3
REMARK    3  A    between atoms: C_3  and  C_4
REMARK    4  A    between atoms: C_4  and  C_5
REMARK    5  A    between atoms: C_5  and  C_6
REMARK    6  A    between atoms: C_6  and  C_7
REMARK    7  A    between atoms: C_7  and  C_8
REMARK    8  A    between atoms: C_8  and  C_9
REMARK    9  A    between atoms: C_12  and  C_13
REMARK   10  A    between atoms: C_13  and  C_14
REMARK   11  A    between atoms: C_14  and  C_15
REMARK   12  A    between atoms: C_15  and  C_16
REMARK   13  A    between atoms: C_15  and  C_22
REMARK   14  A    between atoms: C_15  and  N_24
REMARK   15  A    between atoms: C_17  and  P_18
REMARK   16  A    between atoms: P_18  and  O_20
REMARK   17  A    between atoms: P_18  and  O_21
REMARK   18  A    between atoms: C_22  and  O_23
REMARK                            x       y       z     vdW  Elec       q    Type
REMARK                         _______ _______ _______ _____ _____    ______ ____
ROOT
ATOM      1  C   UNL     1       2.101   4.928  19.118  0.00  0.00    +0.000 C 
ENDROOT
BRANCH   1   2
ATOM      2  C   UNL     1       3.040   3.724  18.901  0.00  0.00    +0.000 C 
BRANCH   2   3
ATOM      3  N   UNL     1       3.232   3.028  20.214  0.00  0.00    +0.000 NA
ATOM      4  N   UNL     1       4.262   2.316  20.368  0.00  0.00    +0.000 NA
ATOM      5  N   UNL     1       5.178   1.699  20.543  0.00  0.00    +0.000 NA
ENDBRANCH   2   3
BRANCH   2   6
ATOM      6  C   UNL     1       4.443   4.243  18.365  0.00  0.00    +0.000 C 
ATOM      7  C   UNL     1       5.009   3.892  17.206  0.00  0.00    +0.000 C 
BRANCH   7   8
ATOM      8  P   UNL     1       6.174   4.535  16.097  0.00  0.00    +0.000 P 
ATOM      9  O   UNL     1       7.589   4.636  16.578  0.00  0.00    +0.000 OA
BRANCH   8  10
ATOM     10  O   UNL     1       6.046   5.825  15.141  0.00  0.00    +0.000 OA
ATOM     11  H   UNL     1       5.509   5.478  14.385  0.00  0.00    +0.000 HD
ENDBRANCH   8  10
BRANCH   8  12
ATOM     12  O   UNL     1       6.113   3.426  14.939  0.00  0.00    +0.000 OA
ATOM     13  H   UNL     1       5.607   2.665  15.289  0.00  0.00    +0.000 HD
ENDBRANCH   8  12
ENDBRANCH   7   8
ENDBRANCH   2   6
BRANCH   2  14
ATOM     14  C   UNL     1       2.454   2.671  17.891  0.00  0.00    +0.000 C 
BRANCH  14  15
ATOM     15  O   UNL     1       2.822   1.321  18.195  0.00  0.00    +0.000 OA
ATOM     16  H   UNL     1       3.715   1.328  18.585  0.00  0.00    +0.000 HD
ENDBRANCH  14  15
ENDBRANCH   2  14
ENDBRANCH   1   2
BRANCH   1  17
ATOM     17  C   UNL     1       2.773   6.088  19.857  0.00  0.00    +0.000 C 
BRANCH  17  21
ATOM     18  C   UNL     1       0.922   9.855  18.942  0.00  0.00    +0.000 A 
ATOM     19  C   UNL     1       1.608   9.140  17.951  0.00  0.00    +0.000 A 
ATOM     20  C   UNL     1       2.192   7.920  18.249  0.00  0.00    +0.000 A 
ATOM     21  C   UNL     1       2.144   7.418  19.552  0.00  0.00    +0.000 A 
ATOM     22  C   UNL     1       1.472   8.139  20.547  0.00  0.00    +0.000 A 
ATOM     23  C   UNL     1       0.866   9.354  20.245  0.00  0.00    +0.000 A 
BRANCH  18  24
ATOM     24  C   UNL     1       0.175  11.103  18.580  0.00  0.00    +0.000 C 
BRANCH  24  25
ATOM     25  C   UNL     1      -1.291  10.926  18.957  0.00  0.00    +0.000 C 
BRANCH  25  26
ATOM     26  C   UNL     1      -2.036  10.180  17.872  0.00  0.00    +0.000 C 
BRANCH  26  27
ATOM     27  C   UNL     1      -2.442  11.151  16.775  0.00  0.00    +0.000 C 
BRANCH  27  28
ATOM     28  C   UNL     1      -3.935  11.411  16.851  0.00  0.00    +0.000 C 
BRANCH  28  29
ATOM     29  C   UNL     1      -4.600  10.432  17.806  0.00  0.00    +0.000 C 
BRANCH  29  31
ATOM     30  C   UNL     1      -5.167  12.434  19.197  0.00  0.00    +0.000 C 
ATOM     31  C   UNL     1      -5.684  11.133  18.614  0.00  0.00    +0.000 C 
ENDBRANCH  29  31
ENDBRANCH  28  29
ENDBRANCH  27  28
ENDBRANCH  26  27
ENDBRANCH  25  26
ENDBRANCH  24  25
ENDBRANCH  18  24
ENDBRANCH  17  21
ENDBRANCH   1  17
TORSDOF 17
ENDMDL
MODEL 3
REMARK VINA RESULT:      -6.9      3.015      3.997
REMARK  Name = 
REMARK  18 active torsions:
REMARK  status: ('A' for Active; 'I' for Inactive)
REMARK    1  A    between atoms: C_1  and  C_2
REMARK    2  A    between atoms: C_2  and  C_3
REMARK    3  A    between atoms: C_3  and  C_4
REMARK    4  A    between atoms: C_4  and  C_5
REMARK    5  A    between atoms: C_5  and  C_6
REMARK    6  A    between atoms: C_6  and  C_7
REMARK    7  A    between atoms: C_7  and  C_8
REMARK    8  A    between atoms: C_8  and  C_9
REMARK    9  A    between atoms: C_12  and  C_13
REMARK   10  A    between atoms: C_13  and  C_14
REMARK   11  A    between atoms: C_14  and  C_15
REMARK   12  A    between atoms: C_15  and  C_16
REMARK   13  A    between atoms: C_15  and  C_22
REMARK   14  A    between atoms: C_15  and  N_24
REMARK   15  A    between atoms: C_17  and  P_18
REMARK   16  A    between atoms: P_18  and  O_20
REMARK   17  A    between atoms: P_18  and  O_21
REMARK   18  A    between atoms: C_22  and  O_23
REMARK                            x       y       z     vdW  Elec       q    Type
REMARK                         _______ _______ _______ _____ _____    ______ ____
ROOT
ATOM      1  C   UNL     1       2.426   4.964  18.741  0.00  0.00    +0.000 C 
ENDROOT
BRANCH   1   2
ATOM      2  C   UNL     1       3.263   3.668  18.711  0.00  0.00    +0.000 C 
BRANCH   2   3
ATOM      3  N   UNL     1       3.516   3.232  20.122  0.00  0.00    +0.000 NA
ATOM      4  N   UNL     1       4.388   2.343  20.325  0.00  0.00    +0.000 NA
ATOM      5  N   UNL     1       5.172   1.576  20.539  0.00  0.00    +0.000 NA
ENDBRANCH   2   3
BRANCH   2   6
ATOM      6  C   UNL     1       4.648   3.955  17.987  0.00  0.00    +0.000 C 
ATOM      7  C   UNL     1       4.804   4.216  16.685  0.00  0.00    +0.000 C 
BRANCH   7   8
ATOM      8  P   UNL     1       5.954   5.007  15.661  0.00  0.00    +0.000 P 
ATOM      9  O   UNL     1       5.584   6.362  15.140  0.00  0.00    +0.000 OA
BRANCH   8  10
ATOM     10  O   UNL     1       6.801   4.392  14.437  0.00  0.00    +0.000 OA
ATOM     11  H   UNL     1       7.411   5.137  14.204  0.00  0.00    +0.000 HD
ENDBRANCH   8  10
BRANCH   8  12
ATOM     12  O   UNL     1       7.180   5.178  16.683  0.00  0.00    +0.000 OA
ATOM     13  H   UNL     1       7.949   4.712  16.297  0.00  0.00    +0.000 HD
ENDBRANCH   8  12
ENDBRANCH   7   8
ENDBRANCH   2   6
BRANCH   2  14
ATOM     14  C   UNL     1       2.526   2.488  17.978  0.00  0.00    +0.000 C 
BRANCH  14  15
ATOM     15  O   UNL     1       3.187   1.225  18.123  0.00  0.00    +0.000 OA
ATOM     16  H   UNL     1       3.831   1.299  18.850  0.00  0.00    +0.000 HD
ENDBRANCH  14  15
ENDBRANCH   2  14
ENDBRANCH   1   2
BRANCH   1  17
ATOM     17  C   UNL     1       3.259   6.209  19.060  0.00  0.00    +0.000 C 
BRANCH  17  21
ATOM     18  C   UNL     1       0.900   9.796  18.941  0.00  0.00    +0.000 A 
ATOM     19  C   UNL     1       1.647   9.399  17.824  0.00  0.00    +0.000 A 
ATOM     20  C   UNL     1       2.396   8.234  17.864  0.00  0.00    +0.000 A 
ATOM     21  C   UNL     1       2.451   7.475  19.036  0.00  0.00    +0.000 A 
ATOM     22  C   UNL     1       1.717   7.879  20.158  0.00  0.00    +0.000 A 
ATOM     23  C   UNL     1       0.947   9.037  20.113  0.00  0.00    +0.000 A 
BRANCH  18  24
ATOM     24  C   UNL     1      -0.016  10.979  18.845  0.00  0.00    +0.000 C 
BRANCH  24  25
ATOM     25  C   UNL     1      -1.455  10.483  18.774  0.00  0.00    +0.000 C 
BRANCH  25  26
ATOM     26  C   UNL     1      -1.728   9.821  17.441  0.00  0.00    +0.000 C 
BRANCH  26  27
ATOM     27  C   UNL     1      -2.843  10.564  16.723  0.00  0.00    +0.000 C 
BRANCH  27  28
ATOM     28  C   UNL     1      -3.781  11.184  17.743  0.00  0.00    +0.000 C 
BRANCH  28  29
ATOM     29  C   UNL     1      -4.968  11.835  17.050  0.00  0.00    +0.000 C 
BRANCH  29  31
ATOM     30  C   UNL     1      -6.779  10.882  18.491  0.00  0.00    +0.000 C 
ATOM     31  C   UNL     1      -6.064  12.148  18.060  0.00  0.00    +0.000 C 
ENDBRANCH  29  31
ENDBRANCH  28  29
ENDBRANCH  27  28
ENDBRANCH  26  27
ENDBRANCH  25  26
ENDBRANCH  24  25
ENDBRANCH  18  24
ENDBRANCH  17  21
ENDBRANCH   1  17
TORSDOF 17
ENDMDL
MODEL 4
REMARK VINA RESULT:      -6.9      3.051      4.225
REMARK  Name = 
REMARK  18 active torsions:
REMARK  status: ('A' for Active; 'I' for Inactive)
REMARK    1  A    between atoms: C_1  and  C_2
REMARK    2  A    between atoms: C_2  and  C_3
REMARK    3  A    between atoms: C_3  and  C_4
REMARK    4  A    between atoms: C_4  and  C_5
REMARK    5  A    between atoms: C_5  and  C_6
REMARK    6  A    between atoms: C_6  and  C_7
REMARK    7  A    between atoms: C_7  and  C_8
REMARK    8  A    between atoms: C_8  and  C_9
REMARK    9  A    between atoms: C_12  and  C_13
REMARK   10  A    between atoms: C_13  and  C_14
REMARK   11  A    between atoms: C_14  and  C_15
REMARK   12  A    between atoms: C_15  and  C_16
REMARK   13  A    between atoms: C_15  and  C_22
REMARK   14  A    between atoms: C_15  and  N_24
REMARK   15  A    between atoms: C_17  and  P_18
REMARK   16  A    between atoms: P_18  and  O_20
REMARK   17  A    between atoms: P_18  and  O_21
REMARK   18  A    between atoms: C_22  and  O_23
REMARK                            x       y       z     vdW  Elec       q    Type
REMARK                         _______ _______ _______ _____ _____    ______ ____
ROOT
ATOM      1  C   UNL     1       2.254   5.535  18.763  0.00  0.00    +0.000 C 
ENDROOT
BRANCH   1   2
ATOM      2  C   UNL     1       3.099   4.325  18.315  0.00  0.00    +0.000 C 
BRANCH   2   3
ATOM      3  N   UNL     1       3.698   3.686  19.532  0.00  0.00    +0.000 NA
ATOM      4  N   UNL     1       2.918   3.213  20.403  0.00  0.00    +0.000 NA
ATOM      5  N   UNL     1       2.252   2.763  21.180  0.00  0.00    +0.000 NA
ENDBRANCH   2   3
BRANCH   2   6
ATOM      6  C   UNL     1       4.260   4.824  17.351  0.00  0.00    +0.000 C 
ATOM      7  C   UNL     1       5.514   5.096  17.723  0.00  0.00    +0.000 C 
BRANCH   7   8
ATOM      8  P   UNL     1       7.084   5.174  16.994  0.00  0.00    +0.000 P 
ATOM      9  O   UNL     1       7.806   6.484  17.070  0.00  0.00    +0.000 OA
BRANCH   8  10
ATOM     10  O   UNL     1       7.556   4.607  15.563  0.00  0.00    +0.000 OA
ATOM     11  H   UNL     1       7.434   5.392  14.972  0.00  0.00    +0.000 HD
ENDBRANCH   8  10
BRANCH   8  12
ATOM     12  O   UNL     1       7.874   4.109  17.898  0.00  0.00    +0.000 OA
ATOM     13  H   UNL     1       8.679   3.849  17.407  0.00  0.00    +0.000 HD
ENDBRANCH   8  12
ENDBRANCH   7   8
ENDBRANCH   2   6
BRANCH   2  14
ATOM     14  C   UNL     1       2.246   3.228  17.579  0.00  0.00    +0.000 C 
BRANCH  14  15
ATOM     15  O   UNL     1       0.977   2.982  18.196  0.00  0.00    +0.000 OA
ATOM     16  H   UNL     1       0.287   3.039  17.510  0.00  0.00    +0.000 HD
ENDBRANCH  14  15
ENDBRANCH   2  14
ENDBRANCH   1   2
BRANCH   1  17
ATOM     17  C   UNL     1       2.531   6.797  17.944  0.00  0.00    +0.000 C 
BRANCH  17  21
ATOM     18  C   UNL     1       0.990  10.363  19.776  0.00  0.00    +0.000 A 
ATOM     19  C   UNL     1       1.374  10.365  18.429  0.00  0.00    +0.000 A 
ATOM     20  C   UNL     1       1.859   9.209  17.840  0.00  0.00    +0.000 A 
ATOM     21  C   UNL     1       2.015   8.046  18.600  0.00  0.00    +0.000 A 
ATOM     22  C   UNL     1       1.645   8.047  19.951  0.00  0.00    +0.000 A 
ATOM     23  C   UNL     1       1.138   9.202  20.538  0.00  0.00    +0.000 A 
BRANCH  18  24
ATOM     24  C   UNL     1       0.337  11.576  20.368  0.00  0.00    +0.000 C 
BRANCH  24  25
ATOM     25  C   UNL     1      -1.168  11.347  20.423  0.00  0.00    +0.000 C 
BRANCH  25  26
ATOM     26  C   UNL     1      -1.896  12.369  19.576  0.00  0.00    +0.000 C 
BRANCH  26  27
ATOM     27  C   UNL     1      -2.266  11.748  18.239  0.00  0.00    +0.000 C 
BRANCH  27  28
ATOM     28  C   UNL     1      -2.655  10.295  18.441  0.00  0.00    +0.000 C 
BRANCH  28  29
ATOM     29  C   UNL     1      -3.148   9.688  17.136  0.00  0.00    +0.000 C 
BRANCH  29  31
ATOM     30  C   UNL     1      -3.076  10.070  14.664  0.00  0.00    +0.000 C 
ATOM     31  C   UNL     1      -2.312  10.193  15.968  0.00  0.00    +0.000 C 
ENDBRANCH  29  31
ENDBRANCH  28  29
ENDBRANCH  27  28
ENDBRANCH  26  27
ENDBRANCH  25  26
ENDBRANCH  24  25
ENDBRANCH  18  24
ENDBRANCH  17  21
ENDBRANCH   1  17
TORSDOF 17
ENDMDL
MODEL 5
REMARK VINA RESULT:      -6.9      3.229      4.485
REMARK  Name = 
REMARK  18 active torsions:
REMARK  status: ('A' for Active; 'I' for Inactive)
REMARK    1  A    between atoms: C_1  and  C_2
REMARK    2  A    between atoms: C_2  and  C_3
REMARK    3  A    between atoms: C_3  and  C_4
REMARK    4  A    between atoms: C_4  and  C_5
REMARK    5  A    between atoms: C_5  and  C_6
REMARK    6  A    between atoms: C_6  and  C_7
REMARK    7  A    between atoms: C_7  and  C_8
REMARK    8  A    between atoms: C_8  and  C_9
REMARK    9  A    between atoms: C_12  and  C_13
REMARK   10  A    between atoms: C_13  and  C_14
REMARK   11  A    between atoms: C_14  and  C_15
REMARK   12  A    between atoms: C_15  and  C_16
REMARK   13  A    between atoms: C_15  and  C_22
REMARK   14  A    between atoms: C_15  and  N_24
REMARK   15  A    between atoms: C_17  and  P_18
REMARK   16  A    between atoms: P_18  and  O_20
REMARK   17  A    between atoms: P_18  and  O_21
REMARK   18  A    between atoms: C_22  and  O_23
REMARK                            x       y       z     vdW  Elec       q    Type
REMARK                         _______ _______ _______ _____ _____    ______ ____
ROOT
ATOM      1  C   UNL     1       2.843   4.616  18.441  0.00  0.00    +0.000 C 
ENDROOT
BRANCH   1   2
ATOM      2  C   UNL     1       3.913   3.521  18.624  0.00  0.00    +0.000 C 
BRANCH   2   3
ATOM      3  N   UNL     1       4.024   3.203  20.085  0.00  0.00    +0.000 NA
ATOM      4  N   UNL     1       4.687   2.185  20.426  0.00  0.00    +0.000 NA
ATOM      5  N   UNL     1       5.288   1.304  20.760  0.00  0.00    +0.000 NA
ENDBRANCH   2   3
BRANCH   2   6
ATOM      6  C   UNL     1       5.309   4.057  18.089  0.00  0.00    +0.000 C 
ATOM      7  C   UNL     1       5.544   4.515  16.856  0.00  0.00    +0.000 C 
BRANCH   7   8
ATOM      8  P   UNL     1       6.673   5.565  16.067  0.00  0.00    +0.000 P 
ATOM      9  O   UNL     1       7.581   4.947  15.048  0.00  0.00    +0.000 OA
BRANCH   8  10
ATOM     10  O   UNL     1       7.612   6.701  16.716  0.00  0.00    +0.000 OA
ATOM     11  H   UNL     1       8.276   6.864  16.000  0.00  0.00    +0.000 HD
ENDBRANCH   8  10
BRANCH   8  12
ATOM     12  O   UNL     1       5.663   6.556  15.307  0.00  0.00    +0.000 OA
ATOM     13  H   UNL     1       4.759   6.343  15.613  0.00  0.00    +0.000 HD
ENDBRANCH   8  12
ENDBRANCH   7   8
ENDBRANCH   2   6
BRANCH   2  14
ATOM     14  C   UNL     1       3.547   2.185  17.878  0.00  0.00    +0.000 C 
BRANCH  14  15
ATOM     15  O   UNL     1       2.617   1.366  18.596  0.00  0.00    +0.000 OA
ATOM     16  H   UNL     1       1.744   1.799  18.569  0.00  0.00    +0.000 HD
ENDBRANCH  14  15
ENDBRANCH   2  14
ENDBRANCH   1   2
BRANCH   1  17
ATOM     17  C   UNL     1       2.580   5.418  19.718  0.00  0.00    +0.000 C 
BRANCH  17  21
ATOM     18  C   UNL     1       1.362   9.470  18.981  0.00  0.00    +0.000 A 
ATOM     19  C   UNL     1       1.189   8.895  20.246  0.00  0.00    +0.000 A 
ATOM     20  C   UNL     1       1.595   7.592  20.482  0.00  0.00    +0.000 A 
ATOM     21  C   UNL     1       2.134   6.826  19.444  0.00  0.00    +0.000 A 
ATOM     22  C   UNL     1       2.294   7.396  18.174  0.00  0.00    +0.000 A 
ATOM     23  C   UNL     1       1.906   8.711  17.942  0.00  0.00    +0.000 A 
BRANCH  18  24
ATOM     24  C   UNL     1       1.050  10.922  18.771  0.00  0.00    +0.000 C 
BRANCH  24  25
ATOM     25  C   UNL     1      -0.458  11.085  18.627  0.00  0.00    +0.000 C 
BRANCH  25  26
ATOM     26  C   UNL     1      -0.894  12.457  19.093  0.00  0.00    +0.000 C 
BRANCH  26  27
ATOM     27  C   UNL     1      -1.834  12.316  20.279  0.00  0.00    +0.000 C 
BRANCH  27  28
ATOM     28  C   UNL     1      -1.429  13.291  21.370  0.00  0.00    +0.000 C 
BRANCH  28  29
ATOM     29  C   UNL     1      -0.774  12.554  22.528  0.00  0.00    +0.000 C 
BRANCH  29  31
ATOM     30  C   UNL     1      -0.549  10.145  23.166  0.00  0.00    +0.000 C 
ATOM     31  C   UNL     1      -1.519  11.259  22.821  0.00  0.00    +0.000 C 
ENDBRANCH  29  31
ENDBRANCH  28  29
ENDBRANCH  27  28
ENDBRANCH  26  27
ENDBRANCH  25  26
ENDBRANCH  24  25
ENDBRANCH  18  24
ENDBRANCH  17  21
ENDBRANCH   1  17
TORSDOF 17
ENDMDL
MODEL 6
REMARK VINA RESULT:      -6.8      3.397      4.274
REMARK  Name = 
REMARK  18 active torsions:
REMARK  status: ('A' for Active; 'I' for Inactive)
REMARK    1  A    between atoms: C_1  and  C_2
REMARK    2  A    between atoms: C_2  and  C_3
REMARK    3  A    between atoms: C_3  and  C_4
REMARK    4  A    between atoms: C_4  and  C_5
REMARK    5  A    between atoms: C_5  and  C_6
REMARK    6  A    between atoms: C_6  and  C_7
REMARK    7  A    between atoms: C_7  and  C_8
REMARK    8  A    between atoms: C_8  and  C_9
REMARK    9  A    between atoms: C_12  and  C_13
REMARK   10  A    between atoms: C_13  and  C_14
REMARK   11  A    between atoms: C_14  and  C_15
REMARK   12  A    between atoms: C_15  and  C_16
REMARK   13  A    between atoms: C_15  and  C_22
REMARK   14  A    between atoms: C_15  and  N_24
REMARK   15  A    between atoms: C_17  and  P_18
REMARK   16  A    between atoms: P_18  and  O_20
REMARK   17  A    between atoms: P_18  and  O_21
REMARK   18  A    between atoms: C_22  and  O_23
REMARK                            x       y       z     vdW  Elec       q    Type
REMARK                         _______ _______ _______ _____ _____    ______ ____
ROOT
ATOM      1  C   UNL     1       2.367   4.210  19.658  0.00  0.00    +0.000 C 
ENDROOT
BRANCH   1   2
ATOM      2  C   UNL     1       3.456   3.520  18.811  0.00  0.00    +0.000 C 
BRANCH   2   3
ATOM      3  N   UNL     1       3.645   2.125  19.324  0.00  0.00    +0.000 NA
ATOM      4  N   UNL     1       4.491   1.935  20.240  0.00  0.00    +0.000 NA
ATOM      5  N   UNL     1       5.215   1.739  21.069  0.00  0.00    +0.000 NA
ENDBRANCH   2   3
BRANCH   2   6
ATOM      6  C   UNL     1       4.818   4.327  18.950  0.00  0.00    +0.000 C 
ATOM      7  C   UNL     1       5.845   4.268  18.097  0.00  0.00    +0.000 C 
BRANCH   7   8
ATOM      8  P   UNL     1       7.188   5.257  17.631  0.00  0.00    +0.000 P 
ATOM      9  O   UNL     1       7.797   6.123  18.692  0.00  0.00    +0.000 OA
BRANCH   8  10
ATOM     10  O   UNL     1       7.358   6.164  16.312  0.00  0.00    +0.000 OA
ATOM     11  H   UNL     1       6.426   6.438  16.120  0.00  0.00    +0.000 HD
ENDBRANCH   8  10
BRANCH   8  12
ATOM     12  O   UNL     1       8.254   4.126  17.231  0.00  0.00    +0.000 OA
ATOM     13  H   UNL     1       7.918   3.273  17.572  0.00  0.00    +0.000 HD
ENDBRANCH   8  12
ENDBRANCH   7   8
ENDBRANCH   2   6
BRANCH   2  14
ATOM     14  C   UNL     1       3.066   3.415  17.291  0.00  0.00    +0.000 C 
BRANCH  14  15
ATOM     15  O   UNL     1       1.685   3.695  17.036  0.00  0.00    +0.000 OA
ATOM     16  H   UNL     1       1.614   4.106  16.155  0.00  0.00    +0.000 HD
ENDBRANCH  14  15
ENDBRANCH   2  14
ENDBRANCH   1   2
BRANCH   1  17
ATOM     17  C   UNL     1       2.886   5.427  20.427  0.00  0.00    +0.000 C 
BRANCH  17  21
ATOM     18  C   UNL     1       1.458   9.113  18.747  0.00  0.00    +0.000 A 
ATOM     19  C   UNL     1       2.145   8.187  17.950  0.00  0.00    +0.000 A 
ATOM     20  C   UNL     1       2.592   6.995  18.495  0.00  0.00    +0.000 A 
ATOM     21  C   UNL     1       2.405   6.730  19.855  0.00  0.00    +0.000 A 
ATOM     22  C   UNL     1       1.732   7.662  20.655  0.00  0.00    +0.000 A 
ATOM     23  C   UNL     1       1.263   8.850  20.105  0.00  0.00    +0.000 A 
BRANCH  18  24
ATOM     24  C   UNL     1       0.856  10.335  18.121  0.00  0.00    +0.000 C 
BRANCH  24  25
ATOM     25  C   UNL     1       0.292  11.225  19.222  0.00  0.00    +0.000 C 
BRANCH  25  26
ATOM     26  C   UNL     1       0.038  12.623  18.701  0.00  0.00    +0.000 C 
BRANCH  26  27
ATOM     27  C   UNL     1      -1.415  12.999  18.944  0.00  0.00    +0.000 C 
BRANCH  27  28
ATOM     28  C   UNL     1      -2.210  11.758  19.304  0.00  0.00    +0.000 C 
BRANCH  28  29
ATOM     29  C   UNL     1      -3.132  11.363  18.160  0.00  0.00    +0.000 C 
BRANCH  29  31
ATOM     30  C   UNL     1      -2.637   9.906  16.187  0.00  0.00    +0.000 C 
ATOM     31  C   UNL     1      -2.819   9.949  17.692  0.00  0.00    +0.000 C 
ENDBRANCH  29  31
ENDBRANCH  28  29
ENDBRANCH  27  28
ENDBRANCH  26  27
ENDBRANCH  25  26
ENDBRANCH  24  25
ENDBRANCH  18  24
ENDBRANCH  17  21
ENDBRANCH   1  17
TORSDOF 17
ENDMDL
MODEL 7
REMARK VINA RESULT:      -6.8      3.564      4.713
REMARK  Name = 
REMARK  18 active torsions:
REMARK  status: ('A' for Active; 'I' for Inactive)
REMARK    1  A    between atoms: C_1  and  C_2
REMARK    2  A    between atoms: C_2  and  C_3
REMARK    3  A    between atoms: C_3  and  C_4
REMARK    4  A    between atoms: C_4  and  C_5
REMARK    5  A    between atoms: C_5  and  C_6
REMARK    6  A    between atoms: C_6  and  C_7
REMARK    7  A    between atoms: C_7  and  C_8
REMARK    8  A    between atoms: C_8  and  C_9
REMARK    9  A    between atoms: C_12  and  C_13
REMARK   10  A    between atoms: C_13  and  C_14
REMARK   11  A    between atoms: C_14  and  C_15
REMARK   12  A    between atoms: C_15  and  C_16
REMARK   13  A    between atoms: C_15  and  C_22
REMARK   14  A    between atoms: C_15  and  N_24
REMARK   15  A    between atoms: C_17  and  P_18
REMARK   16  A    between atoms: P_18  and  O_20
REMARK   17  A    between atoms: P_18  and  O_21
REMARK   18  A    between atoms: C_22  and  O_23
REMARK                            x       y       z     vdW  Elec       q    Type
REMARK                         _______ _______ _______ _____ _____    ______ ____
ROOT
ATOM      1  C   UNL     1       4.850   6.397  17.859  0.00  0.00    +0.000 C 
ENDROOT
BRANCH   1   2
ATOM      2  C   UNL     1       5.106   4.876  17.828  0.00  0.00    +0.000 C 
BRANCH   2   3
ATOM      3  N   UNL     1       5.671   4.515  16.487  0.00  0.00    +0.000 NA
ATOM      4  N   UNL     1       6.597   5.231  16.018  0.00  0.00    +0.000 NA
ATOM      5  N   UNL     1       7.437   5.831  15.587  0.00  0.00    +0.000 NA
ENDBRANCH   2   3
BRANCH   2   6
ATOM      6  C   UNL     1       3.732   4.109  18.050  0.00  0.00    +0.000 C 
ATOM      7  C   UNL     1       3.380   3.453  19.161  0.00  0.00    +0.000 C 
BRANCH   7   8
ATOM      8  P   UNL     1       1.922   2.952  19.950  0.00  0.00    +0.000 P 
ATOM      9  O   UNL     1       0.756   3.890  19.888  0.00  0.00    +0.000 OA
BRANCH   8  10
ATOM     10  O   UNL     1       1.746   2.286  21.406  0.00  0.00    +0.000 OA
ATOM     11  H   UNL     1       1.857   3.062  22.010  0.00  0.00    +0.000 HD
ENDBRANCH   8  10
BRANCH   8  12
ATOM     12  O   UNL     1       1.564   1.644  19.091  0.00  0.00    +0.000 OA
ATOM     13  H   UNL     1       0.759   1.250  19.481  0.00  0.00    +0.000 HD
ENDBRANCH   8  12
ENDBRANCH   7   8
ENDBRANCH   2   6
BRANCH   2  14
ATOM     14  C   UNL     1       6.143   4.412  18.916  0.00  0.00    +0.000 C 
BRANCH  14  15
ATOM     15  O   UNL     1       7.497   4.750  18.594  0.00  0.00    +0.000 OA
ATOM     16  H   UNL     1       7.679   4.451  17.684  0.00  0.00    +0.000 HD
ENDBRANCH  14  15
ENDBRANCH   2  14
ENDBRANCH   1   2
BRANCH   1  17
ATOM     17  C   UNL     1       3.495   6.790  17.267  0.00  0.00    +0.000 C 
BRANCH  17  21
ATOM     18  C   UNL     1       1.024   9.070  19.940  0.00  0.00    +0.000 A 
ATOM     19  C   UNL     1       1.271   9.524  18.638  0.00  0.00    +0.000 A 
ATOM     20  C   UNL     1       2.058   8.778  17.776  0.00  0.00    +0.000 A 
ATOM     21  C   UNL     1       2.653   7.593  18.217  0.00  0.00    +0.000 A 
ATOM     22  C   UNL     1       2.419   7.146  19.524  0.00  0.00    +0.000 A 
ATOM     23  C   UNL     1       1.612   7.883  20.384  0.00  0.00    +0.000 A 
BRANCH  18  24
ATOM     24  C   UNL     1       0.061   9.810  20.819  0.00  0.00    +0.000 C 
BRANCH  24  25
ATOM     25  C   UNL     1      -0.101   9.043  22.126  0.00  0.00    +0.000 C 
BRANCH  25  26
ATOM     26  C   UNL     1      -0.616   9.955  23.220  0.00  0.00    +0.000 C 
BRANCH  26  27
ATOM     27  C   UNL     1      -0.877  11.338  22.647  0.00  0.00    +0.000 C 
BRANCH  27  28
ATOM     28  C   UNL     1      -2.211  11.856  23.153  0.00  0.00    +0.000 C 
BRANCH  28  29
ATOM     29  C   UNL     1      -2.535  13.202  22.523  0.00  0.00    +0.000 C 
BRANCH  29  31
ATOM     30  C   UNL     1      -3.212  12.626  20.184  0.00  0.00    +0.000 C 
ATOM     31  C   UNL     1      -2.121  13.215  21.058  0.00  0.00    +0.000 C 
ENDBRANCH  29  31
ENDBRANCH  28  29
ENDBRANCH  27  28
ENDBRANCH  26  27
ENDBRANCH  25  26
ENDBRANCH  24  25
ENDBRANCH  18  24
ENDBRANCH  17  21
ENDBRANCH   1  17
TORSDOF 17
ENDMDL
MODEL 8
REMARK VINA RESULT:      -6.8      2.945      3.801
REMARK  Name = 
REMARK  18 active torsions:
REMARK  status: ('A' for Active; 'I' for Inactive)
REMARK    1  A    between atoms: C_1  and  C_2
REMARK    2  A    between atoms: C_2  and  C_3
REMARK    3  A    between atoms: C_3  and  C_4
REMARK    4  A    between atoms: C_4  and  C_5
REMARK    5  A    between atoms: C_5  and  C_6
REMARK    6  A    between atoms: C_6  and  C_7
REMARK    7  A    between atoms: C_7  and  C_8
REMARK    8  A    between atoms: C_8  and  C_9
REMARK    9  A    between atoms: C_12  and  C_13
REMARK   10  A    between atoms: C_13  and  C_14
REMARK   11  A    between atoms: C_14  and  C_15
REMARK   12  A    between atoms: C_15  and  C_16
REMARK   13  A    between atoms: C_15  and  C_22
REMARK   14  A    between atoms: C_15  and  N_24
REMARK   15  A    between atoms: C_17  and  P_18
REMARK   16  A    between atoms: P_18  and  O_20
REMARK   17  A    between atoms: P_18  and  O_21
REMARK   18  A    between atoms: C_22  and  O_23
REMARK                            x       y       z     vdW  Elec       q    Type
REMARK                         _______ _______ _______ _____ _____    ______ ____
ROOT
ATOM      1  C   UNL     1       2.477   5.055  19.216  0.00  0.00    +0.000 C 
ENDROOT
BRANCH   1   2
ATOM      2  C   UNL     1       3.308   3.782  18.952  0.00  0.00    +0.000 C 
BRANCH   2   3
ATOM      3  N   UNL     1       3.438   3.024  20.239  0.00  0.00    +0.000 NA
ATOM      4  N   UNL     1       4.395   2.211  20.358  0.00  0.00    +0.000 NA
ATOM      5  N   UNL     1       5.247   1.502  20.504  0.00  0.00    +0.000 NA
ENDBRANCH   2   3
BRANCH   2   6
ATOM      6  C   UNL     1       4.750   4.196  18.431  0.00  0.00    +0.000 C 
ATOM      7  C   UNL     1       5.262   3.888  17.235  0.00  0.00    +0.000 C 
BRANCH   7   8
ATOM      8  P   UNL     1       6.474   4.498  16.159  0.00  0.00    +0.000 P 
ATOM      9  O   UNL     1       7.892   4.465  16.641  0.00  0.00    +0.000 OA
BRANCH   8  10
ATOM     10  O   UNL     1       6.446   5.843  15.273  0.00  0.00    +0.000 OA
ATOM     11  H   UNL     1       7.098   6.421  15.744  0.00  0.00    +0.000 HD
ENDBRANCH   8  10
BRANCH   8  12
ATOM     12  O   UNL     1       6.329   3.459  14.944  0.00  0.00    +0.000 OA
ATOM     13  H   UNL     1       5.887   3.929  14.209  0.00  0.00    +0.000 HD
ENDBRANCH   8  12
ENDBRANCH   7   8
ENDBRANCH   2   6
BRANCH   2  14
ATOM     14  C   UNL     1       2.632   2.822  17.906  0.00  0.00    +0.000 C 
BRANCH  14  15
ATOM     15  O   UNL     1       1.994   1.687  18.502  0.00  0.00    +0.000 OA
ATOM     16  H   UNL     1       1.255   1.415  17.927  0.00  0.00    +0.000 HD
ENDBRANCH  14  15
ENDBRANCH   2  14
ENDBRANCH   1   2
BRANCH   1  17
ATOM     17  C   UNL     1       2.711   6.151  18.175  0.00  0.00    +0.000 C 
BRANCH  17  21
ATOM     18  C   UNL     1       1.305   9.996  19.474  0.00  0.00    +0.000 A 
ATOM     19  C   UNL     1       1.310   8.906  20.354  0.00  0.00    +0.000 A 
ATOM     20  C   UNL     1       1.777   7.672  19.933  0.00  0.00    +0.000 A 
ATOM     21  C   UNL     1       2.198   7.493  18.612  0.00  0.00    +0.000 A 
ATOM     22  C   UNL     1       2.179   8.579  17.727  0.00  0.00    +0.000 A 
ATOM     23  C   UNL     1       1.731   9.824  18.155  0.00  0.00    +0.000 A 
BRANCH  18  24
ATOM     24  C   UNL     1       0.932  11.359  19.975  0.00  0.00    +0.000 C 
BRANCH  24  25
ATOM     25  C   UNL     1      -0.229  11.888  19.142  0.00  0.00    +0.000 C 
BRANCH  25  26
ATOM     26  C   UNL     1      -1.517  11.183  19.511  0.00  0.00    +0.000 C 
BRANCH  26  27
ATOM     27  C   UNL     1      -2.025  10.396  18.314  0.00  0.00    +0.000 C 
BRANCH  27  28
ATOM     28  C   UNL     1      -2.510  11.354  17.242  0.00  0.00    +0.000 C 
BRANCH  28  29
ATOM     29  C   UNL     1      -3.852  10.901  16.687  0.00  0.00    +0.000 C 
BRANCH  29  31
ATOM     30  C   UNL     1      -2.835   9.862  14.651  0.00  0.00    +0.000 C 
ATOM     31  C   UNL     1      -3.820  10.893  15.165  0.00  0.00    +0.000 C 
ENDBRANCH  29  31
ENDBRANCH  28  29
ENDBRANCH  27  28
ENDBRANCH  26  27
ENDBRANCH  25  26
ENDBRANCH  24  25
ENDBRANCH  18  24
ENDBRANCH  17  21
ENDBRANCH   1  17
TORSDOF 17
ENDMDL
MODEL 9
REMARK VINA RESULT:      -6.8      6.416      9.082
REMARK  Name = 
REMARK  18 active torsions:
REMARK  status: ('A' for Active; 'I' for Inactive)
REMARK    1  A    between atoms: C_1  and  C_2
REMARK    2  A    between atoms: C_2  and  C_3
REMARK    3  A    between atoms: C_3  and  C_4
REMARK    4  A    between atoms: C_4  and  C_5
REMARK    5  A    between atoms: C_5  and  C_6
REMARK    6  A    between atoms: C_6  and  C_7
REMARK    7  A    between atoms: C_7  and  C_8
REMARK    8  A    between atoms: C_8  and  C_9
REMARK    9  A    between atoms: C_12  and  C_13
REMARK   10  A    between atoms: C_13  and  C_14
REMARK   11  A    between atoms: C_14  and  C_15
REMARK   12  A    between atoms: C_15  and  C_16
REMARK   13  A    between atoms: C_15  and  C_22
REMARK   14  A    between atoms: C_15  and  N_24
REMARK   15  A    between atoms: C_17  and  P_18
REMARK   16  A    between atoms: P_18  and  O_20
REMARK   17  A    between atoms: P_18  and  O_21
REMARK   18  A    between atoms: C_22  and  O_23
REMARK                            x       y       z     vdW  Elec       q    Type
REMARK                         _______ _______ _______ _____ _____    ______ ____
ROOT
ATOM      1  C   UNL     1       0.403   9.498  18.293  0.00  0.00    +0.000 C 
ENDROOT
BRANCH   1   2
ATOM      2  C   UNL     1       0.012  10.802  19.019  0.00  0.00    +0.000 C 
BRANCH   2   3
ATOM      3  N   UNL     1      -0.360  10.466  20.432  0.00  0.00    +0.000 NA
ATOM      4  N   UNL     1       0.561  10.147  21.232  0.00  0.00    +0.000 NA
ATOM      5  N   UNL     1       1.358   9.885  21.971  0.00  0.00    +0.000 NA
ENDBRANCH   2   3
BRANCH   2   6
ATOM      6  C   UNL     1      -1.233  11.459  18.283  0.00  0.00    +0.000 C 
ATOM      7  C   UNL     1      -2.445  10.907  18.164  0.00  0.00    +0.000 C 
BRANCH   7   8
ATOM      8  P   UNL     1      -4.076  11.429  17.910  0.00  0.00    +0.000 P 
ATOM      9  O   UNL     1      -5.163  10.452  18.240  0.00  0.00    +0.000 OA
BRANCH   8  10
ATOM     10  O   UNL     1      -4.696  12.213  16.647  0.00  0.00    +0.000 OA
ATOM     11  H   UNL     1      -4.909  11.476  16.022  0.00  0.00    +0.000 HD
ENDBRANCH   8  10
BRANCH   8  12
ATOM     12  O   UNL     1      -4.156  12.645  18.955  0.00  0.00    +0.000 OA
ATOM     13  H   UNL     1      -4.944  13.177  18.725  0.00  0.00    +0.000 HD
ENDBRANCH   8  12
ENDBRANCH   7   8
ENDBRANCH   2   6
BRANCH   2  14
ATOM     14  C   UNL     1       1.191  11.841  19.077  0.00  0.00    +0.000 C 
BRANCH  14  15
ATOM     15  O   UNL     1       1.100  12.864  18.078  0.00  0.00    +0.000 OA
ATOM     16  H   UNL     1       1.928  12.865  17.565  0.00  0.00    +0.000 HD
ENDBRANCH  14  15
ENDBRANCH   2  14
ENDBRANCH   1   2
BRANCH   1  17
ATOM     17  C   UNL     1       1.853   9.496  17.802  0.00  0.00    +0.000 C 
BRANCH  17  21
ATOM     18  C   UNL     1       3.879   5.832  18.763  0.00  0.00    +0.000 A 
ATOM     19  C   UNL     1       2.870   6.328  19.600  0.00  0.00    +0.000 A 
ATOM     20  C   UNL     1       2.211   7.503  19.278  0.00  0.00    +0.000 A 
ATOM     21  C   UNL     1       2.584   8.229  18.143  0.00  0.00    +0.000 A 
ATOM     22  C   UNL     1       3.603   7.742  17.314  0.00  0.00    +0.000 A 
ATOM     23  C   UNL     1       4.250   6.551  17.625  0.00  0.00    +0.000 A 
BRANCH  18  24
ATOM     24  C   UNL     1       4.489   4.492  19.042  0.00  0.00    +0.000 C 
BRANCH  24  25
ATOM     25  C   UNL     1       4.503   3.679  17.754  0.00  0.00    +0.000 C 
BRANCH  25  26
ATOM     26  C   UNL     1       3.588   2.479  17.868  0.00  0.00    +0.000 C 
BRANCH  26  27
ATOM     27  C   UNL     1       2.141   2.930  17.752  0.00  0.00    +0.000 C 
BRANCH  27  28
ATOM     28  C   UNL     1       1.286   2.165  18.746  0.00  0.00    +0.000 C 
BRANCH  28  29
ATOM     29  C   UNL     1       0.490   3.124  19.616  0.00  0.00    +0.000 C 
BRANCH  29  31
ATOM     30  C   UNL     1       1.652   2.544  21.755  0.00  0.00    +0.000 C 
ATOM     31  C   UNL     1       1.354   3.645  20.757  0.00  0.00    +0.000 C 
ENDBRANCH  29  31
ENDBRANCH  28  29
ENDBRANCH  27  28
ENDBRANCH  26  27
ENDBRANCH  25  26
ENDBRANCH  24  25
ENDBRANCH  18  24
ENDBRANCH  17  21
ENDBRANCH   1  17
TORSDOF 17
ENDMDL
