MODEL 1
REMARK VINA RESULT:      -8.0      0.000      0.000
REMARK  Name = 
REMARK  2 active torsions:
REMARK  status: ('A' for Active; 'I' for Inactive)
REMARK    1  A    between atoms: C_1  and  C_2
REMARK    2  A    between atoms: C_7  and  C_8
REMARK                            x       y       z     vdW  Elec       q    Type
REMARK                         _______ _______ _______ _____ _____    ______ ____
ROOT
ATOM      1  C   UNL     1       3.690   1.315  18.148  0.00  0.00    +0.000 C 
ATOM      2  C   UNL     1       3.316   2.080  19.420  0.00  0.00    +0.000 C 
ATOM      3  C   UNL     1       1.820   1.938  19.730  0.00  0.00    +0.000 C 
ATOM      4  C   UNL     1       0.999   2.816  18.797  0.00  0.00    +0.000 C 
ATOM      5  C   UNL     1       1.361   4.277  19.046  0.00  0.00    +0.000 C 
ATOM      6  C   UNL     1       2.833   4.569  19.146  0.00  0.00    +0.000 A 
ATOM      7  C   UNL     1       3.377   5.858  19.119  0.00  0.00    +0.000 A 
ATOM      8  N   UNL     1       4.720   6.052  19.164  0.00  0.00    +0.000 NA
ATOM      9  C   UNL     1       5.510   4.986  19.259  0.00  0.00    +0.000 A 
ATOM     10  N   UNL     1       6.876   5.197  19.291  0.00  0.00    +0.000 N 
ATOM     11  N   UNL     1       5.083   3.732  19.369  0.00  0.00    +0.000 NA
ATOM     12  C   UNL     1       3.751   3.529  19.308  0.00  0.00    +0.000 A 
ATOM     13  H   UNL     1       7.069   6.131  19.617  0.00  0.00    +0.000 HD
ATOM     14  H   UNL     1       7.320   4.430  19.779  0.00  0.00    +0.000 HD
ENDROOT
BRANCH   7  15
ATOM     15  C   UNL     1       2.605   7.139  19.058  0.00  0.00    +0.000 A 
ATOM     16  C   UNL     1       1.910   7.683  20.157  0.00  0.00    +0.000 A 
ATOM     17  C   UNL     1       1.189   8.880  20.074  0.00  0.00    +0.000 A 
ATOM     18  C   UNL     1       1.199   9.599  18.892  0.00  0.00    +0.000 A 
ATOM     19  F   UNL     1       0.541  10.762  18.824  0.00  0.00    +0.000 F 
ATOM     20  C   UNL     1       1.903   9.134  17.793  0.00  0.00    +0.000 A 
ATOM     21  C   UNL     1       2.589   7.912  17.874  0.00  0.00    +0.000 A 
ENDBRANCH   7  15
TORSDOF 1
ENDMDL
MODEL 2
REMARK VINA RESULT:      -7.7      1.110      1.118
REMARK  Name = 
REMARK  2 active torsions:
REMARK  status: ('A' for Active; 'I' for Inactive)
REMARK    1  A    between atoms: C_1  and  C_2
REMARK    2  A    between atoms: C_7  and  C_8
REMARK                            x       y       z     vdW  Elec       q    Type
REMARK                         _______ _______ _______ _____ _____    ______ ____
ROOT
ATOM      1  C   UNL     1       3.263   1.627  18.568  0.00  0.00    +0.000 C 
ATOM      2  C   UNL     1       3.618   2.635  19.664  0.00  0.00    +0.000 C 
ATOM      3  C   UNL     1       2.609   2.574  20.819  0.00  0.00    +0.000 C 
ATOM      4  C   UNL     1       1.309   3.256  20.423  0.00  0.00    +0.000 C 
ATOM      5  C   UNL     1       1.584   4.734  20.161  0.00  0.00    +0.000 C 
ATOM      6  C   UNL     1       2.796   5.024  19.318  0.00  0.00    +0.000 A 
ATOM      7  C   UNL     1       3.077   6.276  18.758  0.00  0.00    +0.000 A 
ATOM      8  N   UNL     1       4.163   6.460  17.965  0.00  0.00    +0.000 NA
ATOM      9  C   UNL     1       4.972   5.426  17.750  0.00  0.00    +0.000 A 
ATOM     10  N   UNL     1       6.067   5.625  16.931  0.00  0.00    +0.000 N 
ATOM     11  N   UNL     1       4.830   4.225  18.300  0.00  0.00    +0.000 NA
ATOM     12  C   UNL     1       3.744   4.028  19.075  0.00  0.00    +0.000 A 
ATOM     13  H   UNL     1       6.310   6.603  16.916  0.00  0.00    +0.000 HD
ATOM     14  H   UNL     1       6.793   4.966  17.180  0.00  0.00    +0.000 HD
ENDROOT
BRANCH   7  15
ATOM     15  C   UNL     1       2.278   7.527  18.953  0.00  0.00    +0.000 A 
ATOM     16  C   UNL     1       1.785   7.949  20.204  0.00  0.00    +0.000 A 
ATOM     17  C   UNL     1       1.035   9.120  20.361  0.00  0.00    +0.000 A 
ATOM     18  C   UNL     1       0.812   9.937  19.267  0.00  0.00    +0.000 A 
ATOM     19  F   UNL     1       0.127  11.076  19.424  0.00  0.00    +0.000 F 
ATOM     20  C   UNL     1       1.312   9.593  18.021  0.00  0.00    +0.000 A 
ATOM     21  C   UNL     1       2.028   8.396  17.866  0.00  0.00    +0.000 A 
ENDBRANCH   7  15
TORSDOF 1
ENDMDL
MODEL 3
REMARK VINA RESULT:      -7.7      1.001      1.482
REMARK  Name = 
REMARK  2 active torsions:
REMARK  status: ('A' for Active; 'I' for Inactive)
REMARK    1  A    between atoms: C_1  and  C_2
REMARK    2  A    between atoms: C_7  and  C_8
REMARK                            x       y       z     vdW  Elec       q    Type
REMARK                         _______ _______ _______ _____ _____    ______ ____
ROOT
ATOM      1  C   UNL     1       3.308   1.601  18.916  0.00  0.00    +0.000 C 
ATOM      2  C   UNL     1       3.547   2.632  20.023  0.00  0.00    +0.000 C 
ATOM      3  C   UNL     1       2.419   2.599  21.062  0.00  0.00    +0.000 C 
ATOM      4  C   UNL     1       1.172   3.277  20.513  0.00  0.00    +0.000 C 
ATOM      5  C   UNL     1       1.483   4.747  20.250  0.00  0.00    +0.000 C 
ATOM      6  C   UNL     1       2.780   5.015  19.538  0.00  0.00    +0.000 A 
ATOM      7  C   UNL     1       3.127   6.254  18.985  0.00  0.00    +0.000 A 
ATOM      8  N   UNL     1       4.293   6.417  18.311  0.00  0.00    +0.000 NA
ATOM      9  C   UNL     1       5.116   5.377  18.208  0.00  0.00    +0.000 A 
ATOM     10  N   UNL     1       6.294   5.554  17.508  0.00  0.00    +0.000 N 
ATOM     11  N   UNL     1       4.908   4.188  18.764  0.00  0.00    +0.000 NA
ATOM     12  C   UNL     1       3.743   4.012  19.421  0.00  0.00    +0.000 A 
ATOM     13  H   UNL     1       6.542   6.532  17.499  0.00  0.00    +0.000 HD
ATOM     14  H   UNL     1       6.985   4.899  17.849  0.00  0.00    +0.000 HD
ENDROOT
BRANCH   7  15
ATOM     15  C   UNL     1       2.318   7.512  19.066  0.00  0.00    +0.000 A 
ATOM     16  C   UNL     1       1.979   8.292  17.943  0.00  0.00    +0.000 A 
ATOM     17  C   UNL     1       1.227   9.469  18.044  0.00  0.00    +0.000 A 
ATOM     18  C   UNL     1       0.740   9.861  19.278  0.00  0.00    +0.000 A 
ATOM     19  F   UNL     1      -0.011  10.965  19.369  0.00  0.00    +0.000 F 
ATOM     20  C   UNL     1       1.005   9.106  20.409  0.00  0.00    +0.000 A 
ATOM     21  C   UNL     1       1.796   7.951  20.304  0.00  0.00    +0.000 A 
ENDBRANCH   7  15
TORSDOF 1
ENDMDL
MODEL 4
REMARK VINA RESULT:      -7.6      3.310      4.745
REMARK  Name = 
REMARK  2 active torsions:
REMARK  status: ('A' for Active; 'I' for Inactive)
REMARK    1  A    between atoms: C_1  and  C_2
REMARK    2  A    between atoms: C_7  and  C_8
REMARK                            x       y       z     vdW  Elec       q    Type
REMARK                         _______ _______ _______ _____ _____    ______ ____
ROOT
ATOM      1  C   UNL     1       1.443   2.775  21.547  0.00  0.00    +0.000 C 
ATOM      2  C   UNL     1       1.117   3.093  20.085  0.00  0.00    +0.000 C 
ATOM      3  C   UNL     1       1.211   1.834  19.212  0.00  0.00    +0.000 C 
ATOM      4  C   UNL     1       2.666   1.477  18.953  0.00  0.00    +0.000 C 
ATOM      5  C   UNL     1       3.321   2.606  18.163  0.00  0.00    +0.000 C 
ATOM      6  C   UNL     1       3.034   3.994  18.666  0.00  0.00    +0.000 A 
ATOM      7  C   UNL     1       3.728   5.136  18.247  0.00  0.00    +0.000 A 
ATOM      8  N   UNL     1       3.454   6.355  18.778  0.00  0.00    +0.000 NA
ATOM      9  C   UNL     1       2.489   6.446  19.689  0.00  0.00    +0.000 A 
ATOM     10  N   UNL     1       2.229   7.691  20.229  0.00  0.00    +0.000 N 
ATOM     11  N   UNL     1       1.727   5.435  20.091  0.00  0.00    +0.000 NA
ATOM     12  C   UNL     1       2.004   4.216  19.582  0.00  0.00    +0.000 A 
ATOM     13  H   UNL     1       2.538   8.411  19.594  0.00  0.00    +0.000 HD
ATOM     14  H   UNL     1       1.268   7.724  20.542  0.00  0.00    +0.000 HD
ENDROOT
BRANCH   7  15
ATOM     15  C   UNL     1       4.800   5.182  17.203  0.00  0.00    +0.000 A 
ATOM     16  C   UNL     1       6.065   5.767  17.411  0.00  0.00    +0.000 A 
ATOM     17  C   UNL     1       7.049   5.804  16.416  0.00  0.00    +0.000 A 
ATOM     18  C   UNL     1       6.809   5.193  15.199  0.00  0.00    +0.000 A 
ATOM     19  F   UNL     1       7.764   5.195  14.261  0.00  0.00    +0.000 F 
ATOM     20  C   UNL     1       5.599   4.563  14.956  0.00  0.00    +0.000 A 
ATOM     21  C   UNL     1       4.603   4.568  15.945  0.00  0.00    +0.000 A 
ENDBRANCH   7  15
TORSDOF 1
ENDMDL
MODEL 5
REMARK VINA RESULT:      -7.4      3.364      4.848
REMARK  Name = 
REMARK  2 active torsions:
REMARK  status: ('A' for Active; 'I' for Inactive)
REMARK    1  A    between atoms: C_1  and  C_2
REMARK    2  A    between atoms: C_7  and  C_8
REMARK                            x       y       z     vdW  Elec       q    Type
REMARK                         _______ _______ _______ _____ _____    ______ ____
ROOT
ATOM      1  C   UNL     1       1.606   2.915  21.565  0.00  0.00    +0.000 C 
ATOM      2  C   UNL     1       1.251   3.156  20.096  0.00  0.00    +0.000 C 
ATOM      3  C   UNL     1       1.333   1.855  19.287  0.00  0.00    +0.000 C 
ATOM      4  C   UNL     1       2.785   1.488  19.018  0.00  0.00    +0.000 C 
ATOM      5  C   UNL     1       3.420   2.578  18.159  0.00  0.00    +0.000 C 
ATOM      6  C   UNL     1       3.137   3.989  18.595  0.00  0.00    +0.000 A 
ATOM      7  C   UNL     1       3.818   5.110  18.106  0.00  0.00    +0.000 A 
ATOM      8  N   UNL     1       3.549   6.354  18.578  0.00  0.00    +0.000 NA
ATOM      9  C   UNL     1       2.602   6.489  19.502  0.00  0.00    +0.000 A 
ATOM     10  N   UNL     1       2.347   7.759  19.983  0.00  0.00    +0.000 N 
ATOM     11  N   UNL     1       1.851   5.497  19.969  0.00  0.00    +0.000 NA
ATOM     12  C   UNL     1       2.124   4.255  19.519  0.00  0.00    +0.000 A 
ATOM     13  H   UNL     1       2.641   8.446  19.305  0.00  0.00    +0.000 HD
ATOM     14  H   UNL     1       1.392   7.805  20.311  0.00  0.00    +0.000 HD
ENDROOT
BRANCH   7  15
ATOM     15  C   UNL     1       4.870   5.106  17.040  0.00  0.00    +0.000 A 
ATOM     16  C   UNL     1       4.653   4.623  15.734  0.00  0.00    +0.000 A 
ATOM     17  C   UNL     1       5.654   4.623  14.756  0.00  0.00    +0.000 A 
ATOM     18  C   UNL     1       6.891   5.169  15.048  0.00  0.00    +0.000 A 
ATOM     19  F   UNL     1       7.836   5.203  14.101  0.00  0.00    +0.000 F 
ATOM     20  C   UNL     1       7.144   5.700  16.303  0.00  0.00    +0.000 A 
ATOM     21  C   UNL     1       6.147   5.657  17.290  0.00  0.00    +0.000 A 
ENDBRANCH   7  15
TORSDOF 1
ENDMDL
MODEL 6
REMARK VINA RESULT:      -7.4      3.591      5.380
REMARK  Name = 
REMARK  2 active torsions:
REMARK  status: ('A' for Active; 'I' for Inactive)
REMARK    1  A    between atoms: C_1  and  C_2
REMARK    2  A    between atoms: C_7  and  C_8
REMARK                            x       y       z     vdW  Elec       q    Type
REMARK                         _______ _______ _______ _____ _____    ______ ____
ROOT
ATOM      1  C   UNL     1       0.973   4.797  20.482  0.00  0.00    +0.000 C 
ATOM      2  C   UNL     1       2.336   5.494  20.488  0.00  0.00    +0.000 C 
ATOM      3  C   UNL     1       2.225   6.926  19.948  0.00  0.00    +0.000 C 
ATOM      4  C   UNL     1       2.085   6.913  18.434  0.00  0.00    +0.000 C 
ATOM      5  C   UNL     1       3.349   6.313  17.825  0.00  0.00    +0.000 C 
ATOM      6  C   UNL     1       3.844   5.053  18.479  0.00  0.00    +0.000 A 
ATOM      7  C   UNL     1       4.823   4.218  17.927  0.00  0.00    +0.000 A 
ATOM      8  N   UNL     1       5.190   3.067  18.545  0.00  0.00    +0.000 NA
ATOM      9  C   UNL     1       4.617   2.761  19.705  0.00  0.00    +0.000 A 
ATOM     10  N   UNL     1       4.992   1.580  20.318  0.00  0.00    +0.000 N 
ATOM     11  N   UNL     1       3.738   3.527  20.343  0.00  0.00    +0.000 NA
ATOM     12  C   UNL     1       3.353   4.664  19.727  0.00  0.00    +0.000 A 
ATOM     13  H   UNL     1       5.909   1.306  19.999  0.00  0.00    +0.000 HD
ATOM     14  H   UNL     1       4.848   1.662  21.315  0.00  0.00    +0.000 HD
ENDROOT
BRANCH   7  15
ATOM     15  C   UNL     1       5.576   4.465  16.657  0.00  0.00    +0.000 A 
ATOM     16  C   UNL     1       6.875   5.008  16.615  0.00  0.00    +0.000 A 
ATOM     17  C   UNL     1       7.557   5.236  15.414  0.00  0.00    +0.000 A 
ATOM     18  C   UNL     1       6.971   4.863  14.218  0.00  0.00    +0.000 A 
ATOM     19  F   UNL     1       7.639   5.046  13.072  0.00  0.00    +0.000 F 
ATOM     20  C   UNL     1       5.713   4.282  14.203  0.00  0.00    +0.000 A 
ATOM     21  C   UNL     1       5.020   4.097  15.410  0.00  0.00    +0.000 A 
ENDBRANCH   7  15
TORSDOF 1
ENDMDL
MODEL 7
REMARK VINA RESULT:      -7.4      3.610      5.430
REMARK  Name = 
REMARK  2 active torsions:
REMARK  status: ('A' for Active; 'I' for Inactive)
REMARK    1  A    between atoms: C_1  and  C_2
REMARK    2  A    between atoms: C_7  and  C_8
REMARK                            x       y       z     vdW  Elec       q    Type
REMARK                         _______ _______ _______ _____ _____    ______ ____
ROOT
ATOM      1  C   UNL     1       0.998   4.876  20.441  0.00  0.00    +0.000 C 
ATOM      2  C   UNL     1       2.366   5.562  20.418  0.00  0.00    +0.000 C 
ATOM      3  C   UNL     1       2.264   6.981  19.842  0.00  0.00    +0.000 C 
ATOM      4  C   UNL     1       2.113   6.928  18.329  0.00  0.00    +0.000 C 
ATOM      5  C   UNL     1       3.368   6.302  17.728  0.00  0.00    +0.000 C 
ATOM      6  C   UNL     1       3.857   5.055  18.412  0.00  0.00    +0.000 A 
ATOM      7  C   UNL     1       4.825   4.198  17.876  0.00  0.00    +0.000 A 
ATOM      8  N   UNL     1       5.188   3.061  18.523  0.00  0.00    +0.000 NA
ATOM      9  C   UNL     1       4.620   2.790  19.694  0.00  0.00    +0.000 A 
ATOM     10  N   UNL     1       4.989   1.623  20.335  0.00  0.00    +0.000 N 
ATOM     11  N   UNL     1       3.751   3.580  20.317  0.00  0.00    +0.000 NA
ATOM     12  C   UNL     1       3.372   4.704  19.673  0.00  0.00    +0.000 A 
ATOM     13  H   UNL     1       5.901   1.333  20.018  0.00  0.00    +0.000 HD
ATOM     14  H   UNL     1       4.853   1.733  21.331  0.00  0.00    +0.000 HD
ENDROOT
BRANCH   7  15
ATOM     15  C   UNL     1       5.572   4.404  16.595  0.00  0.00    +0.000 A 
ATOM     16  C   UNL     1       5.050   4.075  15.328  0.00  0.00    +0.000 A 
ATOM     17  C   UNL     1       5.770   4.272  14.144  0.00  0.00    +0.000 A 
ATOM     18  C   UNL     1       7.018   4.865  14.197  0.00  0.00    +0.000 A 
ATOM     19  F   UNL     1       7.691   5.087  13.061  0.00  0.00    +0.000 F 
ATOM     20  C   UNL     1       7.561   5.250  15.413  0.00  0.00    +0.000 A 
ATOM     21  C   UNL     1       6.849   5.010  16.598  0.00  0.00    +0.000 A 
ENDBRANCH   7  15
TORSDOF 1
ENDMDL
MODEL 8
REMARK VINA RESULT:      -7.4      4.324      5.671
REMARK  Name = 
REMARK  2 active torsions:
REMARK  status: ('A' for Active; 'I' for Inactive)
REMARK    1  A    between atoms: C_1  and  C_2
REMARK    2  A    between atoms: C_7  and  C_8
REMARK                            x       y       z     vdW  Elec       q    Type
REMARK                         _______ _______ _______ _____ _____    ______ ____
ROOT
ATOM      1  C   UNL     1       3.559   2.893  20.493  0.00  0.00    +0.000 C 
ATOM      2  C   UNL     1       3.409   4.130  19.602  0.00  0.00    +0.000 C 
ATOM      3  C   UNL     1       2.200   3.994  18.668  0.00  0.00    +0.000 C 
ATOM      4  C   UNL     1       2.516   3.041  17.525  0.00  0.00    +0.000 C 
ATOM      5  C   UNL     1       3.650   3.628  16.690  0.00  0.00    +0.000 C 
ATOM      6  C   UNL     1       4.814   4.170  17.474  0.00  0.00    +0.000 A 
ATOM      7  C   UNL     1       6.046   4.515  16.906  0.00  0.00    +0.000 A 
ATOM      8  N   UNL     1       7.074   4.953  17.677  0.00  0.00    +0.000 NA
ATOM      9  C   UNL     1       6.876   5.073  18.987  0.00  0.00    +0.000 A 
ATOM     10  N   UNL     1       7.935   5.508  19.761  0.00  0.00    +0.000 N 
ATOM     11  N   UNL     1       5.721   4.844  19.603  0.00  0.00    +0.000 NA
ATOM     12  C   UNL     1       4.700   4.391  18.848  0.00  0.00    +0.000 A 
ATOM     13  H   UNL     1       8.582   6.031  19.191  0.00  0.00    +0.000 HD
ATOM     14  H   UNL     1       7.576   5.957  20.593  0.00  0.00    +0.000 HD
ENDROOT
BRANCH   7  15
ATOM     15  C   UNL     1       6.387   4.470  15.449  0.00  0.00    +0.000 A 
ATOM     16  C   UNL     1       5.662   3.720  14.502  0.00  0.00    +0.000 A 
ATOM     17  C   UNL     1       6.005   3.689  13.145  0.00  0.00    +0.000 A 
ATOM     18  C   UNL     1       7.055   4.466  12.690  0.00  0.00    +0.000 A 
ATOM     19  F   UNL     1       7.358   4.465  11.387  0.00  0.00    +0.000 F 
ATOM     20  C   UNL     1       7.774   5.258  13.570  0.00  0.00    +0.000 A 
ATOM     21  C   UNL     1       7.450   5.250  14.936  0.00  0.00    +0.000 A 
ENDBRANCH   7  15
TORSDOF 1
ENDMDL
MODEL 9
REMARK VINA RESULT:      -7.3      4.319      5.687
REMARK  Name = 
REMARK  2 active torsions:
REMARK  status: ('A' for Active; 'I' for Inactive)
REMARK    1  A    between atoms: C_1  and  C_2
REMARK    2  A    between atoms: C_7  and  C_8
REMARK                            x       y       z     vdW  Elec       q    Type
REMARK                         _______ _______ _______ _____ _____    ______ ____
ROOT
ATOM      1  C   UNL     1       3.628   2.897  20.510  0.00  0.00    +0.000 C 
ATOM      2  C   UNL     1       3.465   4.144  19.636  0.00  0.00    +0.000 C 
ATOM      3  C   UNL     1       2.250   4.013  18.708  0.00  0.00    +0.000 C 
ATOM      4  C   UNL     1       2.565   3.078  17.551  0.00  0.00    +0.000 C 
ATOM      5  C   UNL     1       3.690   3.683  16.716  0.00  0.00    +0.000 C 
ATOM      6  C   UNL     1       4.855   4.222  17.500  0.00  0.00    +0.000 A 
ATOM      7  C   UNL     1       6.081   4.583  16.929  0.00  0.00    +0.000 A 
ATOM      8  N   UNL     1       7.111   5.017  17.699  0.00  0.00    +0.000 NA
ATOM      9  C   UNL     1       6.922   5.118  19.011  0.00  0.00    +0.000 A 
ATOM     10  N   UNL     1       7.982   5.550  19.784  0.00  0.00    +0.000 N 
ATOM     11  N   UNL     1       5.772   4.873  19.632  0.00  0.00    +0.000 NA
ATOM     12  C   UNL     1       4.749   4.424  18.877  0.00  0.00    +0.000 A 
ATOM     13  H   UNL     1       8.623   6.084  19.218  0.00  0.00    +0.000 HD
ATOM     14  H   UNL     1       7.626   5.985  20.625  0.00  0.00    +0.000 HD
ENDROOT
BRANCH   7  15
ATOM     15  C   UNL     1       6.414   4.560  15.469  0.00  0.00    +0.000 A 
ATOM     16  C   UNL     1       7.462   5.308  14.897  0.00  0.00    +0.000 A 
ATOM     17  C   UNL     1       7.749   5.275  13.527  0.00  0.00    +0.000 A 
ATOM     18  C   UNL     1       7.025   4.435  12.700  0.00  0.00    +0.000 A 
ATOM     19  F   UNL     1       7.325   4.376  11.397  0.00  0.00    +0.000 F 
ATOM     20  C   UNL     1       6.013   3.643  13.217  0.00  0.00    +0.000 A 
ATOM     21  C   UNL     1       5.704   3.715  14.585  0.00  0.00    +0.000 A 
ENDBRANCH   7  15
TORSDOF 1
ENDMDL
