MODEL 1
REMARK VINA RESULT:      -8.2      0.000      0.000
REMARK  Name = 
REMARK  9 active torsions:
REMARK  status: ('A' for Active; 'I' for Inactive)
REMARK    1  A    between atoms: C_2  and  C_3
REMARK    2  A    between atoms: C_7  and  C_8
REMARK    3  A    between atoms: C_13  and  O_14
REMARK    4  A    between atoms: C_18  and  O_19
REMARK    5  A    between atoms: O_19  and  C_20
REMARK    6  A    between atoms: C_23  and  O_24
REMARK    7  A    between atoms: O_24  and  C_25
REMARK    8  A    between atoms: C_25  and  C_26
REMARK    9  A    between atoms: C_26  and  N_27
REMARK                            x       y       z     vdW  Elec       q    Type
REMARK                         _______ _______ _______ _____ _____    ______ ____
ROOT
ATOM      1  C   UNL     1      -0.061  10.728  21.657  0.00  0.00    +0.000 A 
ATOM      2  C   UNL     1       0.458   9.710  22.482  0.00  0.00    +0.000 A 
ATOM      3  C   UNL     1       1.183   8.632  21.968  0.00  0.00    +0.000 A 
ATOM      4  C   UNL     1       1.432   8.517  20.599  0.00  0.00    +0.000 A 
ATOM      5  C   UNL     1       2.100   7.380  20.104  0.00  0.00    +0.000 A 
ATOM      6  C   UNL     1       2.321   7.230  18.740  0.00  0.00    +0.000 A 
ATOM      7  C   UNL     1       1.956   8.230  17.863  0.00  0.00    +0.000 A 
ATOM      8  C   UNL     1       1.356   9.389  18.356  0.00  0.00    +0.000 A 
ATOM      9  C   UNL     1       0.996   9.539  19.723  0.00  0.00    +0.000 A 
ATOM     10  C   UNL     1       0.202  10.616  20.262  0.00  0.00    +0.000 A 
ENDROOT
BRANCH   1  15
ATOM     11  C   UNL     1      -2.799  12.632  23.551  0.00  0.00    +0.000 A 
ATOM     12  C   UNL     1      -2.316  13.938  23.519  0.00  0.00    +0.000 A 
ATOM     13  C   UNL     1      -1.121  14.211  22.865  0.00  0.00    +0.000 A 
ATOM     14  C   UNL     1      -0.405  13.180  22.241  0.00  0.00    +0.000 A 
ATOM     15  C   UNL     1      -0.835  11.842  22.291  0.00  0.00    +0.000 A 
ATOM     16  C   UNL     1      -2.058  11.597  22.951  0.00  0.00    +0.000 A 
BRANCH  11  18
ATOM     17  N   UNL     1      -5.055  12.098  24.714  0.00  0.00    +0.000 NA
ATOM     18  C   UNL     1      -4.052  12.340  24.193  0.00  0.00    +0.000 C 
ENDBRANCH  11  18
ENDBRANCH   1  15
BRANCH   6  19
ATOM     19  O   UNL     1       2.905   6.114  18.223  0.00  0.00    +0.000 OA
ATOM     20  H   UNL     1       2.484   5.329  18.609  0.00  0.00    +0.000 HD
ENDBRANCH   6  19
BRANCH  10  21
ATOM     21  O   UNL     1      -0.283  11.639  19.446  0.00  0.00    +0.000 OA
BRANCH  21  22
ATOM     22  C   UNL     1      -1.473  11.479  18.759  0.00  0.00    +0.000 A 
ATOM     23  C   UNL     1      -1.595  10.834  17.532  0.00  0.00    +0.000 A 
ATOM     24  C   UNL     1      -2.779  10.932  16.808  0.00  0.00    +0.000 A 
ATOM     25  C   UNL     1      -3.914  11.548  17.350  0.00  0.00    +0.000 A 
ATOM     26  C   UNL     1      -3.828  12.092  18.631  0.00  0.00    +0.000 A 
ATOM     27  C   UNL     1      -2.607  12.070  19.328  0.00  0.00    +0.000 A 
BRANCH  25  28
ATOM     28  O   UNL     1      -5.130  11.650  16.703  0.00  0.00    +0.000 OA
BRANCH  28  29
ATOM     29  C   UNL     1      -6.114  12.344  17.480  0.00  0.00    +0.000 C 
BRANCH  29  30
ATOM     30  C   UNL     1      -7.083  11.426  18.235  0.00  0.00    +0.000 C 
BRANCH  30  31
ATOM     31  N   UNL     1      -7.557  12.056  19.494  0.00  0.00    +0.000 NA
ATOM     32  C   UNL     1      -7.115  11.328  20.697  0.00  0.00    +0.000 C 
ATOM     33  C   UNL     1      -7.666  11.955  21.976  0.00  0.00    +0.000 C 
ATOM     34  C   UNL     1      -7.286  13.423  22.078  0.00  0.00    +0.000 C 
ATOM     35  C   UNL     1      -7.683  14.158  20.804  0.00  0.00    +0.000 C 
ATOM     36  C   UNL     1      -7.134  13.463  19.555  0.00  0.00    +0.000 C 
ENDBRANCH  30  31
ENDBRANCH  29  30
ENDBRANCH  28  29
ENDBRANCH  25  28
ENDBRANCH  21  22
ENDBRANCH  10  21
TORSDOF 9
ENDMDL
MODEL 2
REMARK VINA RESULT:      -7.8      0.833      1.352
REMARK  Name = 
REMARK  9 active torsions:
REMARK  status: ('A' for Active; 'I' for Inactive)
REMARK    1  A    between atoms: C_2  and  C_3
REMARK    2  A    between atoms: C_7  and  C_8
REMARK    3  A    between atoms: C_13  and  O_14
REMARK    4  A    between atoms: C_18  and  O_19
REMARK    5  A    between atoms: O_19  and  C_20
REMARK    6  A    between atoms: C_23  and  O_24
REMARK    7  A    between atoms: O_24  and  C_25
REMARK    8  A    between atoms: C_25  and  C_26
REMARK    9  A    between atoms: C_26  and  N_27
REMARK                            x       y       z     vdW  Elec       q    Type
REMARK                         _______ _______ _______ _____ _____    ______ ____
ROOT
ATOM      1  C   UNL     1      -0.055  10.754  21.697  0.00  0.00    +0.000 A 
ATOM      2  C   UNL     1       0.469   9.720  22.499  0.00  0.00    +0.000 A 
ATOM      3  C   UNL     1       1.189   8.652  21.959  0.00  0.00    +0.000 A 
ATOM      4  C   UNL     1       1.429   8.564  20.586  0.00  0.00    +0.000 A 
ATOM      5  C   UNL     1       2.093   7.436  20.065  0.00  0.00    +0.000 A 
ATOM      6  C   UNL     1       2.305   7.312  18.697  0.00  0.00    +0.000 A 
ATOM      7  C   UNL     1       1.935   8.329  17.842  0.00  0.00    +0.000 A 
ATOM      8  C   UNL     1       1.340   9.479  18.362  0.00  0.00    +0.000 A 
ATOM      9  C   UNL     1       0.988   9.602  19.734  0.00  0.00    +0.000 A 
ATOM     10  C   UNL     1       0.199  10.670  20.299  0.00  0.00    +0.000 A 
ENDROOT
BRANCH   1  15
ATOM     11  C   UNL     1      -2.790  12.627  23.626  0.00  0.00    +0.000 A 
ATOM     12  C   UNL     1      -2.296  13.929  23.636  0.00  0.00    +0.000 A 
ATOM     13  C   UNL     1      -1.093  14.211  22.998  0.00  0.00    +0.000 A 
ATOM     14  C   UNL     1      -0.382  13.192  22.350  0.00  0.00    +0.000 A 
ATOM     15  C   UNL     1      -0.823  11.856  22.357  0.00  0.00    +0.000 A 
ATOM     16  C   UNL     1      -2.054  11.604  23.001  0.00  0.00    +0.000 A 
BRANCH  11  18
ATOM     17  N   UNL     1      -5.060  12.079  24.755  0.00  0.00    +0.000 NA
ATOM     18  C   UNL     1      -4.050  12.328  24.250  0.00  0.00    +0.000 C 
ENDBRANCH  11  18
ENDBRANCH   1  15
BRANCH   6  19
ATOM     19  O   UNL     1       2.885   6.206  18.155  0.00  0.00    +0.000 OA
ATOM     20  H   UNL     1       3.677   5.980  18.667  0.00  0.00    +0.000 HD
ENDBRANCH   6  19
BRANCH  10  21
ATOM     21  O   UNL     1      -0.291  11.708  19.506  0.00  0.00    +0.000 OA
BRANCH  21  22
ATOM     22  C   UNL     1      -1.587  11.668  19.024  0.00  0.00    +0.000 A 
ATOM     23  C   UNL     1      -2.623  12.479  19.478  0.00  0.00    +0.000 A 
ATOM     24  C   UNL     1      -3.935  12.204  19.107  0.00  0.00    +0.000 A 
ATOM     25  C   UNL     1      -4.233  11.210  18.167  0.00  0.00    +0.000 A 
ATOM     26  C   UNL     1      -3.182  10.474  17.621  0.00  0.00    +0.000 A 
ATOM     27  C   UNL     1      -1.864  10.693  18.059  0.00  0.00    +0.000 A 
BRANCH  25  28
ATOM     28  O   UNL     1      -5.507  10.908  17.728  0.00  0.00    +0.000 OA
BRANCH  28  29
ATOM     29  C   UNL     1      -6.526  11.376  18.621  0.00  0.00    +0.000 C 
BRANCH  29  30
ATOM     30  C   UNL     1      -7.457  12.435  18.017  0.00  0.00    +0.000 C 
BRANCH  30  31
ATOM     31  N   UNL     1      -7.513  13.653  18.864  0.00  0.00    +0.000 NA
ATOM     32  C   UNL     1      -7.234  13.374  20.284  0.00  0.00    +0.000 C 
ATOM     33  C   UNL     1      -7.360  14.629  21.146  0.00  0.00    +0.000 C 
ATOM     34  C   UNL     1      -6.454  15.739  20.639  0.00  0.00    +0.000 C 
ATOM     35  C   UNL     1      -6.697  15.978  19.154  0.00  0.00    +0.000 C 
ATOM     36  C   UNL     1      -6.595  14.680  18.348  0.00  0.00    +0.000 C 
ENDBRANCH  30  31
ENDBRANCH  29  30
ENDBRANCH  28  29
ENDBRANCH  25  28
ENDBRANCH  21  22
ENDBRANCH  10  21
TORSDOF 9
ENDMDL
MODEL 3
REMARK VINA RESULT:      -7.4      0.993      1.347
REMARK  Name = 
REMARK  9 active torsions:
REMARK  status: ('A' for Active; 'I' for Inactive)
REMARK    1  A    between atoms: C_2  and  C_3
REMARK    2  A    between atoms: C_7  and  C_8
REMARK    3  A    between atoms: C_13  and  O_14
REMARK    4  A    between atoms: C_18  and  O_19
REMARK    5  A    between atoms: O_19  and  C_20
REMARK    6  A    between atoms: C_23  and  O_24
REMARK    7  A    between atoms: O_24  and  C_25
REMARK    8  A    between atoms: C_25  and  C_26
REMARK    9  A    between atoms: C_26  and  N_27
REMARK                            x       y       z     vdW  Elec       q    Type
REMARK                         _______ _______ _______ _____ _____    ______ ____
ROOT
ATOM      1  C   UNL     1       0.454  10.096  21.078  0.00  0.00    +0.000 A 
ATOM      2  C   UNL     1       0.813   9.067  21.971  0.00  0.00    +0.000 A 
ATOM      3  C   UNL     1       1.470   7.909  21.548  0.00  0.00    +0.000 A 
ATOM      4  C   UNL     1       1.808   7.720  20.207  0.00  0.00    +0.000 A 
ATOM      5  C   UNL     1       2.402   6.509  19.801  0.00  0.00    +0.000 A 
ATOM      6  C   UNL     1       2.708   6.287  18.464  0.00  0.00    +0.000 A 
ATOM      7  C   UNL     1       2.504   7.282  17.530  0.00  0.00    +0.000 A 
ATOM      8  C   UNL     1       1.981   8.508  17.939  0.00  0.00    +0.000 A 
ATOM      9  C   UNL     1       1.535   8.742  19.269  0.00  0.00    +0.000 A 
ATOM     10  C   UNL     1       0.808   9.908  19.711  0.00  0.00    +0.000 A 
ENDROOT
BRANCH   1  15
ATOM     11  C   UNL     1      -2.079  12.286  22.947  0.00  0.00    +0.000 A 
ATOM     12  C   UNL     1      -1.616  13.569  22.663  0.00  0.00    +0.000 A 
ATOM     13  C   UNL     1      -0.503  13.731  21.846  0.00  0.00    +0.000 A 
ATOM     14  C   UNL     1       0.151  12.611  21.313  0.00  0.00    +0.000 A 
ATOM     15  C   UNL     1      -0.257  11.299  21.614  0.00  0.00    +0.000 A 
ATOM     16  C   UNL     1      -1.398  11.167  22.434  0.00  0.00    +0.000 A 
BRANCH  11  18
ATOM     17  N   UNL     1      -4.187  11.959  24.421  0.00  0.00    +0.000 NA
ATOM     18  C   UNL     1      -3.251  12.105  23.759  0.00  0.00    +0.000 C 
ENDBRANCH  11  18
ENDBRANCH   1  15
BRANCH   6  19
ATOM     19  O   UNL     1       3.221   5.104  18.029  0.00  0.00    +0.000 OA
ATOM     20  H   UNL     1       4.159   5.227  17.812  0.00  0.00    +0.000 HD
ENDBRANCH   6  19
BRANCH  10  21
ATOM     21  O   UNL     1       0.483  10.938  18.828  0.00  0.00    +0.000 OA
BRANCH  21  22
ATOM     22  C   UNL     1      -0.795  11.033  18.307  0.00  0.00    +0.000 A 
ATOM     23  C   UNL     1      -1.645  12.119  18.494  0.00  0.00    +0.000 A 
ATOM     24  C   UNL     1      -2.986  12.023  18.137  0.00  0.00    +0.000 A 
ATOM     25  C   UNL     1      -3.479  10.904  17.455  0.00  0.00    +0.000 A 
ATOM     26  C   UNL     1      -2.599   9.863  17.161  0.00  0.00    +0.000 A 
ATOM     27  C   UNL     1      -1.264   9.921  17.598  0.00  0.00    +0.000 A 
BRANCH  25  28
ATOM     28  O   UNL     1      -4.788  10.758  17.041  0.00  0.00    +0.000 OA
BRANCH  28  29
ATOM     29  C   UNL     1      -5.724  10.824  18.125  0.00  0.00    +0.000 C 
BRANCH  29  30
ATOM     30  C   UNL     1      -6.696  12.007  18.048  0.00  0.00    +0.000 C 
BRANCH  30  31
ATOM     31  N   UNL     1      -6.826  12.688  19.361  0.00  0.00    +0.000 NA
ATOM     32  C   UNL     1      -7.747  11.989  20.277  0.00  0.00    +0.000 C 
ATOM     33  C   UNL     1      -7.915  12.741  21.596  0.00  0.00    +0.000 C 
ATOM     34  C   UNL     1      -6.574  12.975  22.272  0.00  0.00    +0.000 C 
ATOM     35  C   UNL     1      -5.605  13.635  21.301  0.00  0.00    +0.000 C 
ATOM     36  C   UNL     1      -5.506  12.859  19.984  0.00  0.00    +0.000 C 
ENDBRANCH  30  31
ENDBRANCH  29  30
ENDBRANCH  28  29
ENDBRANCH  25  28
ENDBRANCH  21  22
ENDBRANCH  10  21
TORSDOF 9
ENDMDL
MODEL 4
REMARK VINA RESULT:      -7.3      3.418      8.575
REMARK  Name = 
REMARK  9 active torsions:
REMARK  status: ('A' for Active; 'I' for Inactive)
REMARK    1  A    between atoms: C_2  and  C_3
REMARK    2  A    between atoms: C_7  and  C_8
REMARK    3  A    between atoms: C_13  and  O_14
REMARK    4  A    between atoms: C_18  and  O_19
REMARK    5  A    between atoms: O_19  and  C_20
REMARK    6  A    between atoms: C_23  and  O_24
REMARK    7  A    between atoms: O_24  and  C_25
REMARK    8  A    between atoms: C_25  and  C_26
REMARK    9  A    between atoms: C_26  and  N_27
REMARK                            x       y       z     vdW  Elec       q    Type
REMARK                         _______ _______ _______ _____ _____    ______ ____
ROOT
ATOM      1  C   UNL     1      -2.801  12.487  20.048  0.00  0.00    +0.000 A 
ATOM      2  C   UNL     1      -4.190  12.559  19.823  0.00  0.00    +0.000 A 
ATOM      3  C   UNL     1      -4.782  12.058  18.661  0.00  0.00    +0.000 A 
ATOM      4  C   UNL     1      -4.016  11.453  17.663  0.00  0.00    +0.000 A 
ATOM      5  C   UNL     1      -4.633  11.026  16.471  0.00  0.00    +0.000 A 
ATOM      6  C   UNL     1      -3.880  10.458  15.451  0.00  0.00    +0.000 A 
ATOM      7  C   UNL     1      -2.529  10.236  15.625  0.00  0.00    +0.000 A 
ATOM      8  C   UNL     1      -1.927  10.593  16.831  0.00  0.00    +0.000 A 
ATOM      9  C   UNL     1      -2.624  11.289  17.856  0.00  0.00    +0.000 A 
ATOM     10  C   UNL     1      -2.020  11.860  19.036  0.00  0.00    +0.000 A 
ENDROOT
BRANCH   1  15
ATOM     11  C   UNL     1      -0.679  14.562  22.478  0.00  0.00    +0.000 A 
ATOM     12  C   UNL     1      -1.192  14.171  23.713  0.00  0.00    +0.000 A 
ATOM     13  C   UNL     1      -2.203  13.219  23.766  0.00  0.00    +0.000 A 
ATOM     14  C   UNL     1      -2.705  12.656  22.586  0.00  0.00    +0.000 A 
ATOM     15  C   UNL     1      -2.248  13.057  21.317  0.00  0.00    +0.000 A 
ATOM     16  C   UNL     1      -1.212  14.016  21.296  0.00  0.00    +0.000 A 
BRANCH  11  18
ATOM     17  N   UNL     1       1.258  16.281  22.358  0.00  0.00    +0.000 NA
ATOM     18  C   UNL     1       0.391  15.518  22.410  0.00  0.00    +0.000 C 
ENDBRANCH  11  18
ENDBRANCH   1  15
BRANCH   6  19
ATOM     19  O   UNL     1      -4.434  10.096  14.261  0.00  0.00    +0.000 OA
ATOM     20  H   UNL     1      -4.135  10.711  13.572  0.00  0.00    +0.000 HD
ENDBRANCH   6  19
BRANCH  10  21
ATOM     21  O   UNL     1      -0.649  11.758  19.270  0.00  0.00    +0.000 OA
BRANCH  21  22
ATOM     22  C   UNL     1      -0.080  10.533  19.567  0.00  0.00    +0.000 A 
ATOM     23  C   UNL     1      -0.252   9.854  20.770  0.00  0.00    +0.000 A 
ATOM     24  C   UNL     1       0.545   8.753  21.068  0.00  0.00    +0.000 A 
ATOM     25  C   UNL     1       1.427   8.216  20.123  0.00  0.00    +0.000 A 
ATOM     26  C   UNL     1       1.514   8.826  18.871  0.00  0.00    +0.000 A 
ATOM     27  C   UNL     1       0.773   9.989  18.599  0.00  0.00    +0.000 A 
BRANCH  25  28
ATOM     28  O   UNL     1       2.221   7.107  20.338  0.00  0.00    +0.000 OA
BRANCH  28  29
ATOM     29  C   UNL     1       2.974   6.730  19.178  0.00  0.00    +0.000 C 
BRANCH  29  30
ATOM     30  C   UNL     1       4.068   5.690  19.446  0.00  0.00    +0.000 C 
BRANCH  30  31
ATOM     31  N   UNL     1       4.804   5.344  18.205  0.00  0.00    +0.000 NA
ATOM     32  C   UNL     1       4.693   6.386  17.167  0.00  0.00    +0.000 C 
ATOM     33  C   UNL     1       5.403   5.982  15.877  0.00  0.00    +0.000 C 
ATOM     34  C   UNL     1       6.864   5.646  16.133  0.00  0.00    +0.000 C 
ATOM     35  C   UNL     1       6.977   4.620  17.252  0.00  0.00    +0.000 C 
ATOM     36  C   UNL     1       6.215   5.061  18.506  0.00  0.00    +0.000 C 
ENDBRANCH  30  31
ENDBRANCH  29  30
ENDBRANCH  28  29
ENDBRANCH  25  28
ENDBRANCH  21  22
ENDBRANCH  10  21
TORSDOF 9
ENDMDL
MODEL 5
REMARK VINA RESULT:      -7.3      2.978      7.499
REMARK  Name = 
REMARK  9 active torsions:
REMARK  status: ('A' for Active; 'I' for Inactive)
REMARK    1  A    between atoms: C_2  and  C_3
REMARK    2  A    between atoms: C_7  and  C_8
REMARK    3  A    between atoms: C_13  and  O_14
REMARK    4  A    between atoms: C_18  and  O_19
REMARK    5  A    between atoms: O_19  and  C_20
REMARK    6  A    between atoms: C_23  and  O_24
REMARK    7  A    between atoms: O_24  and  C_25
REMARK    8  A    between atoms: C_25  and  C_26
REMARK    9  A    between atoms: C_26  and  N_27
REMARK                            x       y       z     vdW  Elec       q    Type
REMARK                         _______ _______ _______ _____ _____    ______ ____
ROOT
ATOM      1  C   UNL     1      -3.945  12.812  20.850  0.00  0.00    +0.000 A 
ATOM      2  C   UNL     1      -5.251  12.441  20.472  0.00  0.00    +0.000 A 
ATOM      3  C   UNL     1      -5.529  11.847  19.238  0.00  0.00    +0.000 A 
ATOM      4  C   UNL     1      -4.512  11.585  18.318  0.00  0.00    +0.000 A 
ATOM      5  C   UNL     1      -4.835  11.055  17.053  0.00  0.00    +0.000 A 
ATOM      6  C   UNL     1      -3.840  10.826  16.110  0.00  0.00    +0.000 A 
ATOM      7  C   UNL     1      -2.516  11.045  16.429  0.00  0.00    +0.000 A 
ATOM      8  C   UNL     1      -2.186  11.504  17.704  0.00  0.00    +0.000 A 
ATOM      9  C   UNL     1      -3.171  11.872  18.662  0.00  0.00    +0.000 A 
ATOM     10  C   UNL     1      -2.907  12.535  19.916  0.00  0.00    +0.000 A 
ENDROOT
BRANCH   1  15
ATOM     11  C   UNL     1      -3.238  15.446  23.546  0.00  0.00    +0.000 A 
ATOM     12  C   UNL     1      -3.358  14.700  24.716  0.00  0.00    +0.000 A 
ATOM     13  C   UNL     1      -3.640  13.341  24.637  0.00  0.00    +0.000 A 
ATOM     14  C   UNL     1      -3.804  12.725  23.389  0.00  0.00    +0.000 A 
ATOM     15  C   UNL     1      -3.738  13.452  22.187  0.00  0.00    +0.000 A 
ATOM     16  C   UNL     1      -3.437  14.827  22.299  0.00  0.00    +0.000 A 
BRANCH  11  18
ATOM     17  N   UNL     1      -2.657  17.970  23.660  0.00  0.00    +0.000 NA
ATOM     18  C   UNL     1      -2.911  16.844  23.611  0.00  0.00    +0.000 C 
ENDBRANCH  11  18
ENDBRANCH   1  15
BRANCH   6  19
ATOM     19  O   UNL     1      -4.125  10.376  14.857  0.00  0.00    +0.000 OA
ATOM     20  H   UNL     1      -4.091  11.123  14.238  0.00  0.00    +0.000 HD
ENDBRANCH   6  19
BRANCH  10  21
ATOM     21  O   UNL     1      -1.608  12.871  20.299  0.00  0.00    +0.000 OA
BRANCH  21  22
ATOM     22  C   UNL     1      -0.693  11.881  20.608  0.00  0.00    +0.000 A 
ATOM     23  C   UNL     1       0.346  11.479  19.774  0.00  0.00    +0.000 A 
ATOM     24  C   UNL     1       1.062  10.322  20.062  0.00  0.00    +0.000 A 
ATOM     25  C   UNL     1       0.861   9.620  21.257  0.00  0.00    +0.000 A 
ATOM     26  C   UNL     1      -0.101  10.090  22.151  0.00  0.00    +0.000 A 
ATOM     27  C   UNL     1      -0.885  11.210  21.821  0.00  0.00    +0.000 A 
BRANCH  25  28
ATOM     28  O   UNL     1       1.559   8.486  21.623  0.00  0.00    +0.000 OA
BRANCH  28  29
ATOM     29  C   UNL     1       1.193   7.336  20.849  0.00  0.00    +0.000 C 
BRANCH  29  30
ATOM     30  C   UNL     1       2.277   6.860  19.875  0.00  0.00    +0.000 C 
BRANCH  30  31
ATOM     31  N   UNL     1       2.219   5.390  19.674  0.00  0.00    +0.000 NA
ATOM     32  C   UNL     1       1.161   4.747  20.475  0.00  0.00    +0.000 C 
ATOM     33  C   UNL     1       1.160   3.229  20.302  0.00  0.00    +0.000 C 
ATOM     34  C   UNL     1       1.023   2.841  18.839  0.00  0.00    +0.000 C 
ATOM     35  C   UNL     1       2.075   3.561  18.005  0.00  0.00    +0.000 C 
ATOM     36  C   UNL     1       2.053   5.073  18.248  0.00  0.00    +0.000 C 
ENDBRANCH  30  31
ENDBRANCH  29  30
ENDBRANCH  28  29
ENDBRANCH  25  28
ENDBRANCH  21  22
ENDBRANCH  10  21
TORSDOF 9
ENDMDL
MODEL 6
REMARK VINA RESULT:      -7.2      4.194      8.765
REMARK  Name = 
REMARK  9 active torsions:
REMARK  status: ('A' for Active; 'I' for Inactive)
REMARK    1  A    between atoms: C_2  and  C_3
REMARK    2  A    between atoms: C_7  and  C_8
REMARK    3  A    between atoms: C_13  and  O_14
REMARK    4  A    between atoms: C_18  and  O_19
REMARK    5  A    between atoms: O_19  and  C_20
REMARK    6  A    between atoms: C_23  and  O_24
REMARK    7  A    between atoms: O_24  and  C_25
REMARK    8  A    between atoms: C_25  and  C_26
REMARK    9  A    between atoms: C_26  and  N_27
REMARK                            x       y       z     vdW  Elec       q    Type
REMARK                         _______ _______ _______ _____ _____    ______ ____
ROOT
ATOM      1  C   UNL     1      -0.266  13.220  19.690  0.00  0.00    +0.000 A 
ATOM      2  C   UNL     1      -1.345  13.889  20.301  0.00  0.00    +0.000 A 
ATOM      3  C   UNL     1      -2.668  13.470  20.141  0.00  0.00    +0.000 A 
ATOM      4  C   UNL     1      -2.982  12.354  19.363  0.00  0.00    +0.000 A 
ATOM      5  C   UNL     1      -4.331  12.002  19.159  0.00  0.00    +0.000 A 
ATOM      6  C   UNL     1      -4.664  10.919  18.355  0.00  0.00    +0.000 A 
ATOM      7  C   UNL     1      -3.673  10.128  17.809  0.00  0.00    +0.000 A 
ATOM      8  C   UNL     1      -2.336  10.432  18.065  0.00  0.00    +0.000 A 
ATOM      9  C   UNL     1      -1.941  11.598  18.776  0.00  0.00    +0.000 A 
ATOM     10  C   UNL     1      -0.585  12.075  18.905  0.00  0.00    +0.000 A 
ENDROOT
BRANCH   1  15
ATOM     11  C   UNL     1       2.942  15.285  19.298  0.00  0.00    +0.000 A 
ATOM     12  C   UNL     1       3.744  14.767  20.311  0.00  0.00    +0.000 A 
ATOM     13  C   UNL     1       3.263  13.732  21.105  0.00  0.00    +0.000 A 
ATOM     14  C   UNL     1       1.979  13.215  20.889  0.00  0.00    +0.000 A 
ATOM     15  C   UNL     1       1.120  13.742  19.908  0.00  0.00    +0.000 A 
ATOM     16  C   UNL     1       1.642  14.783  19.109  0.00  0.00    +0.000 A 
BRANCH  11  18
ATOM     17  N   UNL     1       3.844  17.175  17.768  0.00  0.00    +0.000 NA
ATOM     18  C   UNL     1       3.440  16.330  18.446  0.00  0.00    +0.000 C 
ENDBRANCH  11  18
ENDBRANCH   1  15
BRANCH   6  19
ATOM     19  O   UNL     1      -5.957  10.592  18.085  0.00  0.00    +0.000 OA
ATOM     20  H   UNL     1      -6.498  11.397  18.106  0.00  0.00    +0.000 HD
ENDBRANCH   6  19
BRANCH  10  21
ATOM     21  O   UNL     1       0.484  11.391  18.325  0.00  0.00    +0.000 OA
BRANCH  21  22
ATOM     22  C   UNL     1       0.869  10.156  18.812  0.00  0.00    +0.000 A 
ATOM     23  C   UNL     1       0.747   9.758  20.140  0.00  0.00    +0.000 A 
ATOM     24  C   UNL     1       1.378   8.599  20.581  0.00  0.00    +0.000 A 
ATOM     25  C   UNL     1       2.020   7.735  19.686  0.00  0.00    +0.000 A 
ATOM     26  C   UNL     1       2.041   8.074  18.333  0.00  0.00    +0.000 A 
ATOM     27  C   UNL     1       1.479   9.287  17.899  0.00  0.00    +0.000 A 
BRANCH  25  28
ATOM     28  O   UNL     1       2.635   6.553  20.048  0.00  0.00    +0.000 OA
BRANCH  28  29
ATOM     29  C   UNL     1       1.792   5.712  20.848  0.00  0.00    +0.000 C 
BRANCH  29  30
ATOM     30  C   UNL     1       1.182   4.527  20.091  0.00  0.00    +0.000 C 
BRANCH  30  31
ATOM     31  N   UNL     1       2.222   3.755  19.365  0.00  0.00    +0.000 NA
ATOM     32  C   UNL     1       3.108   3.000  20.270  0.00  0.00    +0.000 C 
ATOM     33  C   UNL     1       4.208   2.265  19.506  0.00  0.00    +0.000 C 
ATOM     34  C   UNL     1       3.623   1.342  18.449  0.00  0.00    +0.000 C 
ATOM     35  C   UNL     1       2.655   2.111  17.558  0.00  0.00    +0.000 C 
ATOM     36  C   UNL     1       1.600   2.856  18.380  0.00  0.00    +0.000 C 
ENDBRANCH  30  31
ENDBRANCH  29  30
ENDBRANCH  28  29
ENDBRANCH  25  28
ENDBRANCH  21  22
ENDBRANCH  10  21
TORSDOF 9
ENDMDL
MODEL 7
REMARK VINA RESULT:      -7.2      3.108      8.173
REMARK  Name = 
REMARK  9 active torsions:
REMARK  status: ('A' for Active; 'I' for Inactive)
REMARK    1  A    between atoms: C_2  and  C_3
REMARK    2  A    between atoms: C_7  and  C_8
REMARK    3  A    between atoms: C_13  and  O_14
REMARK    4  A    between atoms: C_18  and  O_19
REMARK    5  A    between atoms: O_19  and  C_20
REMARK    6  A    between atoms: C_23  and  O_24
REMARK    7  A    between atoms: O_24  and  C_25
REMARK    8  A    between atoms: C_25  and  C_26
REMARK    9  A    between atoms: C_26  and  N_27
REMARK                            x       y       z     vdW  Elec       q    Type
REMARK                         _______ _______ _______ _____ _____    ______ ____
ROOT
ATOM      1  C   UNL     1      -2.759  12.466  19.934  0.00  0.00    +0.000 A 
ATOM      2  C   UNL     1      -4.153  12.509  19.732  0.00  0.00    +0.000 A 
ATOM      3  C   UNL     1      -4.757  11.980  18.589  0.00  0.00    +0.000 A 
ATOM      4  C   UNL     1      -3.997  11.373  17.587  0.00  0.00    +0.000 A 
ATOM      5  C   UNL     1      -4.628  10.917  16.413  0.00  0.00    +0.000 A 
ATOM      6  C   UNL     1      -3.882  10.347  15.388  0.00  0.00    +0.000 A 
ATOM      7  C   UNL     1      -2.525  10.151  15.542  0.00  0.00    +0.000 A 
ATOM      8  C   UNL     1      -1.908  10.538  16.731  0.00  0.00    +0.000 A 
ATOM      9  C   UNL     1      -2.600  11.237  17.758  0.00  0.00    +0.000 A 
ATOM     10  C   UNL     1      -1.986  11.837  18.918  0.00  0.00    +0.000 A 
ENDROOT
BRANCH   1  15
ATOM     11  C   UNL     1      -1.130  14.954  22.356  0.00  0.00    +0.000 A 
ATOM     12  C   UNL     1      -1.133  14.237  23.550  0.00  0.00    +0.000 A 
ATOM     13  C   UNL     1      -1.635  12.941  23.571  0.00  0.00    +0.000 A 
ATOM     14  C   UNL     1      -2.137  12.359  22.399  0.00  0.00    +0.000 A 
ATOM     15  C   UNL     1      -2.195  13.066  21.184  0.00  0.00    +0.000 A 
ATOM     16  C   UNL     1      -1.666  14.374  21.191  0.00  0.00    +0.000 A 
BRANCH  11  18
ATOM     17  N   UNL     1      -0.148  17.353  22.278  0.00  0.00    +0.000 NA
ATOM     18  C   UNL     1      -0.581  16.281  22.311  0.00  0.00    +0.000 C 
ENDBRANCH  11  18
ENDBRANCH   1  15
BRANCH   6  19
ATOM     19  O   UNL     1      -4.450   9.956  14.214  0.00  0.00    +0.000 OA
ATOM     20  H   UNL     1      -4.265  10.624  13.535  0.00  0.00    +0.000 HD
ENDBRANCH   6  19
BRANCH  10  21
ATOM     21  O   UNL     1      -0.608  11.764  19.129  0.00  0.00    +0.000 OA
BRANCH  21  22
ATOM     22  C   UNL     1      -0.016  10.558  19.459  0.00  0.00    +0.000 A 
ATOM     23  C   UNL     1      -0.252   9.860  20.640  0.00  0.00    +0.000 A 
ATOM     24  C   UNL     1       0.563   8.788  20.990  0.00  0.00    +0.000 A 
ATOM     25  C   UNL     1       1.535   8.296  20.110  0.00  0.00    +0.000 A 
ATOM     26  C   UNL     1       1.693   8.922  18.874  0.00  0.00    +0.000 A 
ATOM     27  C   UNL     1       0.929  10.059  18.555  0.00  0.00    +0.000 A 
BRANCH  25  28
ATOM     28  O   UNL     1       2.353   7.216  20.378  0.00  0.00    +0.000 OA
BRANCH  28  29
ATOM     29  C   UNL     1       1.627   5.986  20.496  0.00  0.00    +0.000 C 
BRANCH  29  30
ATOM     30  C   UNL     1       2.406   4.747  20.037  0.00  0.00    +0.000 C 
BRANCH  30  31
ATOM     31  N   UNL     1       3.585   5.121  19.217  0.00  0.00    +0.000 NA
ATOM     32  C   UNL     1       4.664   4.118  19.279  0.00  0.00    +0.000 C 
ATOM     33  C   UNL     1       5.891   4.552  18.480  0.00  0.00    +0.000 C 
ATOM     34  C   UNL     1       5.530   4.849  17.033  0.00  0.00    +0.000 C 
ATOM     35  C   UNL     1       4.369   5.834  16.974  0.00  0.00    +0.000 C 
ATOM     36  C   UNL     1       3.184   5.364  17.823  0.00  0.00    +0.000 C 
ENDBRANCH  30  31
ENDBRANCH  29  30
ENDBRANCH  28  29
ENDBRANCH  25  28
ENDBRANCH  21  22
ENDBRANCH  10  21
TORSDOF 9
ENDMDL
MODEL 8
REMARK VINA RESULT:      -7.2      3.232      8.045
REMARK  Name = 
REMARK  9 active torsions:
REMARK  status: ('A' for Active; 'I' for Inactive)
REMARK    1  A    between atoms: C_2  and  C_3
REMARK    2  A    between atoms: C_7  and  C_8
REMARK    3  A    between atoms: C_13  and  O_14
REMARK    4  A    between atoms: C_18  and  O_19
REMARK    5  A    between atoms: O_19  and  C_20
REMARK    6  A    between atoms: C_23  and  O_24
REMARK    7  A    between atoms: O_24  and  C_25
REMARK    8  A    between atoms: C_25  and  C_26
REMARK    9  A    between atoms: C_26  and  N_27
REMARK                            x       y       z     vdW  Elec       q    Type
REMARK                         _______ _______ _______ _____ _____    ______ ____
ROOT
ATOM      1  C   UNL     1      -3.043  12.634  20.184  0.00  0.00    +0.000 A 
ATOM      2  C   UNL     1      -4.418  12.684  19.880  0.00  0.00    +0.000 A 
ATOM      3  C   UNL     1      -4.940  12.149  18.700  0.00  0.00    +0.000 A 
ATOM      4  C   UNL     1      -4.113  11.529  17.761  0.00  0.00    +0.000 A 
ATOM      5  C   UNL     1      -4.659  11.067  16.547  0.00  0.00    +0.000 A 
ATOM      6  C   UNL     1      -3.844  10.484  15.584  0.00  0.00    +0.000 A 
ATOM      7  C   UNL     1      -2.503  10.282  15.838  0.00  0.00    +0.000 A 
ATOM      8  C   UNL     1      -1.972  10.675  17.067  0.00  0.00    +0.000 A 
ATOM      9  C   UNL     1      -2.733  11.387  18.035  0.00  0.00    +0.000 A 
ATOM     10  C   UNL     1      -2.201  11.993  19.231  0.00  0.00    +0.000 A 
ENDROOT
BRANCH   1  15
ATOM     11  C   UNL     1      -1.448  15.070  22.679  0.00  0.00    +0.000 A 
ATOM     12  C   UNL     1      -1.670  14.426  23.894  0.00  0.00    +0.000 A 
ATOM     13  C   UNL     1      -2.311  13.192  23.908  0.00  0.00    +0.000 A 
ATOM     14  C   UNL     1      -2.732  12.601  22.709  0.00  0.00    +0.000 A 
ATOM     15  C   UNL     1      -2.568  13.241  21.467  0.00  0.00    +0.000 A 
ATOM     16  C   UNL     1      -1.902  14.485  21.483  0.00  0.00    +0.000 A 
BRANCH  11  18
ATOM     17  N   UNL     1      -0.203  17.344  22.612  0.00  0.00    +0.000 NA
ATOM     18  C   UNL     1      -0.755  16.329  22.646  0.00  0.00    +0.000 C 
ENDBRANCH  11  18
ENDBRANCH   1  15
BRANCH   6  19
ATOM     19  O   UNL     1      -4.327  10.087  14.375  0.00  0.00    +0.000 OA
ATOM     20  H   UNL     1      -4.096   9.156  14.232  0.00  0.00    +0.000 HD
ENDBRANCH   6  19
BRANCH  10  21
ATOM     21  O   UNL     1      -0.844  11.913  19.544  0.00  0.00    +0.000 OA
BRANCH  21  22
ATOM     22  C   UNL     1      -0.293  10.716  19.965  0.00  0.00    +0.000 A 
ATOM     23  C   UNL     1      -0.594  10.091  21.171  0.00  0.00    +0.000 A 
ATOM     24  C   UNL     1       0.181   9.024  21.615  0.00  0.00    +0.000 A 
ATOM     25  C   UNL     1       1.177   8.462  20.806  0.00  0.00    +0.000 A 
ATOM     26  C   UNL     1       1.400   9.014  19.545  0.00  0.00    +0.000 A 
ATOM     27  C   UNL     1       0.676  10.147  19.131  0.00  0.00    +0.000 A 
BRANCH  25  28
ATOM     28  O   UNL     1       1.959   7.383  21.167  0.00  0.00    +0.000 OA
BRANCH  28  29
ATOM     29  C   UNL     1       1.835   6.280  20.259  0.00  0.00    +0.000 C 
BRANCH  29  30
ATOM     30  C   UNL     1       2.208   4.921  20.863  0.00  0.00    +0.000 C 
BRANCH  30  31
ATOM     31  N   UNL     1       2.748   4.000  19.832  0.00  0.00    +0.000 NA
ATOM     32  C   UNL     1       2.066   2.693  19.821  0.00  0.00    +0.000 C 
ATOM     33  C   UNL     1       2.680   1.739  18.798  0.00  0.00    +0.000 C 
ATOM     34  C   UNL     1       2.675   2.348  17.405  0.00  0.00    +0.000 C 
ATOM     35  C   UNL     1       3.319   3.728  17.433  0.00  0.00    +0.000 C 
ATOM     36  C   UNL     1       2.689   4.625  18.502  0.00  0.00    +0.000 C 
ENDBRANCH  30  31
ENDBRANCH  29  30
ENDBRANCH  28  29
ENDBRANCH  25  28
ENDBRANCH  21  22
ENDBRANCH  10  21
TORSDOF 9
ENDMDL
MODEL 9
REMARK VINA RESULT:      -7.1      4.465      9.378
REMARK  Name = 
REMARK  9 active torsions:
REMARK  status: ('A' for Active; 'I' for Inactive)
REMARK    1  A    between atoms: C_2  and  C_3
REMARK    2  A    between atoms: C_7  and  C_8
REMARK    3  A    between atoms: C_13  and  O_14
REMARK    4  A    between atoms: C_18  and  O_19
REMARK    5  A    between atoms: O_19  and  C_20
REMARK    6  A    between atoms: C_23  and  O_24
REMARK    7  A    between atoms: O_24  and  C_25
REMARK    8  A    between atoms: C_25  and  C_26
REMARK    9  A    between atoms: C_26  and  N_27
REMARK                            x       y       z     vdW  Elec       q    Type
REMARK                         _______ _______ _______ _____ _____    ______ ____
ROOT
ATOM      1  C   UNL     1       0.069  13.167  19.748  0.00  0.00    +0.000 A 
ATOM      2  C   UNL     1      -1.045  13.828  20.302  0.00  0.00    +0.000 A 
ATOM      3  C   UNL     1      -2.355  13.403  20.070  0.00  0.00    +0.000 A 
ATOM      4  C   UNL     1      -2.621  12.287  19.274  0.00  0.00    +0.000 A 
ATOM      5  C   UNL     1      -3.955  11.928  18.997  0.00  0.00    +0.000 A 
ATOM      6  C   UNL     1      -4.238  10.845  18.174  0.00  0.00    +0.000 A 
ATOM      7  C   UNL     1      -3.215  10.061  17.681  0.00  0.00    +0.000 A 
ATOM      8  C   UNL     1      -1.895  10.372  18.009  0.00  0.00    +0.000 A 
ATOM      9  C   UNL     1      -1.545  11.539  18.742  0.00  0.00    +0.000 A 
ATOM     10  C   UNL     1      -0.201  12.023  18.945  0.00  0.00    +0.000 A 
ENDROOT
BRANCH   1  15
ATOM     11  C   UNL     1       3.287  15.243  19.525  0.00  0.00    +0.000 A 
ATOM     12  C   UNL     1       4.031  14.735  20.587  0.00  0.00    +0.000 A 
ATOM     13  C   UNL     1       3.509  13.704  21.360  0.00  0.00    +0.000 A 
ATOM     14  C   UNL     1       2.241  13.180  21.074  0.00  0.00    +0.000 A 
ATOM     15  C   UNL     1       1.438  13.697  20.041  0.00  0.00    +0.000 A 
ATOM     16  C   UNL     1       2.001  14.733  19.265  0.00  0.00    +0.000 A 
BRANCH  11  18
ATOM     17  N   UNL     1       4.267  17.113  18.020  0.00  0.00    +0.000 NA
ATOM     18  C   UNL     1       3.829  16.283  18.695  0.00  0.00    +0.000 C 
ENDBRANCH  11  18
ENDBRANCH   1  15
BRANCH   6  19
ATOM     19  O   UNL     1      -5.513  10.511  17.835  0.00  0.00    +0.000 OA
ATOM     20  H   UNL     1      -6.116  10.815  18.532  0.00  0.00    +0.000 HD
ENDBRANCH   6  19
BRANCH  10  21
ATOM     21  O   UNL     1       0.901  11.346  18.422  0.00  0.00    +0.000 OA
BRANCH  21  22
ATOM     22  C   UNL     1       1.174  10.048  18.814  0.00  0.00    +0.000 A 
ATOM     23  C   UNL     1       1.016   9.565  20.109  0.00  0.00    +0.000 A 
ATOM     24  C   UNL     1       1.540   8.325  20.459  0.00  0.00    +0.000 A 
ATOM     25  C   UNL     1       2.103   7.476  19.498  0.00  0.00    +0.000 A 
ATOM     26  C   UNL     1       2.155   7.911  18.174  0.00  0.00    +0.000 A 
ATOM     27  C   UNL     1       1.705   9.199  17.835  0.00  0.00    +0.000 A 
BRANCH  25  28
ATOM     28  O   UNL     1       2.609   6.220  19.768  0.00  0.00    +0.000 OA
BRANCH  28  29
ATOM     29  C   UNL     1       3.901   6.005  19.183  0.00  0.00    +0.000 C 
BRANCH  29  30
ATOM     30  C   UNL     1       4.392   4.554  19.253  0.00  0.00    +0.000 C 
BRANCH  30  31
ATOM     31  N   UNL     1       5.278   4.226  18.108  0.00  0.00    +0.000 NA
ATOM     32  C   UNL     1       4.674   4.560  16.805  0.00  0.00    +0.000 C 
ATOM     33  C   UNL     1       5.576   4.155  15.640  0.00  0.00    +0.000 C 
ATOM     34  C   UNL     1       6.952   4.789  15.762  0.00  0.00    +0.000 C 
ATOM     35  C   UNL     1       7.544   4.499  17.135  0.00  0.00    +0.000 C 
ATOM     36  C   UNL     1       6.581   4.890  18.261  0.00  0.00    +0.000 C 
ENDBRANCH  30  31
ENDBRANCH  29  30
ENDBRANCH  28  29
ENDBRANCH  25  28
ENDBRANCH  21  22
ENDBRANCH  10  21
TORSDOF 9
ENDMDL
