MODEL 1
REMARK VINA RESULT:      -6.8      0.000      0.000
REMARK  Name = 
REMARK  7 active torsions:
REMARK  status: ('A' for Active; 'I' for Inactive)
REMARK    1  A    between atoms: C_1  and  C_2
REMARK    2  A    between atoms: N_8  and  C_9
REMARK    3  A    between atoms: C_14  and  C_15
REMARK    4  A    between atoms: N_22  and  C_23
REMARK    5  A    between atoms: C_23  and  C_24
REMARK    6  A    between atoms: C_23  and  C_25
REMARK    7  A    between atoms: C_25  and  O_26
REMARK                            x       y       z     vdW  Elec       q    Type
REMARK                         _______ _______ _______ _____ _____    ______ ____
ROOT
ATOM      1  C   UNL     1       2.181   3.962  21.572  0.00  0.00    +0.000 C 
ATOM      2  C   UNL     1       2.280   5.169  20.688  0.00  0.00    +0.000 A 
ATOM      3  N   UNL     1       2.988   5.000  19.552  0.00  0.00    +0.000 NA
ATOM      4  C   UNL     1       3.147   6.022  18.662  0.00  0.00    +0.000 A 
ATOM      5  N   UNL     1       3.974   5.799  17.563  0.00  0.00    +0.000 N 
ATOM      6  C   UNL     1       3.983   4.424  17.045  0.00  0.00    +0.000 C 
ATOM      7  C   UNL     1       5.247   4.191  16.192  0.00  0.00    +0.000 C 
ATOM      8  N   UNL     1       5.390   5.169  15.091  0.00  0.00    +0.000 NA
ATOM      9  C   UNL     1       6.646   4.941  14.377  0.00  0.00    +0.000 C 
ATOM     10  C   UNL     1       5.358   6.541  15.654  0.00  0.00    +0.000 C 
ATOM     11  C   UNL     1       4.106   6.828  16.523  0.00  0.00    +0.000 C 
ATOM     12  C   UNL     1       2.495   7.234  18.996  0.00  0.00    +0.000 A 
ATOM     13  N   UNL     1       2.391   8.437  18.344  0.00  0.00    +0.000 NA
ATOM     14  C   UNL     1       1.692   9.252  19.117  0.00  0.00    +0.000 A 
ATOM     15  N   UNL     1       1.284   8.572  20.268  0.00  0.00    +0.000 N 
ATOM     16  C   UNL     1       1.804   7.291  20.194  0.00  0.00    +0.000 A 
ATOM     17  N   UNL     1       1.665   6.299  21.093  0.00  0.00    +0.000 NA
ENDROOT
BRANCH  14  18
ATOM     18  C   UNL     1       1.427  10.653  18.723  0.00  0.00    +0.000 A 
ATOM     19  C   UNL     1       2.477  11.580  18.608  0.00  0.00    +0.000 A 
ATOM     20  C   UNL     1       2.239  12.916  18.268  0.00  0.00    +0.000 A 
ATOM     21  C   UNL     1       0.939  13.371  18.090  0.00  0.00    +0.000 A 
ATOM     22  C   UNL     1      -0.125  12.489  18.250  0.00  0.00    +0.000 A 
ATOM     23  C   UNL     1       0.112  11.141  18.553  0.00  0.00    +0.000 A 
ATOM     24 CL   UNL     1      -1.303  10.145  18.690  0.00  0.00    +0.000 Cl
ENDBRANCH  14  18
BRANCH  15  25
ATOM     25  C   UNL     1       0.443   9.055  21.359  0.00  0.00    +0.000 C 
ATOM     26  C   UNL     1      -0.761   8.136  21.592  0.00  0.00    +0.000 C 
BRANCH  25  27
ATOM     27  C   UNL     1       1.199   9.312  22.669  0.00  0.00    +0.000 C 
BRANCH  27  28
ATOM     28  O   UNL     1       0.307   9.712  23.707  0.00  0.00    +0.000 OA
ATOM     29  H   UNL     1       0.321   9.016  24.389  0.00  0.00    +0.000 HD
ENDBRANCH  27  28
ENDBRANCH  25  27
ENDBRANCH  15  25
TORSDOF 4
ENDMDL
MODEL 2
REMARK VINA RESULT:      -6.6      6.893      9.148
REMARK  Name = 
REMARK  7 active torsions:
REMARK  status: ('A' for Active; 'I' for Inactive)
REMARK    1  A    between atoms: C_1  and  C_2
REMARK    2  A    between atoms: N_8  and  C_9
REMARK    3  A    between atoms: C_14  and  C_15
REMARK    4  A    between atoms: N_22  and  C_23
REMARK    5  A    between atoms: C_23  and  C_24
REMARK    6  A    between atoms: C_23  and  C_25
REMARK    7  A    between atoms: C_25  and  O_26
REMARK                            x       y       z     vdW  Elec       q    Type
REMARK                         _______ _______ _______ _____ _____    ______ ____
ROOT
ATOM      1  C   UNL     1      -2.799  10.351  16.188  0.00  0.00    +0.000 C 
ATOM      2  C   UNL     1      -3.027  11.109  17.462  0.00  0.00    +0.000 A 
ATOM      3  N   UNL     1      -1.934  11.693  17.994  0.00  0.00    +0.000 NA
ATOM      4  C   UNL     1      -2.012  12.416  19.149  0.00  0.00    +0.000 A 
ATOM      5  N   UNL     1      -0.824  12.902  19.689  0.00  0.00    +0.000 N 
ATOM      6  C   UNL     1       0.212  13.269  18.713  0.00  0.00    +0.000 C 
ATOM      7  C   UNL     1       1.591  13.317  19.402  0.00  0.00    +0.000 C 
ATOM      8  N   UNL     1       1.623  14.225  20.570  0.00  0.00    +0.000 NA
ATOM      9  C   UNL     1       2.932  14.159  21.221  0.00  0.00    +0.000 C 
ATOM     10  C   UNL     1       0.553  13.832  21.519  0.00  0.00    +0.000 C 
ATOM     11  C   UNL     1      -0.856  13.766  20.876  0.00  0.00    +0.000 C 
ATOM     12  C   UNL     1      -3.306  12.535  19.712  0.00  0.00    +0.000 A 
ATOM     13  N   UNL     1      -3.776  13.202  20.815  0.00  0.00    +0.000 NA
ATOM     14  C   UNL     1      -5.072  12.954  20.911  0.00  0.00    +0.000 A 
ATOM     15  N   UNL     1      -5.478  12.158  19.837  0.00  0.00    +0.000 N 
ATOM     16  C   UNL     1      -4.352  11.884  19.080  0.00  0.00    +0.000 A 
ATOM     17  N   UNL     1      -4.281  11.144  17.958  0.00  0.00    +0.000 NA
ENDROOT
BRANCH  14  18
ATOM     18  C   UNL     1      -5.882  13.497  22.024  0.00  0.00    +0.000 A 
ATOM     19  C   UNL     1      -6.328  12.663  23.065  0.00  0.00    +0.000 A 
ATOM     20  C   UNL     1      -7.121  13.155  24.107  0.00  0.00    +0.000 A 
ATOM     21  C   UNL     1      -7.536  14.481  24.103  0.00  0.00    +0.000 A 
ATOM     22  C   UNL     1      -7.155  15.317  23.058  0.00  0.00    +0.000 A 
ATOM     23  C   UNL     1      -6.328  14.837  22.032  0.00  0.00    +0.000 A 
ATOM     24 CL   UNL     1      -5.902  15.995  20.812  0.00  0.00    +0.000 Cl
ENDBRANCH  14  18
BRANCH  15  25
ATOM     25  C   UNL     1      -6.823  11.698  19.504  0.00  0.00    +0.000 C 
ATOM     26  C   UNL     1      -7.135  11.897  18.017  0.00  0.00    +0.000 C 
BRANCH  25  27
ATOM     27  C   UNL     1      -7.121  10.257  19.940  0.00  0.00    +0.000 C 
BRANCH  27  28
ATOM     28  O   UNL     1      -7.437   9.436  18.818  0.00  0.00    +0.000 OA
ATOM     29  H   UNL     1      -8.255   8.952  19.032  0.00  0.00    +0.000 HD
ENDBRANCH  27  28
ENDBRANCH  25  27
ENDBRANCH  15  25
TORSDOF 4
ENDMDL
MODEL 3
REMARK VINA RESULT:      -6.4      6.222      9.566
REMARK  Name = 
REMARK  7 active torsions:
REMARK  status: ('A' for Active; 'I' for Inactive)
REMARK    1  A    between atoms: C_1  and  C_2
REMARK    2  A    between atoms: N_8  and  C_9
REMARK    3  A    between atoms: C_14  and  C_15
REMARK    4  A    between atoms: N_22  and  C_23
REMARK    5  A    between atoms: C_23  and  C_24
REMARK    6  A    between atoms: C_23  and  C_25
REMARK    7  A    between atoms: C_25  and  O_26
REMARK                            x       y       z     vdW  Elec       q    Type
REMARK                         _______ _______ _______ _____ _____    ______ ____
ROOT
ATOM      1  C   UNL     1      -0.326   9.641  23.248  0.00  0.00    +0.000 C 
ATOM      2  C   UNL     1      -0.679  11.000  22.722  0.00  0.00    +0.000 A 
ATOM      3  N   UNL     1      -1.892  11.465  23.083  0.00  0.00    +0.000 NA
ATOM      4  C   UNL     1      -2.327  12.692  22.673  0.00  0.00    +0.000 A 
ATOM      5  N   UNL     1      -3.630  13.059  23.003  0.00  0.00    +0.000 N 
ATOM      6  C   UNL     1      -4.129  12.542  24.285  0.00  0.00    +0.000 C 
ATOM      7  C   UNL     1      -5.670  12.593  24.309  0.00  0.00    +0.000 C 
ATOM      8  N   UNL     1      -6.210  13.944  24.041  0.00  0.00    +0.000 NA
ATOM      9  C   UNL     1      -7.671  13.901  23.999  0.00  0.00    +0.000 C 
ATOM     10  C   UNL     1      -5.669  14.434  22.750  0.00  0.00    +0.000 C 
ATOM     11  C   UNL     1      -4.121  14.403  22.672  0.00  0.00    +0.000 C 
ATOM     12  C   UNL     1      -1.414  13.437  21.889  0.00  0.00    +0.000 A 
ATOM     13  N   UNL     1      -1.475  14.695  21.344  0.00  0.00    +0.000 NA
ATOM     14  C   UNL     1      -0.355  14.893  20.668  0.00  0.00    +0.000 A 
ATOM     15  N   UNL     1       0.479  13.781  20.806  0.00  0.00    +0.000 N 
ATOM     16  C   UNL     1      -0.199  12.851  21.575  0.00  0.00    +0.000 A 
ATOM     17  N   UNL     1       0.229  11.631  21.949  0.00  0.00    +0.000 NA
ENDROOT
BRANCH  14  18
ATOM     18  C   UNL     1      -0.116  16.147  19.921  0.00  0.00    +0.000 A 
ATOM     19  C   UNL     1      -0.399  16.233  18.546  0.00  0.00    +0.000 A 
ATOM     20  C   UNL     1      -0.148  17.402  17.820  0.00  0.00    +0.000 A 
ATOM     21  C   UNL     1       0.446  18.495  18.437  0.00  0.00    +0.000 A 
ATOM     22  C   UNL     1       0.787  18.422  19.784  0.00  0.00    +0.000 A 
ATOM     23  C   UNL     1       0.502  17.266  20.525  0.00  0.00    +0.000 A 
ATOM     24 CL   UNL     1       0.949  17.322  22.201  0.00  0.00    +0.000 Cl
ENDBRANCH  14  18
BRANCH  15  25
ATOM     25  C   UNL     1       1.832  13.589  20.289  0.00  0.00    +0.000 C 
ATOM     26  C   UNL     1       1.860  13.619  18.758  0.00  0.00    +0.000 C 
BRANCH  25  27
ATOM     27  C   UNL     1       2.872  14.552  20.876  0.00  0.00    +0.000 C 
BRANCH  27  28
ATOM     28  O   UNL     1       2.868  14.506  22.301  0.00  0.00    +0.000 OA
ATOM     29  H   UNL     1       3.192  15.367  22.622  0.00  0.00    +0.000 HD
ENDBRANCH  27  28
ENDBRANCH  25  27
ENDBRANCH  15  25
TORSDOF 4
ENDMDL
MODEL 4
REMARK VINA RESULT:      -6.4      5.571      9.727
REMARK  Name = 
REMARK  7 active torsions:
REMARK  status: ('A' for Active; 'I' for Inactive)
REMARK    1  A    between atoms: C_1  and  C_2
REMARK    2  A    between atoms: N_8  and  C_9
REMARK    3  A    between atoms: C_14  and  C_15
REMARK    4  A    between atoms: N_22  and  C_23
REMARK    5  A    between atoms: C_23  and  C_24
REMARK    6  A    between atoms: C_23  and  C_25
REMARK    7  A    between atoms: C_25  and  O_26
REMARK                            x       y       z     vdW  Elec       q    Type
REMARK                         _______ _______ _______ _____ _____    ______ ____
ROOT
ATOM      1  C   UNL     1      -7.164  13.251  20.642  0.00  0.00    +0.000 C 
ATOM      2  C   UNL     1      -5.675  13.074  20.645  0.00  0.00    +0.000 A 
ATOM      3  N   UNL     1      -5.034  13.560  21.728  0.00  0.00    +0.000 NA
ATOM      4  C   UNL     1      -3.679  13.455  21.851  0.00  0.00    +0.000 A 
ATOM      5  N   UNL     1      -3.081  14.070  22.948  0.00  0.00    +0.000 N 
ATOM      6  C   UNL     1      -3.886  14.096  24.177  0.00  0.00    +0.000 C 
ATOM      7  C   UNL     1      -3.356  15.186  25.131  0.00  0.00    +0.000 C 
ATOM      8  N   UNL     1      -1.919  15.029  25.447  0.00  0.00    +0.000 NA
ATOM      9  C   UNL     1      -1.466  16.138  26.287  0.00  0.00    +0.000 C 
ATOM     10  C   UNL     1      -1.146  14.989  24.182  0.00  0.00    +0.000 C 
ATOM     11  C   UNL     1      -1.640  13.911  23.184  0.00  0.00    +0.000 C 
ATOM     12  C   UNL     1      -3.017  12.780  20.797  0.00  0.00    +0.000 A 
ATOM     13  N   UNL     1      -1.701  12.449  20.594  0.00  0.00    +0.000 NA
ATOM     14  C   UNL     1      -1.616  11.846  19.420  0.00  0.00    +0.000 A 
ATOM     15  N   UNL     1      -2.890  11.729  18.859  0.00  0.00    +0.000 N 
ATOM     16  C   UNL     1      -3.780  12.332  19.732  0.00  0.00    +0.000 A 
ATOM     17  N   UNL     1      -5.112  12.455  19.586  0.00  0.00    +0.000 NA
ENDROOT
BRANCH  14  18
ATOM     18  C   UNL     1      -0.317  11.392  18.877  0.00  0.00    +0.000 A 
ATOM     19  C   UNL     1      -0.052  10.024  18.689  0.00  0.00    +0.000 A 
ATOM     20  C   UNL     1       1.183   9.578  18.206  0.00  0.00    +0.000 A 
ATOM     21  C   UNL     1       2.204  10.485  17.954  0.00  0.00    +0.000 A 
ATOM     22  C   UNL     1       1.990  11.841  18.181  0.00  0.00    +0.000 A 
ATOM     23  C   UNL     1       0.741  12.296  18.628  0.00  0.00    +0.000 A 
ATOM     24 CL   UNL     1       0.601  14.013  18.836  0.00  0.00    +0.000 Cl
ENDBRANCH  14  18
BRANCH  15  25
ATOM     25  C   UNL     1      -3.279  11.077  17.612  0.00  0.00    +0.000 C 
ATOM     26  C   UNL     1      -3.598   9.594  17.826  0.00  0.00    +0.000 C 
BRANCH  25  27
ATOM     27  C   UNL     1      -4.417  11.781  16.862  0.00  0.00    +0.000 C 
BRANCH  27  28
ATOM     28  O   UNL     1      -5.663  11.128  17.088  0.00  0.00    +0.000 OA
ATOM     29  H   UNL     1      -6.311  11.811  17.338  0.00  0.00    +0.000 HD
ENDBRANCH  27  28
ENDBRANCH  25  27
ENDBRANCH  15  25
TORSDOF 4
ENDMDL
MODEL 5
REMARK VINA RESULT:      -6.3      6.072     10.175
REMARK  Name = 
REMARK  7 active torsions:
REMARK  status: ('A' for Active; 'I' for Inactive)
REMARK    1  A    between atoms: C_1  and  C_2
REMARK    2  A    between atoms: N_8  and  C_9
REMARK    3  A    between atoms: C_14  and  C_15
REMARK    4  A    between atoms: N_22  and  C_23
REMARK    5  A    between atoms: C_23  and  C_24
REMARK    6  A    between atoms: C_23  and  C_25
REMARK    7  A    between atoms: C_25  and  O_26
REMARK                            x       y       z     vdW  Elec       q    Type
REMARK                         _______ _______ _______ _____ _____    ______ ____
ROOT
ATOM      1  C   UNL     1      -7.643  11.952  19.733  0.00  0.00    +0.000 C 
ATOM      2  C   UNL     1      -6.196  12.314  19.888  0.00  0.00    +0.000 A 
ATOM      3  N   UNL     1      -5.908  13.124  20.928  0.00  0.00    +0.000 NA
ATOM      4  C   UNL     1      -4.627  13.520  21.179  0.00  0.00    +0.000 A 
ATOM      5  N   UNL     1      -4.424  14.436  22.209  0.00  0.00    +0.000 N 
ATOM      6  C   UNL     1      -5.348  14.326  23.346  0.00  0.00    +0.000 C 
ATOM      7  C   UNL     1      -5.349  15.640  24.153  0.00  0.00    +0.000 C 
ATOM      8  N   UNL     1      -4.000  16.042  24.608  0.00  0.00    +0.000 NA
ATOM      9  C   UNL     1      -4.064  17.333  25.293  0.00  0.00    +0.000 C 
ATOM     10  C   UNL     1      -3.097  16.123  23.435  0.00  0.00    +0.000 C 
ATOM     11  C   UNL     1      -3.059  14.826  22.586  0.00  0.00    +0.000 C 
ATOM     12  C   UNL     1      -3.640  13.000  20.306  0.00  0.00    +0.000 A 
ATOM     13  N   UNL     1      -2.275  13.133  20.269  0.00  0.00    +0.000 NA
ATOM     14  C   UNL     1      -1.835  12.461  19.219  0.00  0.00    +0.000 A 
ATOM     15  N   UNL     1      -2.908  11.833  18.581  0.00  0.00    +0.000 N 
ATOM     16  C   UNL     1      -4.057  12.184  19.268  0.00  0.00    +0.000 A 
ATOM     17  N   UNL     1      -5.321  11.810  18.993  0.00  0.00    +0.000 NA
ENDROOT
BRANCH  14  18
ATOM     18  C   UNL     1      -0.399  12.432  18.866  0.00  0.00    +0.000 A 
ATOM     19  C   UNL     1       0.321  11.225  18.869  0.00  0.00    +0.000 A 
ATOM     20  C   UNL     1       1.687  11.186  18.568  0.00  0.00    +0.000 A 
ATOM     21  C   UNL     1       2.379  12.363  18.313  0.00  0.00    +0.000 A 
ATOM     22  C   UNL     1       1.706  13.580  18.355  0.00  0.00    +0.000 A 
ATOM     23  C   UNL     1       0.329  13.618  18.618  0.00  0.00    +0.000 A 
ATOM     24 CL   UNL     1      -0.391  15.197  18.606  0.00  0.00    +0.000 Cl
ENDBRANCH  14  18
BRANCH  15  25
ATOM     25  C   UNL     1      -2.883  10.938  17.426  0.00  0.00    +0.000 C 
ATOM     26  C   UNL     1      -3.067   9.475  17.843  0.00  0.00    +0.000 C 
BRANCH  25  27
ATOM     27  C   UNL     1      -3.866  11.321  16.313  0.00  0.00    +0.000 C 
BRANCH  27  28
ATOM     28  O   UNL     1      -3.224  11.329  15.041  0.00  0.00    +0.000 OA
ATOM     29  H   UNL     1      -2.585  10.593  15.030  0.00  0.00    +0.000 HD
ENDBRANCH  27  28
ENDBRANCH  25  27
ENDBRANCH  15  25
TORSDOF 4
ENDMDL
MODEL 6
REMARK VINA RESULT:      -6.3      7.065      9.832
REMARK  Name = 
REMARK  7 active torsions:
REMARK  status: ('A' for Active; 'I' for Inactive)
REMARK    1  A    between atoms: C_1  and  C_2
REMARK    2  A    between atoms: N_8  and  C_9
REMARK    3  A    between atoms: C_14  and  C_15
REMARK    4  A    between atoms: N_22  and  C_23
REMARK    5  A    between atoms: C_23  and  C_24
REMARK    6  A    between atoms: C_23  and  C_25
REMARK    7  A    between atoms: C_25  and  O_26
REMARK                            x       y       z     vdW  Elec       q    Type
REMARK                         _______ _______ _______ _____ _____    ______ ____
ROOT
ATOM      1  C   UNL     1      -6.685  14.094  23.821  0.00  0.00    +0.000 C 
ATOM      2  C   UNL     1      -5.696  13.737  22.752  0.00  0.00    +0.000 A 
ATOM      3  N   UNL     1      -4.443  14.199  22.942  0.00  0.00    +0.000 NA
ATOM      4  C   UNL     1      -3.451  13.937  22.042  0.00  0.00    +0.000 A 
ATOM      5  N   UNL     1      -2.210  14.532  22.257  0.00  0.00    +0.000 N 
ATOM      6  C   UNL     1      -1.834  14.722  23.665  0.00  0.00    +0.000 C 
ATOM      7  C   UNL     1      -0.725  15.788  23.774  0.00  0.00    +0.000 C 
ATOM      8  N   UNL     1       0.463  15.475  22.949  0.00  0.00    +0.000 NA
ATOM      9  C   UNL     1       1.437  16.563  23.036  0.00  0.00    +0.000 C 
ATOM     10  C   UNL     1       0.037  15.273  21.543  0.00  0.00    +0.000 C 
ATOM     11  C   UNL     1      -1.080  14.211  21.377  0.00  0.00    +0.000 C 
ATOM     12  C   UNL     1      -3.821  13.130  20.938  0.00  0.00    +0.000 A 
ATOM     13  N   UNL     1      -3.107  12.631  19.878  0.00  0.00    +0.000 NA
ATOM     14  C   UNL     1      -3.948  11.961  19.109  0.00  0.00    +0.000 A 
ATOM     15  N   UNL     1      -5.220  11.969  19.686  0.00  0.00    +0.000 N 
ATOM     16  C   UNL     1      -5.141  12.722  20.845  0.00  0.00    +0.000 A 
ATOM     17  N   UNL     1      -6.134  12.999  21.711  0.00  0.00    +0.000 NA
ENDROOT
BRANCH  14  18
ATOM     18  C   UNL     1      -3.504  11.323  17.850  0.00  0.00    +0.000 A 
ATOM     19  C   UNL     1      -4.273  11.426  16.678  0.00  0.00    +0.000 A 
ATOM     20  C   UNL     1      -3.882  10.803  15.489  0.00  0.00    +0.000 A 
ATOM     21  C   UNL     1      -2.741  10.012  15.457  0.00  0.00    +0.000 A 
ATOM     22  C   UNL     1      -1.987   9.847  16.615  0.00  0.00    +0.000 A 
ATOM     23  C   UNL     1      -2.355  10.502  17.799  0.00  0.00    +0.000 A 
ATOM     24 CL   UNL     1      -1.308  10.236  19.157  0.00  0.00    +0.000 Cl
ENDBRANCH  14  18
BRANCH  15  25
ATOM     25  C   UNL     1      -6.435  11.304  19.222  0.00  0.00    +0.000 C 
ATOM     26  C   UNL     1      -7.175  10.615  20.372  0.00  0.00    +0.000 C 
BRANCH  25  27
ATOM     27  C   UNL     1      -7.381  12.208  18.422  0.00  0.00    +0.000 C 
BRANCH  27  28
ATOM     28  O   UNL     1      -7.916  13.244  19.242  0.00  0.00    +0.000 OA
ATOM     29  H   UNL     1      -7.174  13.812  19.518  0.00  0.00    +0.000 HD
ENDBRANCH  27  28
ENDBRANCH  25  27
ENDBRANCH  15  25
TORSDOF 4
ENDMDL
MODEL 7
REMARK VINA RESULT:      -6.3      6.538      8.942
REMARK  Name = 
REMARK  7 active torsions:
REMARK  status: ('A' for Active; 'I' for Inactive)
REMARK    1  A    between atoms: C_1  and  C_2
REMARK    2  A    between atoms: N_8  and  C_9
REMARK    3  A    between atoms: C_14  and  C_15
REMARK    4  A    between atoms: N_22  and  C_23
REMARK    5  A    between atoms: C_23  and  C_24
REMARK    6  A    between atoms: C_23  and  C_25
REMARK    7  A    between atoms: C_25  and  O_26
REMARK                            x       y       z     vdW  Elec       q    Type
REMARK                         _______ _______ _______ _____ _____    ______ ____
ROOT
ATOM      1  C   UNL     1      -2.896   9.715  16.653  0.00  0.00    +0.000 C 
ATOM      2  C   UNL     1      -3.067  10.739  17.735  0.00  0.00    +0.000 A 
ATOM      3  N   UNL     1      -1.927  11.299  18.190  0.00  0.00    +0.000 NA
ATOM      4  C   UNL     1      -1.950  12.248  19.170  0.00  0.00    +0.000 A 
ATOM      5  N   UNL     1      -0.727  12.705  19.657  0.00  0.00    +0.000 N 
ATOM      6  C   UNL     1       0.368  12.749  18.678  0.00  0.00    +0.000 C 
ATOM      7  C   UNL     1       1.726  12.790  19.407  0.00  0.00    +0.000 C 
ATOM      8  N   UNL     1       1.833  13.909  20.369  0.00  0.00    +0.000 NA
ATOM      9  C   UNL     1       3.109  13.839  21.081  0.00  0.00    +0.000 C 
ATOM     10  C   UNL     1       0.703  13.837  21.325  0.00  0.00    +0.000 C 
ATOM     11  C   UNL     1      -0.689  13.792  20.643  0.00  0.00    +0.000 C 
ATOM     12  C   UNL     1      -3.235  12.618  19.637  0.00  0.00    +0.000 A 
ATOM     13  N   UNL     1      -3.652  13.545  20.559  0.00  0.00    +0.000 NA
ATOM     14  C   UNL     1      -4.970  13.462  20.642  0.00  0.00    +0.000 A 
ATOM     15  N   UNL     1      -5.438  12.511  19.732  0.00  0.00    +0.000 N 
ATOM     16  C   UNL     1      -4.333  11.968  19.100  0.00  0.00    +0.000 A 
ATOM     17  N   UNL     1      -4.320  11.010  18.154  0.00  0.00    +0.000 NA
ENDROOT
BRANCH  14  18
ATOM     18  C   UNL     1      -5.739  14.306  21.582  0.00  0.00    +0.000 A 
ATOM     19  C   UNL     1      -6.482  15.407  21.122  0.00  0.00    +0.000 A 
ATOM     20  C   UNL     1      -7.189  16.232  22.003  0.00  0.00    +0.000 A 
ATOM     21  C   UNL     1      -7.123  16.011  23.372  0.00  0.00    +0.000 A 
ATOM     22  C   UNL     1      -6.352  14.961  23.863  0.00  0.00    +0.000 A 
ATOM     23  C   UNL     1      -5.674  14.108  22.980  0.00  0.00    +0.000 A 
ATOM     24 CL   UNL     1      -4.779  12.820  23.724  0.00  0.00    +0.000 Cl
ENDBRANCH  14  18
BRANCH  15  25
ATOM     25  C   UNL     1      -6.819  12.139  19.435  0.00  0.00    +0.000 C 
ATOM     26  C   UNL     1      -7.147  12.330  17.951  0.00  0.00    +0.000 C 
BRANCH  25  27
ATOM     27  C   UNL     1      -7.207  10.732  19.907  0.00  0.00    +0.000 C 
BRANCH  27  28
ATOM     28  O   UNL     1      -7.229   9.813  18.818  0.00  0.00    +0.000 OA
ATOM     29  H   UNL     1      -7.665   8.999  19.131  0.00  0.00    +0.000 HD
ENDBRANCH  27  28
ENDBRANCH  25  27
ENDBRANCH  15  25
TORSDOF 4
ENDMDL
MODEL 8
REMARK VINA RESULT:      -6.3      5.202      9.507
REMARK  Name = 
REMARK  7 active torsions:
REMARK  status: ('A' for Active; 'I' for Inactive)
REMARK    1  A    between atoms: C_1  and  C_2
REMARK    2  A    between atoms: N_8  and  C_9
REMARK    3  A    between atoms: C_14  and  C_15
REMARK    4  A    between atoms: N_22  and  C_23
REMARK    5  A    between atoms: C_23  and  C_24
REMARK    6  A    between atoms: C_23  and  C_25
REMARK    7  A    between atoms: C_25  and  O_26
REMARK                            x       y       z     vdW  Elec       q    Type
REMARK                         _______ _______ _______ _____ _____    ______ ____
ROOT
ATOM      1  C   UNL     1      -6.466  13.645  19.255  0.00  0.00    +0.000 C 
ATOM      2  C   UNL     1      -5.107  13.145  19.642  0.00  0.00    +0.000 A 
ATOM      3  N   UNL     1      -4.618  13.630  20.803  0.00  0.00    +0.000 NA
ATOM      4  C   UNL     1      -3.393  13.247  21.266  0.00  0.00    +0.000 A 
ATOM      5  N   UNL     1      -2.916  13.867  22.419  0.00  0.00    +0.000 N 
ATOM      6  C   UNL     1      -3.939  14.249  23.403  0.00  0.00    +0.000 C 
ATOM      7  C   UNL     1      -3.377  15.321  24.358  0.00  0.00    +0.000 C 
ATOM      8  N   UNL     1      -2.129  14.899  25.033  0.00  0.00    +0.000 NA
ATOM      9  C   UNL     1      -1.610  15.990  25.857  0.00  0.00    +0.000 C 
ATOM     10  C   UNL     1      -1.133  14.506  24.007  0.00  0.00    +0.000 C 
ATOM     11  C   UNL     1      -1.649  13.430  23.017  0.00  0.00    +0.000 C 
ATOM     12  C   UNL     1      -2.705  12.297  20.473  0.00  0.00    +0.000 A 
ATOM     13  N   UNL     1      -1.502  11.658  20.633  0.00  0.00    +0.000 NA
ATOM     14  C   UNL     1      -1.314  10.887  19.574  0.00  0.00    +0.000 A 
ATOM     15  N   UNL     1      -2.423  10.974  18.728  0.00  0.00    +0.000 N 
ATOM     16  C   UNL     1      -3.304  11.878  19.296  0.00  0.00    +0.000 A 
ATOM     17  N   UNL     1      -4.498  12.270  18.815  0.00  0.00    +0.000 NA
ENDROOT
BRANCH  14  18
ATOM     18  C   UNL     1      -0.083  10.083  19.412  0.00  0.00    +0.000 A 
ATOM     19  C   UNL     1       0.631  10.094  18.201  0.00  0.00    +0.000 A 
ATOM     20  C   UNL     1       1.780   9.316  18.022  0.00  0.00    +0.000 A 
ATOM     21  C   UNL     1       2.208   8.461  19.030  0.00  0.00    +0.000 A 
ATOM     22  C   UNL     1       1.491   8.388  20.220  0.00  0.00    +0.000 A 
ATOM     23  C   UNL     1       0.362   9.196  20.418  0.00  0.00    +0.000 A 
ATOM     24 CL   UNL     1      -0.417   9.029  21.959  0.00  0.00    +0.000 Cl
ENDBRANCH  14  18
BRANCH  15  25
ATOM     25  C   UNL     1      -2.678  10.249  17.486  0.00  0.00    +0.000 C 
ATOM     26  C   UNL     1      -3.969   9.428  17.567  0.00  0.00    +0.000 C 
BRANCH  25  27
ATOM     27  C   UNL     1      -2.667  11.131  16.230  0.00  0.00    +0.000 C 
BRANCH  27  28
ATOM     28  O   UNL     1      -3.973  11.613  15.929  0.00  0.00    +0.000 OA
ATOM     29  H   UNL     1      -4.225  11.252  15.059  0.00  0.00    +0.000 HD
ENDBRANCH  27  28
ENDBRANCH  25  27
ENDBRANCH  15  25
TORSDOF 4
ENDMDL
MODEL 9
REMARK VINA RESULT:      -6.1      5.978      8.757
REMARK  Name = 
REMARK  7 active torsions:
REMARK  status: ('A' for Active; 'I' for Inactive)
REMARK    1  A    between atoms: C_1  and  C_2
REMARK    2  A    between atoms: N_8  and  C_9
REMARK    3  A    between atoms: C_14  and  C_15
REMARK    4  A    between atoms: N_22  and  C_23
REMARK    5  A    between atoms: C_23  and  C_24
REMARK    6  A    between atoms: C_23  and  C_25
REMARK    7  A    between atoms: C_25  and  O_26
REMARK                            x       y       z     vdW  Elec       q    Type
REMARK                         _______ _______ _______ _____ _____    ______ ____
ROOT
ATOM      1  C   UNL     1      -2.920   9.944  15.132  0.00  0.00    +0.000 C 
ATOM      2  C   UNL     1      -3.169  10.613  16.450  0.00  0.00    +0.000 A 
ATOM      3  N   UNL     1      -2.219  10.421  17.388  0.00  0.00    +0.000 NA
ATOM      4  C   UNL     1      -2.327  10.982  18.627  0.00  0.00    +0.000 A 
ATOM      5  N   UNL     1      -1.357  10.656  19.572  0.00  0.00    +0.000 N 
ATOM      6  C   UNL     1      -0.009  10.415  19.038  0.00  0.00    +0.000 C 
ATOM      7  C   UNL     1       0.826   9.613  20.057  0.00  0.00    +0.000 C 
ATOM      8  N   UNL     1       0.894  10.259  21.387  0.00  0.00    +0.000 NA
ATOM      9  C   UNL     1       1.629   9.407  22.322  0.00  0.00    +0.000 C 
ATOM     10  C   UNL     1      -0.484  10.500  21.879  0.00  0.00    +0.000 C 
ATOM     11  C   UNL     1      -1.368  11.302  20.890  0.00  0.00    +0.000 C 
ATOM     12  C   UNL     1      -3.470  11.792  18.837  0.00  0.00    +0.000 A 
ATOM     13  N   UNL     1      -3.890  12.538  19.909  0.00  0.00    +0.000 NA
ATOM     14  C   UNL     1      -5.053  13.081  19.589  0.00  0.00    +0.000 A 
ATOM     15  N   UNL     1      -5.386  12.736  18.276  0.00  0.00    +0.000 N 
ATOM     16  C   UNL     1      -4.382  11.909  17.802  0.00  0.00    +0.000 A 
ATOM     17  N   UNL     1      -4.300  11.337  16.586  0.00  0.00    +0.000 NA
ENDROOT
BRANCH  14  18
ATOM     18  C   UNL     1      -5.804  13.921  20.547  0.00  0.00    +0.000 A 
ATOM     19  C   UNL     1      -5.527  15.293  20.674  0.00  0.00    +0.000 A 
ATOM     20  C   UNL     1      -6.206  16.094  21.598  0.00  0.00    +0.000 A 
ATOM     21  C   UNL     1      -7.139  15.530  22.458  0.00  0.00    +0.000 A 
ATOM     22  C   UNL     1      -7.397  14.165  22.393  0.00  0.00    +0.000 A 
ATOM     23  C   UNL     1      -6.746  13.366  21.442  0.00  0.00    +0.000 A 
ATOM     24 CL   UNL     1      -7.186  11.687  21.448  0.00  0.00    +0.000 Cl
ENDBRANCH  14  18
BRANCH  15  25
ATOM     25  C   UNL     1      -6.540  13.161  17.488  0.00  0.00    +0.000 C 
ATOM     26  C   UNL     1      -7.858  12.826  18.194  0.00  0.00    +0.000 C 
BRANCH  25  27
ATOM     27  C   UNL     1      -6.503  14.635  17.064  0.00  0.00    +0.000 C 
BRANCH  27  28
ATOM     28  O   UNL     1      -7.199  14.834  15.837  0.00  0.00    +0.000 OA
ATOM     29  H   UNL     1      -7.946  14.208  15.820  0.00  0.00    +0.000 HD
ENDBRANCH  27  28
ENDBRANCH  25  27
ENDBRANCH  15  25
TORSDOF 4
ENDMDL
