MODEL 1
REMARK VINA RESULT:      -8.0      0.000      0.000
REMARK  Name = 
REMARK  9 active torsions:
REMARK  status: ('A' for Active; 'I' for Inactive)
REMARK    1  A    between atoms: C_1  and  N_2
REMARK    2  A    between atoms: C_3  and  C_5
REMARK    3  A    between atoms: C_9  and  C_10
REMARK    4  A    between atoms: C_10  and  C_11
REMARK    5  A    between atoms: C_11  and  C_12
REMARK    6  A    between atoms: C_12  and  C_13
REMARK    7  A    between atoms: C_12  and  N_16
REMARK    8  A    between atoms: C_13  and  C_14
REMARK    9  A    between atoms: C_13  and  O_15
REMARK                            x       y       z     vdW  Elec       q    Type
REMARK                         _______ _______ _______ _____ _____    ______ ____
ROOT
ATOM      1  C   UNL     1       3.300   3.752  18.193  0.00  0.00    +0.000 C 
ENDROOT
BRANCH   1   2
ATOM      2  N   UNL     1       4.601   4.328  18.526  0.00  0.00    +0.000 N 
ATOM      3  C   UNL     1       5.331   4.157  19.675  0.00  0.00    +0.000 A 
ATOM      4  N   UNL     1       6.428   4.888  19.690  0.00  0.00    +0.000 NA
ATOM      5  C   UNL     1       6.379   5.615  18.525  0.00  0.00    +0.000 A 
ATOM      6  C   UNL     1       7.214   6.620  18.013  0.00  0.00    +0.000 A 
ATOM      7  N   UNL     1       8.330   7.089  18.695  0.00  0.00    +0.000 N 
ATOM      8  N   UNL     1       6.908   7.163  16.814  0.00  0.00    +0.000 NA
ATOM      9  C   UNL     1       5.798   6.726  16.181  0.00  0.00    +0.000 A 
ATOM     10  N   UNL     1       4.916   5.781  16.578  0.00  0.00    +0.000 NA
ATOM     11  C   UNL     1       5.271   5.265  17.768  0.00  0.00    +0.000 A 
ATOM     12  H   UNL     1       8.673   6.449  19.402  0.00  0.00    +0.000 HD
ATOM     13  H   UNL     1       9.002   7.545  18.095  0.00  0.00    +0.000 HD
ENDBRANCH   1   2
BRANCH   1  14
ATOM     14  C   UNL     1       2.971   2.346  18.790  0.00  0.00    +0.000 C 
ATOM     15  C   UNL     1       1.481   2.024  18.879  0.00  0.00    +0.000 C 
BRANCH  14  16
ATOM     16  O   UNL     1       3.658   1.302  18.101  0.00  0.00    +0.000 OA
ATOM     17  H   UNL     1       3.014   0.715  17.667  0.00  0.00    +0.000 HD
ENDBRANCH  14  16
ENDBRANCH   1  14
BRANCH   1  18
ATOM     18  C   UNL     1       2.153   4.761  18.469  0.00  0.00    +0.000 C 
BRANCH  18  19
ATOM     19  C   UNL     1       2.313   5.614  19.731  0.00  0.00    +0.000 C 
BRANCH  19  24
ATOM     20  C   UNL     1       1.206   9.239  20.214  0.00  0.00    +0.000 A 
ATOM     21  C   UNL     1       1.407   9.753  18.930  0.00  0.00    +0.000 A 
ATOM     22  C   UNL     1       1.923   8.939  17.917  0.00  0.00    +0.000 A 
ATOM     23  C   UNL     1       2.225   7.607  18.186  0.00  0.00    +0.000 A 
ATOM     24  C   UNL     1       2.006   7.069  19.463  0.00  0.00    +0.000 A 
ATOM     25  C   UNL     1       1.500   7.892  20.479  0.00  0.00    +0.000 A 
BRANCH  20  28
ATOM     26  C   UNL     1      -0.896  10.362  23.153  0.00  0.00    +0.000 C 
ATOM     27  N   UNL     1      -0.285   9.577  22.111  0.00  0.00    +0.000 N 
ATOM     28  C   UNL     1       0.639  10.138  21.257  0.00  0.00    +0.000 C 
ATOM     29  O   UNL     1       1.019  11.300  21.341  0.00  0.00    +0.000 OA
ATOM     30  H   UNL     1      -0.452   8.581  22.095  0.00  0.00    +0.000 HD
ENDBRANCH  20  28
ENDBRANCH  19  24
ENDBRANCH  18  19
ENDBRANCH   1  18
TORSDOF 7
ENDMDL
MODEL 2
REMARK VINA RESULT:      -7.9      3.899      8.397
REMARK  Name = 
REMARK  9 active torsions:
REMARK  status: ('A' for Active; 'I' for Inactive)
REMARK    1  A    between atoms: C_1  and  N_2
REMARK    2  A    between atoms: C_3  and  C_5
REMARK    3  A    between atoms: C_9  and  C_10
REMARK    4  A    between atoms: C_10  and  C_11
REMARK    5  A    between atoms: C_11  and  C_12
REMARK    6  A    between atoms: C_12  and  C_13
REMARK    7  A    between atoms: C_12  and  N_16
REMARK    8  A    between atoms: C_13  and  C_14
REMARK    9  A    between atoms: C_13  and  O_15
REMARK                            x       y       z     vdW  Elec       q    Type
REMARK                         _______ _______ _______ _____ _____    ______ ____
ROOT
ATOM      1  C   UNL     1       5.471   6.007  17.902  0.00  0.00    +0.000 C 
ENDROOT
BRANCH   1   2
ATOM      2  N   UNL     1       4.156   5.614  18.405  0.00  0.00    +0.000 N 
ATOM      3  C   UNL     1       3.203   6.411  18.987  0.00  0.00    +0.000 A 
ATOM      4  N   UNL     1       2.159   5.725  19.407  0.00  0.00    +0.000 NA
ATOM      5  C   UNL     1       2.473   4.414  19.142  0.00  0.00    +0.000 A 
ATOM      6  C   UNL     1       1.804   3.214  19.428  0.00  0.00    +0.000 A 
ATOM      7  N   UNL     1       0.595   3.173  20.112  0.00  0.00    +0.000 N 
ATOM      8  N   UNL     1       2.369   2.051  19.035  0.00  0.00    +0.000 NA
ATOM      9  C   UNL     1       3.563   2.103  18.407  0.00  0.00    +0.000 A 
ATOM     10  N   UNL     1       4.304   3.189  18.090  0.00  0.00    +0.000 NA
ATOM     11  C   UNL     1       3.695   4.318  18.492  0.00  0.00    +0.000 A 
ATOM     12  H   UNL     1       0.090   4.051  20.096  0.00  0.00    +0.000 HD
ATOM     13  H   UNL     1       0.079   2.319  19.960  0.00  0.00    +0.000 HD
ENDBRANCH   1   2
BRANCH   1  14
ATOM     14  C   UNL     1       6.717   5.496  18.693  0.00  0.00    +0.000 C 
ATOM     15  C   UNL     1       7.875   6.489  18.770  0.00  0.00    +0.000 C 
BRANCH  14  16
ATOM     16  O   UNL     1       6.369   5.048  20.003  0.00  0.00    +0.000 OA
ATOM     17  H   UNL     1       5.423   4.817  20.030  0.00  0.00    +0.000 HD
ENDBRANCH  14  16
ENDBRANCH   1  14
BRANCH   1  18
ATOM     18  C   UNL     1       5.606   5.701  16.386  0.00  0.00    +0.000 C 
BRANCH  18  19
ATOM     19  C   UNL     1       6.801   4.826  15.993  0.00  0.00    +0.000 C 
BRANCH  19  24
ATOM     20  C   UNL     1       6.354   3.503  12.437  0.00  0.00    +0.000 A 
ATOM     21  C   UNL     1       7.162   4.388  11.718  0.00  0.00    +0.000 A 
ATOM     22  C   UNL     1       7.829   5.426  12.376  0.00  0.00    +0.000 A 
ATOM     23  C   UNL     1       7.698   5.569  13.755  0.00  0.00    +0.000 A 
ATOM     24  C   UNL     1       6.911   4.674  14.494  0.00  0.00    +0.000 A 
ATOM     25  C   UNL     1       6.234   3.642  13.829  0.00  0.00    +0.000 A 
BRANCH  20  28
ATOM     26  C   UNL     1       5.804   0.090  10.898  0.00  0.00    +0.000 C 
ATOM     27  N   UNL     1       6.370   1.216  11.596  0.00  0.00    +0.000 N 
ATOM     28  C   UNL     1       5.676   2.403  11.697  0.00  0.00    +0.000 C 
ATOM     29  O   UNL     1       4.551   2.568  11.241  0.00  0.00    +0.000 OA
ATOM     30  H   UNL     1       7.225   1.083  12.116  0.00  0.00    +0.000 HD
ENDBRANCH  20  28
ENDBRANCH  19  24
ENDBRANCH  18  19
ENDBRANCH   1  18
TORSDOF 7
ENDMDL
MODEL 3
REMARK VINA RESULT:      -7.9      1.301      1.957
REMARK  Name = 
REMARK  9 active torsions:
REMARK  status: ('A' for Active; 'I' for Inactive)
REMARK    1  A    between atoms: C_1  and  N_2
REMARK    2  A    between atoms: C_3  and  C_5
REMARK    3  A    between atoms: C_9  and  C_10
REMARK    4  A    between atoms: C_10  and  C_11
REMARK    5  A    between atoms: C_11  and  C_12
REMARK    6  A    between atoms: C_12  and  C_13
REMARK    7  A    between atoms: C_12  and  N_16
REMARK    8  A    between atoms: C_13  and  C_14
REMARK    9  A    between atoms: C_13  and  O_15
REMARK                            x       y       z     vdW  Elec       q    Type
REMARK                         _______ _______ _______ _____ _____    ______ ____
ROOT
ATOM      1  C   UNL     1       3.120   3.451  19.151  0.00  0.00    +0.000 C 
ENDROOT
BRANCH   1   2
ATOM      2  N   UNL     1       3.963   3.941  18.063  0.00  0.00    +0.000 N 
ATOM      3  C   UNL     1       3.794   3.754  16.715  0.00  0.00    +0.000 A 
ATOM      4  N   UNL     1       4.784   4.259  16.007  0.00  0.00    +0.000 NA
ATOM      5  C   UNL     1       5.669   4.742  16.939  0.00  0.00    +0.000 A 
ATOM      6  C   UNL     1       6.943   5.319  16.812  0.00  0.00    +0.000 A 
ATOM      7  N   UNL     1       7.570   5.490  15.584  0.00  0.00    +0.000 N 
ATOM      8  N   UNL     1       7.589   5.707  17.933  0.00  0.00    +0.000 NA
ATOM      9  C   UNL     1       6.985   5.498  19.123  0.00  0.00    +0.000 A 
ATOM     10  N   UNL     1       5.776   4.944  19.370  0.00  0.00    +0.000 NA
ATOM     11  C   UNL     1       5.171   4.585  18.224  0.00  0.00    +0.000 A 
ATOM     12  H   UNL     1       6.932   5.478  14.797  0.00  0.00    +0.000 HD
ATOM     13  H   UNL     1       8.296   6.192  15.602  0.00  0.00    +0.000 HD
ENDBRANCH   1   2
BRANCH   1  14
ATOM     14  C   UNL     1       3.845   2.879  20.411  0.00  0.00    +0.000 C 
ATOM     15  C   UNL     1       2.916   2.283  21.467  0.00  0.00    +0.000 C 
BRANCH  14  16
ATOM     16  O   UNL     1       4.857   1.936  20.060  0.00  0.00    +0.000 OA
ATOM     17  H   UNL     1       5.544   1.918  20.750  0.00  0.00    +0.000 HD
ENDBRANCH  14  16
ENDBRANCH   1  14
BRANCH   1  18
ATOM     18  C   UNL     1       2.050   4.503  19.550  0.00  0.00    +0.000 C 
BRANCH  18  19
ATOM     19  C   UNL     1       2.561   5.678  20.391  0.00  0.00    +0.000 C 
BRANCH  19  24
ATOM     20  C   UNL     1       1.042   9.157  19.965  0.00  0.00    +0.000 A 
ATOM     21  C   UNL     1       1.401   9.446  18.646  0.00  0.00    +0.000 A 
ATOM     22  C   UNL     1       2.154   8.531  17.903  0.00  0.00    +0.000 A 
ATOM     23  C   UNL     1       2.535   7.322  18.478  0.00  0.00    +0.000 A 
ATOM     24  C   UNL     1       2.162   7.006  19.792  0.00  0.00    +0.000 A 
ATOM     25  C   UNL     1       1.417   7.931  20.537  0.00  0.00    +0.000 A 
BRANCH  20  28
ATOM     26  C   UNL     1      -0.766  10.792  22.859  0.00  0.00    +0.000 C 
ATOM     27  N   UNL     1       0.012   9.892  22.047  0.00  0.00    +0.000 N 
ATOM     28  C   UNL     1       0.226  10.154  20.712  0.00  0.00    +0.000 C 
ATOM     29  O   UNL     1      -0.191  11.158  20.145  0.00  0.00    +0.000 OA
ATOM     30  H   UNL     1       0.501   9.132  22.500  0.00  0.00    +0.000 HD
ENDBRANCH  20  28
ENDBRANCH  19  24
ENDBRANCH  18  19
ENDBRANCH   1  18
TORSDOF 7
ENDMDL
MODEL 4
REMARK VINA RESULT:      -7.9      2.729      6.888
REMARK  Name = 
REMARK  9 active torsions:
REMARK  status: ('A' for Active; 'I' for Inactive)
REMARK    1  A    between atoms: C_1  and  N_2
REMARK    2  A    between atoms: C_3  and  C_5
REMARK    3  A    between atoms: C_9  and  C_10
REMARK    4  A    between atoms: C_10  and  C_11
REMARK    5  A    between atoms: C_11  and  C_12
REMARK    6  A    between atoms: C_12  and  C_13
REMARK    7  A    between atoms: C_12  and  N_16
REMARK    8  A    between atoms: C_13  and  C_14
REMARK    9  A    between atoms: C_13  and  O_15
REMARK                            x       y       z     vdW  Elec       q    Type
REMARK                         _______ _______ _______ _____ _____    ______ ____
ROOT
ATOM      1  C   UNL     1       2.887   4.954  20.085  0.00  0.00    +0.000 C 
ENDROOT
BRANCH   1   2
ATOM      2  N   UNL     1       2.582   6.159  19.318  0.00  0.00    +0.000 N 
ATOM      3  C   UNL     1       2.964   6.462  18.036  0.00  0.00    +0.000 A 
ATOM      4  N   UNL     1       2.590   7.672  17.670  0.00  0.00    +0.000 NA
ATOM      5  C   UNL     1       1.993   8.206  18.787  0.00  0.00    +0.000 A 
ATOM      6  C   UNL     1       1.469   9.481  19.050  0.00  0.00    +0.000 A 
ATOM      7  N   UNL     1       1.495  10.511  18.118  0.00  0.00    +0.000 N 
ATOM      8  N   UNL     1       0.932   9.718  20.267  0.00  0.00    +0.000 NA
ATOM      9  C   UNL     1       0.950   8.721  21.177  0.00  0.00    +0.000 A 
ATOM     10  N   UNL     1       1.435   7.465  21.045  0.00  0.00    +0.000 NA
ATOM     11  C   UNL     1       1.947   7.277  19.815  0.00  0.00    +0.000 A 
ATOM     12  H   UNL     1       1.611  10.191  17.163  0.00  0.00    +0.000 HD
ATOM     13  H   UNL     1       0.815  11.233  18.302  0.00  0.00    +0.000 HD
ENDBRANCH   1   2
BRANCH   1  14
ATOM     14  C   UNL     1       1.732   4.345  20.944  0.00  0.00    +0.000 C 
ATOM     15  C   UNL     1       0.713   3.526  20.154  0.00  0.00    +0.000 C 
BRANCH  14  16
ATOM     16  O   UNL     1       2.230   3.581  22.041  0.00  0.00    +0.000 OA
ATOM     17  H   UNL     1       3.153   3.833  22.225  0.00  0.00    +0.000 HD
ENDBRANCH  14  16
ENDBRANCH   1  14
BRANCH   1  18
ATOM     18  C   UNL     1       3.551   3.872  19.191  0.00  0.00    +0.000 C 
BRANCH  18  19
ATOM     19  C   UNL     1       5.053   3.666  19.411  0.00  0.00    +0.000 C 
BRANCH  19  24
ATOM     20  C   UNL     1       6.693   5.055  16.253  0.00  0.00    +0.000 A 
ATOM     21  C   UNL     1       7.438   6.114  16.781  0.00  0.00    +0.000 A 
ATOM     22  C   UNL     1       7.391   6.395  18.150  0.00  0.00    +0.000 A 
ATOM     23  C   UNL     1       6.608   5.608  18.991  0.00  0.00    +0.000 A 
ATOM     24  C   UNL     1       5.875   4.527  18.481  0.00  0.00    +0.000 A 
ATOM     25  C   UNL     1       5.916   4.256  17.106  0.00  0.00    +0.000 A 
BRANCH  20  28
ATOM     26  C   UNL     1       7.914   5.307  12.680  0.00  0.00    +0.000 C 
ATOM     27  N   UNL     1       7.742   5.495  14.098  0.00  0.00    +0.000 N 
ATOM     28  C   UNL     1       6.788   4.783  14.792  0.00  0.00    +0.000 C 
ATOM     29  O   UNL     1       6.061   3.944  14.273  0.00  0.00    +0.000 OA
ATOM     30  H   UNL     1       8.414   6.061  14.596  0.00  0.00    +0.000 HD
ENDBRANCH  20  28
ENDBRANCH  19  24
ENDBRANCH  18  19
ENDBRANCH   1  18
TORSDOF 7
ENDMDL
MODEL 5
REMARK VINA RESULT:      -7.8      1.707      1.786
REMARK  Name = 
REMARK  9 active torsions:
REMARK  status: ('A' for Active; 'I' for Inactive)
REMARK    1  A    between atoms: C_1  and  N_2
REMARK    2  A    between atoms: C_3  and  C_5
REMARK    3  A    between atoms: C_9  and  C_10
REMARK    4  A    between atoms: C_10  and  C_11
REMARK    5  A    between atoms: C_11  and  C_12
REMARK    6  A    between atoms: C_12  and  C_13
REMARK    7  A    between atoms: C_12  and  N_16
REMARK    8  A    between atoms: C_13  and  C_14
REMARK    9  A    between atoms: C_13  and  O_15
REMARK                            x       y       z     vdW  Elec       q    Type
REMARK                         _______ _______ _______ _____ _____    ______ ____
ROOT
ATOM      1  C   UNL     1       2.260   4.022  18.152  0.00  0.00    +0.000 C 
ENDROOT
BRANCH   1   2
ATOM      2  N   UNL     1       3.708   3.939  18.329  0.00  0.00    +0.000 N 
ATOM      3  C   UNL     1       4.408   3.798  19.500  0.00  0.00    +0.000 A 
ATOM      4  N   UNL     1       5.713   3.841  19.316  0.00  0.00    +0.000 NA
ATOM      5  C   UNL     1       5.869   4.085  17.973  0.00  0.00    +0.000 A 
ATOM      6  C   UNL     1       7.009   4.315  17.189  0.00  0.00    +0.000 A 
ATOM      7  N   UNL     1       8.292   4.348  17.722  0.00  0.00    +0.000 N 
ATOM      8  N   UNL     1       6.849   4.527  15.865  0.00  0.00    +0.000 NA
ATOM      9  C   UNL     1       5.594   4.532  15.367  0.00  0.00    +0.000 A 
ATOM     10  N   UNL     1       4.425   4.337  16.021  0.00  0.00    +0.000 NA
ATOM     11  C   UNL     1       4.640   4.120  17.330  0.00  0.00    +0.000 A 
ATOM     12  H   UNL     1       8.372   3.883  18.619  0.00  0.00    +0.000 HD
ATOM     13  H   UNL     1       9.014   4.190  17.034  0.00  0.00    +0.000 HD
ENDBRANCH   1   2
BRANCH   1  14
ATOM     14  C   UNL     1       1.375   3.153  19.103  0.00  0.00    +0.000 C 
ATOM     15  C   UNL     1       0.816   3.898  20.313  0.00  0.00    +0.000 C 
BRANCH  14  16
ATOM     16  O   UNL     1       0.320   2.500  18.398  0.00  0.00    +0.000 OA
ATOM     17  H   UNL     1      -0.505   3.007  18.499  0.00  0.00    +0.000 HD
ENDBRANCH  14  16
ENDBRANCH   1  14
BRANCH   1  18
ATOM     18  C   UNL     1       1.780   5.499  18.135  0.00  0.00    +0.000 C 
BRANCH  18  19
ATOM     19  C   UNL     1       2.748   6.515  18.750  0.00  0.00    +0.000 C 
BRANCH  19  24
ATOM     20  C   UNL     1       0.794   9.398  20.319  0.00  0.00    +0.000 A 
ATOM     21  C   UNL     1       0.841  10.344  19.292  0.00  0.00    +0.000 A 
ATOM     22  C   UNL     1       1.525  10.062  18.104  0.00  0.00    +0.000 A 
ATOM     23  C   UNL     1       2.149   8.828  17.942  0.00  0.00    +0.000 A 
ATOM     24  C   UNL     1       2.090   7.859  18.953  0.00  0.00    +0.000 A 
ATOM     25  C   UNL     1       1.413   8.150  20.147  0.00  0.00    +0.000 A 
BRANCH  20  28
ATOM     26  C   UNL     1      -1.065  11.485  22.869  0.00  0.00    +0.000 C 
ATOM     27  N   UNL     1      -0.335  11.053  21.706  0.00  0.00    +0.000 N 
ATOM     28  C   UNL     1       0.041   9.735  21.558  0.00  0.00    +0.000 C 
ATOM     29  O   UNL     1      -0.239   8.859  22.368  0.00  0.00    +0.000 OA
ATOM     30  H   UNL     1      -0.212  11.704  20.943  0.00  0.00    +0.000 HD
ENDBRANCH  20  28
ENDBRANCH  19  24
ENDBRANCH  18  19
ENDBRANCH   1  18
TORSDOF 7
ENDMDL
MODEL 6
REMARK VINA RESULT:      -7.7      2.531      3.200
REMARK  Name = 
REMARK  9 active torsions:
REMARK  status: ('A' for Active; 'I' for Inactive)
REMARK    1  A    between atoms: C_1  and  N_2
REMARK    2  A    between atoms: C_3  and  C_5
REMARK    3  A    between atoms: C_9  and  C_10
REMARK    4  A    between atoms: C_10  and  C_11
REMARK    5  A    between atoms: C_11  and  C_12
REMARK    6  A    between atoms: C_12  and  C_13
REMARK    7  A    between atoms: C_12  and  N_16
REMARK    8  A    between atoms: C_13  and  C_14
REMARK    9  A    between atoms: C_13  and  O_15
REMARK                            x       y       z     vdW  Elec       q    Type
REMARK                         _______ _______ _______ _____ _____    ______ ____
ROOT
ATOM      1  C   UNL     1       2.487   5.465  18.488  0.00  0.00    +0.000 C 
ENDROOT
BRANCH   1   2
ATOM      2  N   UNL     1       3.843   4.922  18.536  0.00  0.00    +0.000 N 
ATOM      3  C   UNL     1       4.434   4.217  19.554  0.00  0.00    +0.000 A 
ATOM      4  N   UNL     1       5.700   3.945  19.310  0.00  0.00    +0.000 NA
ATOM      5  C   UNL     1       5.963   4.553  18.107  0.00  0.00    +0.000 A 
ATOM      6  C   UNL     1       7.146   4.689  17.365  0.00  0.00    +0.000 A 
ATOM      7  N   UNL     1       8.366   4.182  17.797  0.00  0.00    +0.000 N 
ATOM      8  N   UNL     1       7.098   5.354  16.190  0.00  0.00    +0.000 NA
ATOM      9  C   UNL     1       5.914   5.875  15.801  0.00  0.00    +0.000 A 
ATOM     10  N   UNL     1       4.719   5.821  16.433  0.00  0.00    +0.000 NA
ATOM     11  C   UNL     1       4.819   5.141  17.589  0.00  0.00    +0.000 A 
ATOM     12  H   UNL     1       8.279   3.451  18.493  0.00  0.00    +0.000 HD
ATOM     13  H   UNL     1       9.033   4.056  17.049  0.00  0.00    +0.000 HD
ENDBRANCH   1   2
BRANCH   1  14
ATOM     14  C   UNL     1       1.326   4.525  18.946  0.00  0.00    +0.000 C 
ATOM     15  C   UNL     1       1.381   3.114  18.365  0.00  0.00    +0.000 C 
BRANCH  14  16
ATOM     16  O   UNL     1       1.219   4.466  20.368  0.00  0.00    +0.000 OA
ATOM     17  H   UNL     1       0.282   4.406  20.625  0.00  0.00    +0.000 HD
ENDBRANCH  14  16
ENDBRANCH   1  14
BRANCH   1  18
ATOM     18  C   UNL     1       2.409   6.841  19.203  0.00  0.00    +0.000 C 
BRANCH  18  19
ATOM     19  C   UNL     1       2.217   8.052  18.284  0.00  0.00    +0.000 C 
BRANCH  19  24
ATOM     20  C   UNL     1      -0.819  10.363  18.480  0.00  0.00    +0.000 A 
ATOM     21  C   UNL     1      -0.761  10.769  19.816  0.00  0.00    +0.000 A 
ATOM     22  C   UNL     1       0.241  10.278  20.660  0.00  0.00    +0.000 A 
ATOM     23  C   UNL     1       1.191   9.391  20.161  0.00  0.00    +0.000 A 
ATOM     24  C   UNL     1       1.162   8.993  18.816  0.00  0.00    +0.000 A 
ATOM     25  C   UNL     1       0.149   9.479  17.977  0.00  0.00    +0.000 A 
BRANCH  20  28
ATOM     26  C   UNL     1      -3.006  10.867  15.434  0.00  0.00    +0.000 C 
ATOM     27  N   UNL     1      -2.001  10.392  16.349  0.00  0.00    +0.000 N 
ATOM     28  C   UNL     1      -1.893  10.925  17.616  0.00  0.00    +0.000 C 
ATOM     29  O   UNL     1      -2.642  11.793  18.049  0.00  0.00    +0.000 OA
ATOM     30  H   UNL     1      -1.460   9.578  16.094  0.00  0.00    +0.000 HD
ENDBRANCH  20  28
ENDBRANCH  19  24
ENDBRANCH  18  19
ENDBRANCH   1  18
TORSDOF 7
ENDMDL
MODEL 7
REMARK VINA RESULT:      -7.7      2.906      7.221
REMARK  Name = 
REMARK  9 active torsions:
REMARK  status: ('A' for Active; 'I' for Inactive)
REMARK    1  A    between atoms: C_1  and  N_2
REMARK    2  A    between atoms: C_3  and  C_5
REMARK    3  A    between atoms: C_9  and  C_10
REMARK    4  A    between atoms: C_10  and  C_11
REMARK    5  A    between atoms: C_11  and  C_12
REMARK    6  A    between atoms: C_12  and  C_13
REMARK    7  A    between atoms: C_12  and  N_16
REMARK    8  A    between atoms: C_13  and  C_14
REMARK    9  A    between atoms: C_13  and  O_15
REMARK                            x       y       z     vdW  Elec       q    Type
REMARK                         _______ _______ _______ _____ _____    ______ ____
ROOT
ATOM      1  C   UNL     1       2.490   5.901  19.191  0.00  0.00    +0.000 C 
ENDROOT
BRANCH   1   2
ATOM      2  N   UNL     1       2.189   7.250  18.716  0.00  0.00    +0.000 N 
ATOM      3  C   UNL     1       2.469   7.795  17.488  0.00  0.00    +0.000 A 
ATOM      4  N   UNL     1       2.137   9.068  17.413  0.00  0.00    +0.000 NA
ATOM      5  C   UNL     1       1.676   9.383  18.668  0.00  0.00    +0.000 A 
ATOM      6  C   UNL     1       1.255  10.597  19.234  0.00  0.00    +0.000 A 
ATOM      7  N   UNL     1       1.257  11.794  18.529  0.00  0.00    +0.000 N 
ATOM      8  N   UNL     1       0.846  10.600  20.522  0.00  0.00    +0.000 NA
ATOM      9  C   UNL     1       0.887   9.437  21.207  0.00  0.00    +0.000 A 
ATOM     10  N   UNL     1       1.283   8.217  20.776  0.00  0.00    +0.000 NA
ATOM     11  C   UNL     1       1.668   8.266  19.489  0.00  0.00    +0.000 A 
ATOM     12  H   UNL     1       1.266  11.674  17.523  0.00  0.00    +0.000 HD
ATOM     13  H   UNL     1       0.640  12.490  18.923  0.00  0.00    +0.000 HD
ENDBRANCH   1   2
BRANCH   1  14
ATOM     14  C   UNL     1       1.691   5.389  20.432  0.00  0.00    +0.000 C 
ATOM     15  C   UNL     1       0.880   4.118  20.188  0.00  0.00    +0.000 C 
BRANCH  14  16
ATOM     16  O   UNL     1       2.531   5.223  21.574  0.00  0.00    +0.000 OA
ATOM     17  H   UNL     1       3.465   5.244  21.300  0.00  0.00    +0.000 HD
ENDBRANCH  14  16
ENDBRANCH   1  14
BRANCH   1  18
ATOM     18  C   UNL     1       2.442   4.873  18.029  0.00  0.00    +0.000 C 
BRANCH  18  19
ATOM     19  C   UNL     1       3.591   3.860  17.996  0.00  0.00    +0.000 C 
BRANCH  19  24
ATOM     20  C   UNL     1       6.441   4.899  15.674  0.00  0.00    +0.000 A 
ATOM     21  C   UNL     1       7.258   5.614  16.556  0.00  0.00    +0.000 A 
ATOM     22  C   UNL     1       6.877   5.782  17.891  0.00  0.00    +0.000 A 
ATOM     23  C   UNL     1       5.685   5.223  18.345  0.00  0.00    +0.000 A 
ATOM     24  C   UNL     1       4.867   4.483  17.480  0.00  0.00    +0.000 A 
ATOM     25  C   UNL     1       5.247   4.327  16.140  0.00  0.00    +0.000 A 
BRANCH  20  28
ATOM     26  C   UNL     1       6.642   3.496  12.166  0.00  0.00    +0.000 C 
ATOM     27  N   UNL     1       6.274   3.741  13.537  0.00  0.00    +0.000 N 
ATOM     28  C   UNL     1       6.896   4.732  14.266  0.00  0.00    +0.000 C 
ATOM     29  O   UNL     1       7.757   5.472  13.804  0.00  0.00    +0.000 OA
ATOM     30  H   UNL     1       5.470   3.262  13.915  0.00  0.00    +0.000 HD
ENDBRANCH  20  28
ENDBRANCH  19  24
ENDBRANCH  18  19
ENDBRANCH   1  18
TORSDOF 7
ENDMDL
MODEL 8
REMARK VINA RESULT:      -7.6      1.380      1.977
REMARK  Name = 
REMARK  9 active torsions:
REMARK  status: ('A' for Active; 'I' for Inactive)
REMARK    1  A    between atoms: C_1  and  N_2
REMARK    2  A    between atoms: C_3  and  C_5
REMARK    3  A    between atoms: C_9  and  C_10
REMARK    4  A    between atoms: C_10  and  C_11
REMARK    5  A    between atoms: C_11  and  C_12
REMARK    6  A    between atoms: C_12  and  C_13
REMARK    7  A    between atoms: C_12  and  N_16
REMARK    8  A    between atoms: C_13  and  C_14
REMARK    9  A    between atoms: C_13  and  O_15
REMARK                            x       y       z     vdW  Elec       q    Type
REMARK                         _______ _______ _______ _____ _____    ______ ____
ROOT
ATOM      1  C   UNL     1       3.378   4.029  18.276  0.00  0.00    +0.000 C 
ENDROOT
BRANCH   1   2
ATOM      2  N   UNL     1       4.274   4.228  17.139  0.00  0.00    +0.000 N 
ATOM      3  C   UNL     1       4.361   3.482  15.991  0.00  0.00    +0.000 A 
ATOM      4  N   UNL     1       5.336   3.883  15.200  0.00  0.00    +0.000 NA
ATOM      5  C   UNL     1       5.953   4.896  15.893  0.00  0.00    +0.000 A 
ATOM      6  C   UNL     1       7.096   5.661  15.613  0.00  0.00    +0.000 A 
ATOM      7  N   UNL     1       7.866   5.471  14.472  0.00  0.00    +0.000 N 
ATOM      8  N   UNL     1       7.470   6.609  16.500  0.00  0.00    +0.000 NA
ATOM      9  C   UNL     1       6.736   6.756  17.624  0.00  0.00    +0.000 A 
ATOM     10  N   UNL     1       5.631   6.075  18.006  0.00  0.00    +0.000 NA
ATOM     11  C   UNL     1       5.296   5.153  17.086  0.00  0.00    +0.000 A 
ATOM     12  H   UNL     1       7.376   4.991  13.727  0.00  0.00    +0.000 HD
ATOM     13  H   UNL     1       8.433   6.272  14.235  0.00  0.00    +0.000 HD
ENDBRANCH   1   2
BRANCH   1  14
ATOM     14  C   UNL     1       4.037   3.675  19.648  0.00  0.00    +0.000 C 
ATOM     15  C   UNL     1       3.241   2.693  20.504  0.00  0.00    +0.000 C 
BRANCH  14  16
ATOM     16  O   UNL     1       5.378   3.213  19.490  0.00  0.00    +0.000 OA
ATOM     17  H   UNL     1       5.919   3.909  19.077  0.00  0.00    +0.000 HD
ENDBRANCH  14  16
ENDBRANCH   1  14
BRANCH   1  18
ATOM     18  C   UNL     1       2.383   5.211  18.420  0.00  0.00    +0.000 C 
BRANCH  18  19
ATOM     19  C   UNL     1       2.582   6.095  19.656  0.00  0.00    +0.000 C 
BRANCH  19  24
ATOM     20  C   UNL     1       1.128   9.581  20.223  0.00  0.00    +0.000 A 
ATOM     21  C   UNL     1       1.191  10.111  18.931  0.00  0.00    +0.000 A 
ATOM     22  C   UNL     1       1.726   9.354  17.884  0.00  0.00    +0.000 A 
ATOM     23  C   UNL     1       2.185   8.062  18.128  0.00  0.00    +0.000 A 
ATOM     24  C   UNL     1       2.106   7.507  19.413  0.00  0.00    +0.000 A 
ATOM     25  C   UNL     1       1.579   8.274  20.463  0.00  0.00    +0.000 A 
BRANCH  20  28
ATOM     26  C   UNL     1      -1.059  10.536  23.159  0.00  0.00    +0.000 C 
ATOM     27  N   UNL     1      -0.422   9.813  22.089  0.00  0.00    +0.000 N 
ATOM     28  C   UNL     1       0.535  10.418  21.303  0.00  0.00    +0.000 C 
ATOM     29  O   UNL     1       0.922  11.568  21.474  0.00  0.00    +0.000 OA
ATOM     30  H   UNL     1      -0.596   8.822  22.003  0.00  0.00    +0.000 HD
ENDBRANCH  20  28
ENDBRANCH  19  24
ENDBRANCH  18  19
ENDBRANCH   1  18
TORSDOF 7
ENDMDL
MODEL 9
REMARK VINA RESULT:      -7.6      2.409      3.269
REMARK  Name = 
REMARK  9 active torsions:
REMARK  status: ('A' for Active; 'I' for Inactive)
REMARK    1  A    between atoms: C_1  and  N_2
REMARK    2  A    between atoms: C_3  and  C_5
REMARK    3  A    between atoms: C_9  and  C_10
REMARK    4  A    between atoms: C_10  and  C_11
REMARK    5  A    between atoms: C_11  and  C_12
REMARK    6  A    between atoms: C_12  and  C_13
REMARK    7  A    between atoms: C_12  and  N_16
REMARK    8  A    between atoms: C_13  and  C_14
REMARK    9  A    between atoms: C_13  and  O_15
REMARK                            x       y       z     vdW  Elec       q    Type
REMARK                         _______ _______ _______ _____ _____    ______ ____
ROOT
ATOM      1  C   UNL     1       4.427   5.060  17.654  0.00  0.00    +0.000 C 
ENDROOT
BRANCH   1   2
ATOM      2  N   UNL     1       5.623   5.315  16.854  0.00  0.00    +0.000 N 
ATOM      3  C   UNL     1       6.654   6.177  17.130  0.00  0.00    +0.000 A 
ATOM      4  N   UNL     1       7.541   6.231  16.157  0.00  0.00    +0.000 NA
ATOM      5  C   UNL     1       7.033   5.415  15.175  0.00  0.00    +0.000 A 
ATOM      6  C   UNL     1       7.475   5.126  13.875  0.00  0.00    +0.000 A 
ATOM      7  N   UNL     1       8.613   5.702  13.324  0.00  0.00    +0.000 N 
ATOM      8  N   UNL     1       6.753   4.265  13.125  0.00  0.00    +0.000 NA
ATOM      9  C   UNL     1       5.627   3.744  13.658  0.00  0.00    +0.000 A 
ATOM     10  N   UNL     1       5.097   3.956  14.885  0.00  0.00    +0.000 NA
ATOM     11  C   UNL     1       5.858   4.809  15.594  0.00  0.00    +0.000 A 
ATOM     12  H   UNL     1       9.257   6.070  14.014  0.00  0.00    +0.000 HD
ATOM     13  H   UNL     1       8.990   5.177  12.548  0.00  0.00    +0.000 HD
ENDBRANCH   1   2
BRANCH   1  14
ATOM     14  C   UNL     1       4.426   3.775  18.543  0.00  0.00    +0.000 C 
ATOM     15  C   UNL     1       3.689   2.582  17.939  0.00  0.00    +0.000 C 
BRANCH  14  16
ATOM     16  O   UNL     1       5.746   3.393  18.926  0.00  0.00    +0.000 OA
ATOM     17  H   UNL     1       6.201   2.978  18.172  0.00  0.00    +0.000 HD
ENDBRANCH  14  16
ENDBRANCH   1  14
BRANCH   1  18
ATOM     18  C   UNL     1       4.024   6.312  18.478  0.00  0.00    +0.000 C 
BRANCH  18  19
ATOM     19  C   UNL     1       3.173   7.346  17.734  0.00  0.00    +0.000 C 
BRANCH  19  24
ATOM     20  C   UNL     1       0.510   9.735  19.074  0.00  0.00    +0.000 A 
ATOM     21  C   UNL     1       0.434   9.330  20.410  0.00  0.00    +0.000 A 
ATOM     22  C   UNL     1       1.222   8.270  20.871  0.00  0.00    +0.000 A 
ATOM     23  C   UNL     1       2.094   7.626  19.998  0.00  0.00    +0.000 A 
ATOM     24  C   UNL     1       2.201   8.037  18.661  0.00  0.00    +0.000 A 
ATOM     25  C   UNL     1       1.400   9.092  18.200  0.00  0.00    +0.000 A 
BRANCH  20  28
ATOM     26  C   UNL     1      -2.390  11.590  17.504  0.00  0.00    +0.000 C 
ATOM     27  N   UNL     1      -1.503  10.558  17.974  0.00  0.00    +0.000 N 
ATOM     28  C   UNL     1      -0.335  10.879  18.632  0.00  0.00    +0.000 C 
ATOM     29  O   UNL     1       0.004  12.030  18.883  0.00  0.00    +0.000 OA
ATOM     30  H   UNL     1      -1.810   9.597  17.926  0.00  0.00    +0.000 HD
ENDBRANCH  20  28
ENDBRANCH  19  24
ENDBRANCH  18  19
ENDBRANCH   1  18
TORSDOF 7
ENDMDL
