MODEL 1
REMARK VINA RESULT:      -7.6      0.000      0.000
REMARK  Name = 
REMARK  7 active torsions:
REMARK  status: ('A' for Active; 'I' for Inactive)
REMARK    1  A    between atoms: C_1  and  O_2
REMARK    2  A    between atoms: O_2  and  C_3
REMARK    3  A    between atoms: C_3  and  C_5
REMARK    4  A    between atoms: C_8  and  C_9
REMARK    5  A    between atoms: C_10  and  C_11
REMARK    6  A    between atoms: N_13  and  C_14
REMARK    7  A    between atoms: C_20  and  C_21
REMARK                            x       y       z     vdW  Elec       q    Type
REMARK                         _______ _______ _______ _____ _____    ______ ____
ROOT
ATOM      1  C   UNL     1      -0.535  11.035  19.752  0.00  0.00    +0.000 C 
ATOM      2  C   UNL     1       0.045  12.435  19.670  0.00  0.00    +0.000 C 
ATOM      3  C   UNL     1      -0.611  13.298  18.865  0.00  0.00    +0.000 C 
ATOM      4  C   UNL     1      -1.545  14.044  19.843  0.00  0.00    +0.000 C 
ATOM      5  N   UNL     1      -1.139  12.759  17.624  0.00  0.00    +0.000 N 
ATOM      6  C   UNL     1      -1.596  11.456  17.591  0.00  0.00    +0.000 A 
ATOM      7  N   UNL     1      -2.456  10.860  16.770  0.00  0.00    +0.000 NA
ATOM      8  C   UNL     1      -3.624  10.938  17.520  0.00  0.00    +0.000 A 
ATOM      9  C   UNL     1      -4.955  11.030  17.010  0.00  0.00    +0.000 A 
ATOM     10  C   UNL     1      -5.832  11.973  17.552  0.00  0.00    +0.000 A 
ATOM     11  C   UNL     1      -5.396  12.731  18.620  0.00  0.00    +0.000 A 
ATOM     12  C   UNL     1      -4.182  12.411  19.313  0.00  0.00    +0.000 A 
ATOM     13  C   UNL     1      -3.278  11.379  18.831  0.00  0.00    +0.000 A 
ATOM     14  N   UNL     1      -1.837  10.935  18.853  0.00  0.00    +0.000 N 
ATOM     15  H   UNL     1      -0.502  12.923  16.852  0.00  0.00    +0.000 HD
ENDROOT
BRANCH   1  19
ATOM     16  C   UNL     1       2.361   7.680  18.685  0.00  0.00    +0.000 A 
ATOM     17  C   UNL     1       2.088   8.760  17.822  0.00  0.00    +0.000 A 
ATOM     18  C   UNL     1       1.336   9.919  18.227  0.00  0.00    +0.000 A 
ATOM     19  C   UNL     1       0.807  10.088  19.530  0.00  0.00    +0.000 A 
ATOM     20  C   UNL     1       1.153   9.009  20.408  0.00  0.00    +0.000 A 
ATOM     21  C   UNL     1       1.895   7.833  19.995  0.00  0.00    +0.000 A 
BRANCH  16  22
ATOM     22  C   UNL     1       3.080   6.449  18.118  0.00  0.00    +0.000 C 
ATOM     23  O   UNL     1       3.965   6.549  17.271  0.00  0.00    +0.000 OA
BRANCH  22  25
ATOM     24  C   UNL     1       1.749   4.504  17.777  0.00  0.00    +0.000 C 
ATOM     25  O   UNL     1       2.652   5.257  18.628  0.00  0.00    +0.000 OA
ENDBRANCH  22  25
ENDBRANCH  16  22
ENDBRANCH   1  19
BRANCH   2  26
ATOM     26  C   UNL     1       0.904  12.927  20.785  0.00  0.00    +0.000 C 
ATOM     27  O   UNL     1       0.772  12.432  21.891  0.00  0.00    +0.000 OA
ATOM     28  N   UNL     1       1.858  13.864  20.416  0.00  0.00    +0.000 N 
ATOM     29  H   UNL     1       2.030  14.072  19.448  0.00  0.00    +0.000 HD
BRANCH  28  30
ATOM     30  C   UNL     1       2.756  14.471  21.345  0.00  0.00    +0.000 A 
ATOM     31  C   UNL     1       2.338  15.590  22.072  0.00  0.00    +0.000 A 
ATOM     32  C   UNL     1       3.252  16.278  22.888  0.00  0.00    +0.000 A 
ATOM     33  C   UNL     1       4.556  15.806  23.037  0.00  0.00    +0.000 A 
ATOM     34  C   UNL     1       4.940  14.643  22.399  0.00  0.00    +0.000 A 
ATOM     35  C   UNL     1       4.052  13.978  21.553  0.00  0.00    +0.000 A 
ENDBRANCH  28  30
ENDBRANCH   2  26
TORSDOF 5
ENDMDL
MODEL 2
REMARK VINA RESULT:      -7.5      0.456      1.190
REMARK  Name = 
REMARK  7 active torsions:
REMARK  status: ('A' for Active; 'I' for Inactive)
REMARK    1  A    between atoms: C_1  and  O_2
REMARK    2  A    between atoms: O_2  and  C_3
REMARK    3  A    between atoms: C_3  and  C_5
REMARK    4  A    between atoms: C_8  and  C_9
REMARK    5  A    between atoms: C_10  and  C_11
REMARK    6  A    between atoms: N_13  and  C_14
REMARK    7  A    between atoms: C_20  and  C_21
REMARK                            x       y       z     vdW  Elec       q    Type
REMARK                         _______ _______ _______ _____ _____    ______ ____
ROOT
ATOM      1  C   UNL     1      -0.512  11.064  19.744  0.00  0.00    +0.000 C 
ATOM      2  C   UNL     1       0.061  12.466  19.652  0.00  0.00    +0.000 C 
ATOM      3  C   UNL     1      -0.610  13.325  18.855  0.00  0.00    +0.000 C 
ATOM      4  C   UNL     1      -1.533  14.068  19.845  0.00  0.00    +0.000 C 
ATOM      5  N   UNL     1      -1.153  12.781  17.622  0.00  0.00    +0.000 N 
ATOM      6  C   UNL     1      -1.605  11.477  17.598  0.00  0.00    +0.000 A 
ATOM      7  N   UNL     1      -2.474  10.875  16.790  0.00  0.00    +0.000 NA
ATOM      8  C   UNL     1      -3.632  10.950  17.556  0.00  0.00    +0.000 A 
ATOM      9  C   UNL     1      -4.969  11.034  17.065  0.00  0.00    +0.000 A 
ATOM     10  C   UNL     1      -5.843  11.975  17.617  0.00  0.00    +0.000 A 
ATOM     11  C   UNL     1      -5.395  12.737  18.678  0.00  0.00    +0.000 A 
ATOM     12  C   UNL     1      -4.170  12.423  19.355  0.00  0.00    +0.000 A 
ATOM     13  C   UNL     1      -3.269  11.395  18.862  0.00  0.00    +0.000 A 
ATOM     14  N   UNL     1      -1.826  10.956  18.864  0.00  0.00    +0.000 N 
ATOM     15  H   UNL     1      -0.528  12.947  16.841  0.00  0.00    +0.000 HD
ENDROOT
BRANCH   1  19
ATOM     16  C   UNL     1       2.392   7.746  18.586  0.00  0.00    +0.000 A 
ATOM     17  C   UNL     1       2.137   8.863  17.764  0.00  0.00    +0.000 A 
ATOM     18  C   UNL     1       1.382  10.007  18.206  0.00  0.00    +0.000 A 
ATOM     19  C   UNL     1       0.831  10.122  19.506  0.00  0.00    +0.000 A 
ATOM     20  C   UNL     1       1.159   9.006  20.343  0.00  0.00    +0.000 A 
ATOM     21  C   UNL     1       1.904   7.845  19.893  0.00  0.00    +0.000 A 
BRANCH  16  22
ATOM     22  C   UNL     1       3.117   6.538  17.979  0.00  0.00    +0.000 C 
ATOM     23  O   UNL     1       2.676   5.396  18.090  0.00  0.00    +0.000 OA
BRANCH  22  25
ATOM     24  C   UNL     1       4.907   5.733  16.630  0.00  0.00    +0.000 C 
ATOM     25  O   UNL     1       4.274   6.842  17.322  0.00  0.00    +0.000 OA
ENDBRANCH  22  25
ENDBRANCH  16  22
ENDBRANCH   1  19
BRANCH   2  26
ATOM     26  C   UNL     1       0.933  12.964  20.754  0.00  0.00    +0.000 C 
ATOM     27  O   UNL     1       0.818  12.471  21.863  0.00  0.00    +0.000 OA
ATOM     28  N   UNL     1       1.879  13.903  20.370  0.00  0.00    +0.000 N 
ATOM     29  H   UNL     1       2.037  14.109  19.399  0.00  0.00    +0.000 HD
BRANCH  28  30
ATOM     30  C   UNL     1       2.788  14.515  21.285  0.00  0.00    +0.000 A 
ATOM     31  C   UNL     1       4.059  13.960  21.462  0.00  0.00    +0.000 A 
ATOM     32  C   UNL     1       4.914  14.468  22.455  0.00  0.00    +0.000 A 
ATOM     33  C   UNL     1       4.532  15.576  23.213  0.00  0.00    +0.000 A 
ATOM     34  C   UNL     1       3.319  16.186  22.968  0.00  0.00    +0.000 A 
ATOM     35  C   UNL     1       2.446  15.661  22.015  0.00  0.00    +0.000 A 
ENDBRANCH  28  30
ENDBRANCH   2  26
TORSDOF 5
ENDMDL
MODEL 3
REMARK VINA RESULT:      -7.3      3.092      4.019
REMARK  Name = 
REMARK  7 active torsions:
REMARK  status: ('A' for Active; 'I' for Inactive)
REMARK    1  A    between atoms: C_1  and  O_2
REMARK    2  A    between atoms: O_2  and  C_3
REMARK    3  A    between atoms: C_3  and  C_5
REMARK    4  A    between atoms: C_8  and  C_9
REMARK    5  A    between atoms: C_10  and  C_11
REMARK    6  A    between atoms: N_13  and  C_14
REMARK    7  A    between atoms: C_20  and  C_21
REMARK                            x       y       z     vdW  Elec       q    Type
REMARK                         _______ _______ _______ _____ _____    ______ ____
ROOT
ATOM      1  C   UNL     1      -1.847  12.581  21.647  0.00  0.00    +0.000 C 
ATOM      2  C   UNL     1      -1.536  13.693  20.663  0.00  0.00    +0.000 C 
ATOM      3  C   UNL     1      -2.557  14.531  20.379  0.00  0.00    +0.000 C 
ATOM      4  C   UNL     1      -2.323  15.706  21.353  0.00  0.00    +0.000 C 
ATOM      5  N   UNL     1      -3.877  13.934  20.263  0.00  0.00    +0.000 N 
ATOM      6  C   UNL     1      -4.203  12.852  21.056  0.00  0.00    +0.000 A 
ATOM      7  N   UNL     1      -5.388  12.388  21.444  0.00  0.00    +0.000 NA
ATOM      8  C   UNL     1      -5.490  12.966  22.705  0.00  0.00    +0.000 A 
ATOM      9  C   UNL     1      -6.695  13.347  23.368  0.00  0.00    +0.000 A 
ATOM     10  C   UNL     1      -6.772  14.601  23.981  0.00  0.00    +0.000 A 
ATOM     11  C   UNL     1      -5.641  15.393  23.988  0.00  0.00    +0.000 A 
ATOM     12  C   UNL     1      -4.364  14.871  23.597  0.00  0.00    +0.000 A 
ATOM     13  C   UNL     1      -4.225  13.540  23.030  0.00  0.00    +0.000 A 
ATOM     14  N   UNL     1      -3.350  12.696  22.138  0.00  0.00    +0.000 N 
ATOM     15  H   UNL     1      -4.107  13.738  19.296  0.00  0.00    +0.000 HD
ENDROOT
BRANCH   1  19
ATOM     16  C   UNL     1       0.696   9.677  19.221  0.00  0.00    +0.000 A 
ATOM     17  C   UNL     1       0.819   9.821  20.618  0.00  0.00    +0.000 A 
ATOM     18  C   UNL     1      -0.110  10.582  21.414  0.00  0.00    +0.000 A 
ATOM     19  C   UNL     1      -1.235  11.250  20.872  0.00  0.00    +0.000 A 
ATOM     20  C   UNL     1      -1.376  11.035  19.462  0.00  0.00    +0.000 A 
ATOM     21  C   UNL     1      -0.431  10.284  18.657  0.00  0.00    +0.000 A 
BRANCH  16  22
ATOM     22  C   UNL     1       1.800   8.933  18.459  0.00  0.00    +0.000 C 
ATOM     23  O   UNL     1       2.178   9.297  17.348  0.00  0.00    +0.000 OA
BRANCH  22  25
ATOM     24  C   UNL     1       2.718   6.744  18.266  0.00  0.00    +0.000 C 
ATOM     25  O   UNL     1       2.310   7.849  19.114  0.00  0.00    +0.000 OA
ENDBRANCH  22  25
ENDBRANCH  16  22
ENDBRANCH   1  19
BRANCH   2  26
ATOM     26  C   UNL     1      -0.120  14.121  20.480  0.00  0.00    +0.000 C 
ATOM     27  O   UNL     1       0.606  14.184  21.457  0.00  0.00    +0.000 OA
ATOM     28  N   UNL     1       0.263  14.322  19.162  0.00  0.00    +0.000 N 
ATOM     29  H   UNL     1      -0.341  14.058  18.403  0.00  0.00    +0.000 HD
BRANCH  28  30
ATOM     30  C   UNL     1       1.570  14.757  18.786  0.00  0.00    +0.000 A 
ATOM     31  C   UNL     1       1.798  16.116  18.546  0.00  0.00    +0.000 A 
ATOM     32  C   UNL     1       3.040  16.541  18.046  0.00  0.00    +0.000 A 
ATOM     33  C   UNL     1       4.075  15.623  17.859  0.00  0.00    +0.000 A 
ATOM     34  C   UNL     1       3.882  14.298  18.192  0.00  0.00    +0.000 A 
ATOM     35  C   UNL     1       2.638  13.860  18.648  0.00  0.00    +0.000 A 
ENDBRANCH  28  30
ENDBRANCH   2  26
TORSDOF 5
ENDMDL
MODEL 4
REMARK VINA RESULT:      -7.1      3.561      7.246
REMARK  Name = 
REMARK  7 active torsions:
REMARK  status: ('A' for Active; 'I' for Inactive)
REMARK    1  A    between atoms: C_1  and  O_2
REMARK    2  A    between atoms: O_2  and  C_3
REMARK    3  A    between atoms: C_3  and  C_5
REMARK    4  A    between atoms: C_8  and  C_9
REMARK    5  A    between atoms: C_10  and  C_11
REMARK    6  A    between atoms: N_13  and  C_14
REMARK    7  A    between atoms: C_20  and  C_21
REMARK                            x       y       z     vdW  Elec       q    Type
REMARK                         _______ _______ _______ _____ _____    ______ ____
ROOT
ATOM      1  C   UNL     1      -0.793  11.676  19.768  0.00  0.00    +0.000 C 
ATOM      2  C   UNL     1       0.297  12.721  19.621  0.00  0.00    +0.000 C 
ATOM      3  C   UNL     1       1.554  12.302  19.880  0.00  0.00    +0.000 C 
ATOM      4  C   UNL     1       2.097  11.942  18.481  0.00  0.00    +0.000 C 
ATOM      5  N   UNL     1       1.715  11.371  20.985  0.00  0.00    +0.000 N 
ATOM      6  C   UNL     1       0.719  10.451  21.247  0.00  0.00    +0.000 A 
ATOM      7  N   UNL     1       0.763   9.283  21.882  0.00  0.00    +0.000 NA
ATOM      8  C   UNL     1       0.877   8.410  20.806  0.00  0.00    +0.000 A 
ATOM      9  C   UNL     1       1.538   7.145  20.807  0.00  0.00    +0.000 A 
ATOM     10  C   UNL     1       2.407   6.824  19.760  0.00  0.00    +0.000 A 
ATOM     11  C   UNL     1       2.530   7.722  18.718  0.00  0.00    +0.000 A 
ATOM     12  C   UNL     1       1.632   8.831  18.581  0.00  0.00    +0.000 A 
ATOM     13  C   UNL     1       0.655   9.153  19.609  0.00  0.00    +0.000 A 
ATOM     14  N   UNL     1      -0.157  10.285  20.185  0.00  0.00    +0.000 N 
ATOM     15  H   UNL     1       1.975  11.854  21.837  0.00  0.00    +0.000 HD
ENDROOT
BRANCH   1  19
ATOM     16  C   UNL     1      -4.229  12.776  22.556  0.00  0.00    +0.000 A 
ATOM     17  C   UNL     1      -2.892  12.671  22.991  0.00  0.00    +0.000 A 
ATOM     18  C   UNL     1      -1.781  12.523  22.087  0.00  0.00    +0.000 A 
ATOM     19  C   UNL     1      -1.923  12.477  20.679  0.00  0.00    +0.000 A 
ATOM     20  C   UNL     1      -3.282  12.652  20.257  0.00  0.00    +0.000 A 
ATOM     21  C   UNL     1      -4.404  12.783  21.168  0.00  0.00    +0.000 A 
BRANCH  16  22
ATOM     22  C   UNL     1      -5.343  12.824  23.608  0.00  0.00    +0.000 C 
ATOM     23  O   UNL     1      -5.335  12.089  24.594  0.00  0.00    +0.000 OA
BRANCH  22  25
ATOM     24  C   UNL     1      -6.071  15.079  23.839  0.00  0.00    +0.000 C 
ATOM     25  O   UNL     1      -6.327  13.736  23.353  0.00  0.00    +0.000 OA
ENDBRANCH  22  25
ENDBRANCH  16  22
ENDBRANCH   1  19
BRANCH   2  26
ATOM     26  C   UNL     1       0.048  13.907  18.751  0.00  0.00    +0.000 C 
ATOM     27  O   UNL     1      -0.732  13.799  17.821  0.00  0.00    +0.000 OA
ATOM     28  N   UNL     1       0.682  15.071  19.159  0.00  0.00    +0.000 N 
ATOM     29  H   UNL     1       1.149  15.122  20.047  0.00  0.00    +0.000 HD
BRANCH  28  30
ATOM     30  C   UNL     1       0.586  16.304  18.443  0.00  0.00    +0.000 A 
ATOM     31  C   UNL     1      -0.654  16.941  18.341  0.00  0.00    +0.000 A 
ATOM     32  C   UNL     1      -0.792  18.080  17.530  0.00  0.00    +0.000 A 
ATOM     33  C   UNL     1       0.320  18.625  16.886  0.00  0.00    +0.000 A 
ATOM     34  C   UNL     1       1.563  18.054  17.070  0.00  0.00    +0.000 A 
ATOM     35  C   UNL     1       1.701  16.898  17.838  0.00  0.00    +0.000 A 
ENDBRANCH  28  30
ENDBRANCH   2  26
TORSDOF 5
ENDMDL
MODEL 5
REMARK VINA RESULT:      -7.1      3.477      4.612
REMARK  Name = 
REMARK  7 active torsions:
REMARK  status: ('A' for Active; 'I' for Inactive)
REMARK    1  A    between atoms: C_1  and  O_2
REMARK    2  A    between atoms: O_2  and  C_3
REMARK    3  A    between atoms: C_3  and  C_5
REMARK    4  A    between atoms: C_8  and  C_9
REMARK    5  A    between atoms: C_10  and  C_11
REMARK    6  A    between atoms: N_13  and  C_14
REMARK    7  A    between atoms: C_20  and  C_21
REMARK                            x       y       z     vdW  Elec       q    Type
REMARK                         _______ _______ _______ _____ _____    ______ ____
ROOT
ATOM      1  C   UNL     1      -2.572  13.053  21.679  0.00  0.00    +0.000 C 
ATOM      2  C   UNL     1      -2.525  14.198  20.684  0.00  0.00    +0.000 C 
ATOM      3  C   UNL     1      -3.706  14.795  20.417  0.00  0.00    +0.000 C 
ATOM      4  C   UNL     1      -3.711  16.002  21.381  0.00  0.00    +0.000 C 
ATOM      5  N   UNL     1      -4.869  13.929  20.330  0.00  0.00    +0.000 N 
ATOM      6  C   UNL     1      -4.942  12.809  21.134  0.00  0.00    +0.000 A 
ATOM      7  N   UNL     1      -5.992  12.105  21.548  0.00  0.00    +0.000 NA
ATOM      8  C   UNL     1      -6.192  12.659  22.808  0.00  0.00    +0.000 A 
ATOM      9  C   UNL     1      -7.438  12.780  23.494  0.00  0.00    +0.000 A 
ATOM     10  C   UNL     1      -7.770  13.993  24.103  0.00  0.00    +0.000 A 
ATOM     11  C   UNL     1      -6.835  15.009  24.083  0.00  0.00    +0.000 A 
ATOM     12  C   UNL     1      -5.483  14.769  23.670  0.00  0.00    +0.000 A 
ATOM     13  C   UNL     1      -5.074  13.493  23.106  0.00  0.00    +0.000 A 
ATOM     14  N   UNL     1      -4.055  12.849  22.200  0.00  0.00    +0.000 N 
ATOM     15  H   UNL     1      -5.070  13.680  19.368  0.00  0.00    +0.000 HD
ENDROOT
BRANCH   1  19
ATOM     16  C   UNL     1       0.380  10.753  19.076  0.00  0.00    +0.000 A 
ATOM     17  C   UNL     1       0.625  11.053  20.431  0.00  0.00    +0.000 A 
ATOM     18  C   UNL     1      -0.378  11.598  21.309  0.00  0.00    +0.000 A 
ATOM     19  C   UNL     1      -1.704  11.877  20.898  0.00  0.00    +0.000 A 
ATOM     20  C   UNL     1      -1.948  11.502  19.536  0.00  0.00    +0.000 A 
ATOM     21  C   UNL     1      -0.933  10.971  18.646  0.00  0.00    +0.000 A 
BRANCH  16  22
ATOM     22  C   UNL     1       1.550  10.275  18.205  0.00  0.00    +0.000 C 
ATOM     23  O   UNL     1       2.486  11.016  17.916  0.00  0.00    +0.000 OA
BRANCH  22  25
ATOM     24  C   UNL     1       2.243   8.022  18.542  0.00  0.00    +0.000 C 
ATOM     25  O   UNL     1       1.454   8.979  17.788  0.00  0.00    +0.000 OA
ENDBRANCH  22  25
ENDBRANCH  16  22
ENDBRANCH   1  19
BRANCH   2  26
ATOM     26  C   UNL     1      -1.236  14.917  20.470  0.00  0.00    +0.000 C 
ATOM     27  O   UNL     1      -0.652  15.375  21.438  0.00  0.00    +0.000 OA
ATOM     28  N   UNL     1      -0.774  14.910  19.163  0.00  0.00    +0.000 N 
ATOM     29  H   UNL     1      -1.216  14.341  18.462  0.00  0.00    +0.000 HD
BRANCH  28  30
ATOM     30  C   UNL     1       0.427  15.565  18.755  0.00  0.00    +0.000 A 
ATOM     31  C   UNL     1       0.381  16.913  18.385  0.00  0.00    +0.000 A 
ATOM     32  C   UNL     1       1.524  17.534  17.854  0.00  0.00    +0.000 A 
ATOM     33  C   UNL     1       2.729  16.834  17.767  0.00  0.00    +0.000 A 
ATOM     34  C   UNL     1       2.800  15.535  18.227  0.00  0.00    +0.000 A 
ATOM     35  C   UNL     1       1.659  14.897  18.715  0.00  0.00    +0.000 A 
ENDBRANCH  28  30
ENDBRANCH   2  26
TORSDOF 5
ENDMDL
MODEL 6
REMARK VINA RESULT:      -7.0      2.824      3.758
REMARK  Name = 
REMARK  7 active torsions:
REMARK  status: ('A' for Active; 'I' for Inactive)
REMARK    1  A    between atoms: C_1  and  O_2
REMARK    2  A    between atoms: O_2  and  C_3
REMARK    3  A    between atoms: C_3  and  C_5
REMARK    4  A    between atoms: C_8  and  C_9
REMARK    5  A    between atoms: C_10  and  C_11
REMARK    6  A    between atoms: N_13  and  C_14
REMARK    7  A    between atoms: C_20  and  C_21
REMARK                            x       y       z     vdW  Elec       q    Type
REMARK                         _______ _______ _______ _____ _____    ______ ____
ROOT
ATOM      1  C   UNL     1      -1.437  12.371  21.552  0.00  0.00    +0.000 C 
ATOM      2  C   UNL     1      -0.976  13.526  20.683  0.00  0.00    +0.000 C 
ATOM      3  C   UNL     1      -1.897  14.482  20.436  0.00  0.00    +0.000 C 
ATOM      4  C   UNL     1      -1.598  15.541  21.519  0.00  0.00    +0.000 C 
ATOM      5  N   UNL     1      -3.261  14.031  20.217  0.00  0.00    +0.000 N 
ATOM      6  C   UNL     1      -3.726  12.923  20.898  0.00  0.00    +0.000 A 
ATOM      7  N   UNL     1      -4.966  12.547  21.198  0.00  0.00    +0.000 NA
ATOM      8  C   UNL     1      -5.071  13.024  22.500  0.00  0.00    +0.000 A 
ATOM      9  C   UNL     1      -6.264  13.466  23.148  0.00  0.00    +0.000 A 
ATOM     10  C   UNL     1      -6.250  14.664  23.866  0.00  0.00    +0.000 A 
ATOM     11  C   UNL     1      -5.050  15.337  23.987  0.00  0.00    +0.000 A 
ATOM     12  C   UNL     1      -3.812  14.726  23.601  0.00  0.00    +0.000 A 
ATOM     13  C   UNL     1      -3.775  13.440  22.923  0.00  0.00    +0.000 A 
ATOM     14  N   UNL     1      -2.943  12.593  21.994  0.00  0.00    +0.000 N 
ATOM     15  H   UNL     1      -3.463  13.941  19.228  0.00  0.00    +0.000 HD
ENDROOT
BRANCH   1  19
ATOM     16  C   UNL     1       0.968   9.405  19.061  0.00  0.00    +0.000 A 
ATOM     17  C   UNL     1       0.942   9.379  20.470  0.00  0.00    +0.000 A 
ATOM     18  C   UNL     1       0.035  10.176  21.254  0.00  0.00    +0.000 A 
ATOM     19  C   UNL     1      -0.920  11.055  20.686  0.00  0.00    +0.000 A 
ATOM     20  C   UNL     1      -0.919  11.016  19.253  0.00  0.00    +0.000 A 
ATOM     21  C   UNL     1       0.007  10.227  18.464  0.00  0.00    +0.000 A 
BRANCH  16  22
ATOM     22  C   UNL     1       2.046   8.594  18.331  0.00  0.00    +0.000 C 
ATOM     23  O   UNL     1       2.468   8.926  17.225  0.00  0.00    +0.000 OA
BRANCH  22  25
ATOM     24  C   UNL     1       3.016   6.425  18.179  0.00  0.00    +0.000 C 
ATOM     25  O   UNL     1       2.482   7.491  19.006  0.00  0.00    +0.000 OA
ENDBRANCH  22  25
ENDBRANCH  16  22
ENDBRANCH   1  19
BRANCH   2  26
ATOM     26  C   UNL     1       0.482  13.825  20.593  0.00  0.00    +0.000 C 
ATOM     27  O   UNL     1       1.218  13.435  21.484  0.00  0.00    +0.000 OA
ATOM     28  N   UNL     1       0.877  14.456  19.423  0.00  0.00    +0.000 N 
ATOM     29  H   UNL     1       0.238  14.565  18.654  0.00  0.00    +0.000 HD
BRANCH  28  30
ATOM     30  C   UNL     1       2.226  14.846  19.162  0.00  0.00    +0.000 A 
ATOM     31  C   UNL     1       3.009  14.069  18.303  0.00  0.00    +0.000 A 
ATOM     32  C   UNL     1       4.374  14.361  18.142  0.00  0.00    +0.000 A 
ATOM     33  C   UNL     1       4.935  15.472  18.775  0.00  0.00    +0.000 A 
ATOM     34  C   UNL     1       4.138  16.297  19.542  0.00  0.00    +0.000 A 
ATOM     35  C   UNL     1       2.792  15.989  19.742  0.00  0.00    +0.000 A 
ENDBRANCH  28  30
ENDBRANCH   2  26
TORSDOF 5
ENDMDL
MODEL 7
REMARK VINA RESULT:      -7.0      1.805      6.558
REMARK  Name = 
REMARK  7 active torsions:
REMARK  status: ('A' for Active; 'I' for Inactive)
REMARK    1  A    between atoms: C_1  and  O_2
REMARK    2  A    between atoms: O_2  and  C_3
REMARK    3  A    between atoms: C_3  and  C_5
REMARK    4  A    between atoms: C_8  and  C_9
REMARK    5  A    between atoms: C_10  and  C_11
REMARK    6  A    between atoms: N_13  and  C_14
REMARK    7  A    between atoms: C_20  and  C_21
REMARK                            x       y       z     vdW  Elec       q    Type
REMARK                         _______ _______ _______ _____ _____    ______ ____
ROOT
ATOM      1  C   UNL     1       0.900  12.294  18.864  0.00  0.00    +0.000 C 
ATOM      2  C   UNL     1      -0.412  12.677  19.523  0.00  0.00    +0.000 C 
ATOM      3  C   UNL     1      -0.338  13.639  20.468  0.00  0.00    +0.000 C 
ATOM      4  C   UNL     1      -0.678  14.924  19.684  0.00  0.00    +0.000 C 
ATOM      5  N   UNL     1       0.824  13.605  21.342  0.00  0.00    +0.000 N 
ATOM      6  C   UNL     1       2.036  13.173  20.842  0.00  0.00    +0.000 A 
ATOM      7  N   UNL     1       3.278  13.409  21.255  0.00  0.00    +0.000 NA
ATOM      8  C   UNL     1       3.637  14.452  20.409  0.00  0.00    +0.000 A 
ATOM      9  C   UNL     1       4.552  15.507  20.704  0.00  0.00    +0.000 A 
ATOM     10  C   UNL     1       4.199  16.825  20.401  0.00  0.00    +0.000 A 
ATOM     11  C   UNL     1       3.002  17.046  19.750  0.00  0.00    +0.000 A 
ATOM     12  C   UNL     1       2.250  15.962  19.187  0.00  0.00    +0.000 A 
ATOM     13  C   UNL     1       2.628  14.576  19.408  0.00  0.00    +0.000 A 
ATOM     14  N   UNL     1       2.080  13.172  19.455  0.00  0.00    +0.000 N 
ATOM     15  H   UNL     1       0.615  13.127  22.210  0.00  0.00    +0.000 HD
ENDROOT
BRANCH   1  19
ATOM     16  C   UNL     1       1.893   7.889  19.490  0.00  0.00    +0.000 A 
ATOM     17  C   UNL     1       1.246   8.675  20.465  0.00  0.00    +0.000 A 
ATOM     18  C   UNL     1       0.751  10.002  20.203  0.00  0.00    +0.000 A 
ATOM     19  C   UNL     1       0.860  10.639  18.943  0.00  0.00    +0.000 A 
ATOM     20  C   UNL     1       1.461   9.797  17.951  0.00  0.00    +0.000 A 
ATOM     21  C   UNL     1       1.976   8.467  18.219  0.00  0.00    +0.000 A 
BRANCH  16  22
ATOM     22  C   UNL     1       2.473   6.532  19.907  0.00  0.00    +0.000 C 
ATOM     23  O   UNL     1       3.532   6.111  19.445  0.00  0.00    +0.000 OA
BRANCH  22  25
ATOM     24  C   UNL     1       1.442   4.463  20.478  0.00  0.00    +0.000 C 
ATOM     25  O   UNL     1       1.720   5.847  20.816  0.00  0.00    +0.000 OA
ENDBRANCH  22  25
ENDBRANCH  16  22
ENDBRANCH   1  19
BRANCH   2  26
ATOM     26  C   UNL     1      -1.689  12.408  18.802  0.00  0.00    +0.000 C 
ATOM     27  O   UNL     1      -1.652  12.200  17.601  0.00  0.00    +0.000 OA
ATOM     28  N   UNL     1      -2.811  12.330  19.612  0.00  0.00    +0.000 N 
ATOM     29  H   UNL     1      -2.725  12.317  20.614  0.00  0.00    +0.000 HD
BRANCH  28  30
ATOM     30  C   UNL     1      -4.127  12.104  19.105  0.00  0.00    +0.000 A 
ATOM     31  C   UNL     1      -5.182  12.900  19.561  0.00  0.00    +0.000 A 
ATOM     32  C   UNL     1      -6.501  12.604  19.176  0.00  0.00    +0.000 A 
ATOM     33  C   UNL     1      -6.756  11.566  18.278  0.00  0.00    +0.000 A 
ATOM     34  C   UNL     1      -5.703  10.846  17.750  0.00  0.00    +0.000 A 
ATOM     35  C   UNL     1      -4.396  11.105  18.160  0.00  0.00    +0.000 A 
ENDBRANCH  28  30
ENDBRANCH   2  26
TORSDOF 5
ENDMDL
MODEL 8
REMARK VINA RESULT:      -6.9      4.169      7.335
REMARK  Name = 
REMARK  7 active torsions:
REMARK  status: ('A' for Active; 'I' for Inactive)
REMARK    1  A    between atoms: C_1  and  O_2
REMARK    2  A    between atoms: O_2  and  C_3
REMARK    3  A    between atoms: C_3  and  C_5
REMARK    4  A    between atoms: C_8  and  C_9
REMARK    5  A    between atoms: C_10  and  C_11
REMARK    6  A    between atoms: N_13  and  C_14
REMARK    7  A    between atoms: C_20  and  C_21
REMARK                            x       y       z     vdW  Elec       q    Type
REMARK                         _______ _______ _______ _____ _____    ______ ____
ROOT
ATOM      1  C   UNL     1      -4.161  14.152  21.183  0.00  0.00    +0.000 C 
ATOM      2  C   UNL     1      -5.159  13.038  20.934  0.00  0.00    +0.000 C 
ATOM      3  C   UNL     1      -6.433  13.296  21.299  0.00  0.00    +0.000 C 
ATOM      4  C   UNL     1      -7.078  13.790  19.986  0.00  0.00    +0.000 C 
ATOM      5  N   UNL     1      -6.619  14.047  22.529  0.00  0.00    +0.000 N 
ATOM      6  C   UNL     1      -5.697  15.013  22.878  0.00  0.00    +0.000 A 
ATOM      7  N   UNL     1      -5.811  16.074  23.672  0.00  0.00    +0.000 NA
ATOM      8  C   UNL     1      -6.059  17.071  22.735  0.00  0.00    +0.000 A 
ATOM      9  C   UNL     1      -6.830  18.256  22.941  0.00  0.00    +0.000 A 
ATOM     10  C   UNL     1      -7.777  18.631  21.985  0.00  0.00    +0.000 A 
ATOM     11  C   UNL     1      -7.875  17.876  20.832  0.00  0.00    +0.000 A 
ATOM     12  C   UNL     1      -6.889  16.887  20.505  0.00  0.00    +0.000 A 
ATOM     13  C   UNL     1      -5.835  16.523  21.438  0.00  0.00    +0.000 A 
ATOM     14  N   UNL     1      -4.895  15.406  21.817  0.00  0.00    +0.000 N 
ATOM     15  H   UNL     1      -6.789  13.429  23.314  0.00  0.00    +0.000 HD
ENDROOT
BRANCH   1  19
ATOM     16  C   UNL     1      -1.161  11.024  22.599  0.00  0.00    +0.000 A 
ATOM     17  C   UNL     1      -0.917  11.881  21.507  0.00  0.00    +0.000 A 
ATOM     18  C   UNL     1      -1.765  12.999  21.180  0.00  0.00    +0.000 A 
ATOM     19  C   UNL     1      -2.917  13.347  21.926  0.00  0.00    +0.000 A 
ATOM     20  C   UNL     1      -3.108  12.502  23.069  0.00  0.00    +0.000 A 
ATOM     21  C   UNL     1      -2.265  11.366  23.388  0.00  0.00    +0.000 A 
BRANCH  16  22
ATOM     22  C   UNL     1      -0.254   9.803  22.792  0.00  0.00    +0.000 C 
ATOM     23  O   UNL     1       0.388   9.631  23.826  0.00  0.00    +0.000 OA
BRANCH  22  25
ATOM     24  C   UNL     1       1.089   8.428  21.386  0.00  0.00    +0.000 C 
ATOM     25  O   UNL     1      -0.223   8.945  21.731  0.00  0.00    +0.000 OA
ENDBRANCH  22  25
ENDBRANCH  16  22
ENDBRANCH   1  19
BRANCH   2  26
ATOM     26  C   UNL     1      -4.852  12.011  19.896  0.00  0.00    +0.000 C 
ATOM     27  O   UNL     1      -5.506  10.983  19.875  0.00  0.00    +0.000 OA
ATOM     28  N   UNL     1      -3.882  12.384  18.977  0.00  0.00    +0.000 N 
ATOM     29  H   UNL     1      -3.533  13.326  18.948  0.00  0.00    +0.000 HD
BRANCH  28  30
ATOM     30  C   UNL     1      -3.434  11.529  17.924  0.00  0.00    +0.000 A 
ATOM     31  C   UNL     1      -4.141  11.500  16.718  0.00  0.00    +0.000 A 
ATOM     32  C   UNL     1      -3.794  10.569  15.725  0.00  0.00    +0.000 A 
ATOM     33  C   UNL     1      -2.698   9.724  15.904  0.00  0.00    +0.000 A 
ATOM     34  C   UNL     1      -1.939   9.823  17.053  0.00  0.00    +0.000 A 
ATOM     35  C   UNL     1      -2.303  10.715  18.062  0.00  0.00    +0.000 A 
ENDBRANCH  28  30
ENDBRANCH   2  26
TORSDOF 5
ENDMDL
MODEL 9
REMARK VINA RESULT:      -6.9      2.923      7.928
REMARK  Name = 
REMARK  7 active torsions:
REMARK  status: ('A' for Active; 'I' for Inactive)
REMARK    1  A    between atoms: C_1  and  O_2
REMARK    2  A    between atoms: O_2  and  C_3
REMARK    3  A    between atoms: C_3  and  C_5
REMARK    4  A    between atoms: C_8  and  C_9
REMARK    5  A    between atoms: C_10  and  C_11
REMARK    6  A    between atoms: N_13  and  C_14
REMARK    7  A    between atoms: C_20  and  C_21
REMARK                            x       y       z     vdW  Elec       q    Type
REMARK                         _______ _______ _______ _____ _____    ______ ____
ROOT
ATOM      1  C   UNL     1       0.633  12.558  20.830  0.00  0.00    +0.000 C 
ATOM      2  C   UNL     1       0.544  12.093  19.388  0.00  0.00    +0.000 C 
ATOM      3  C   UNL     1       0.932  12.988  18.455  0.00  0.00    +0.000 C 
ATOM      4  C   UNL     1       2.404  12.605  18.195  0.00  0.00    +0.000 C 
ATOM      5  N   UNL     1       0.572  14.376  18.695  0.00  0.00    +0.000 N 
ATOM      6  C   UNL     1       0.533  14.852  19.990  0.00  0.00    +0.000 A 
ATOM      7  N   UNL     1       0.637  16.091  20.462  0.00  0.00    +0.000 NA
ATOM      8  C   UNL     1       1.984  16.123  20.805  0.00  0.00    +0.000 A 
ATOM      9  C   UNL     1       2.834  17.271  20.799  0.00  0.00    +0.000 A 
ATOM     10  C   UNL     1       4.101  17.182  20.218  0.00  0.00    +0.000 A 
ATOM     11  C   UNL     1       4.514  15.954  19.738  0.00  0.00    +0.000 A 
ATOM     12  C   UNL     1       3.782  14.757  20.032  0.00  0.00    +0.000 A 
ATOM     13  C   UNL     1       2.496  14.796  20.709  0.00  0.00    +0.000 A 
ATOM     14  N   UNL     1       1.206  14.036  20.887  0.00  0.00    +0.000 N 
ATOM     15  H   UNL     1      -0.282  14.623  18.208  0.00  0.00    +0.000 HD
ENDROOT
BRANCH   1  19
ATOM     16  C   UNL     1      -3.371  12.428  23.006  0.00  0.00    +0.000 A 
ATOM     17  C   UNL     1      -3.232  12.894  21.683  0.00  0.00    +0.000 A 
ATOM     18  C   UNL     1      -2.017  12.753  20.923  0.00  0.00    +0.000 A 
ATOM     19  C   UNL     1      -0.851  12.127  21.428  0.00  0.00    +0.000 A 
ATOM     20  C   UNL     1      -1.036  11.603  22.749  0.00  0.00    +0.000 A 
ATOM     21  C   UNL     1      -2.254  11.762  23.522  0.00  0.00    +0.000 A 
BRANCH  16  22
ATOM     22  C   UNL     1      -4.674  12.725  23.757  0.00  0.00    +0.000 C 
ATOM     23  O   UNL     1      -5.113  11.965  24.618  0.00  0.00    +0.000 OA
BRANCH  22  25
ATOM     24  C   UNL     1      -6.704  13.970  23.708  0.00  0.00    +0.000 C 
ATOM     25  O   UNL     1      -5.291  13.886  23.387  0.00  0.00    +0.000 OA
ENDBRANCH  22  25
ENDBRANCH  16  22
ENDBRANCH   1  19
BRANCH   2  26
ATOM     26  C   UNL     1       0.558  10.630  19.100  0.00  0.00    +0.000 C 
ATOM     27  O   UNL     1      -0.271  10.175  18.329  0.00  0.00    +0.000 OA
ATOM     28  N   UNL     1       1.602   9.930  19.686  0.00  0.00    +0.000 N 
ATOM     29  H   UNL     1       2.354  10.413  20.145  0.00  0.00    +0.000 HD
BRANCH  28  30
ATOM     30  C   UNL     1       1.772   8.519  19.547  0.00  0.00    +0.000 A 
ATOM     31  C   UNL     1       1.435   7.680  20.614  0.00  0.00    +0.000 A 
ATOM     32  C   UNL     1       1.722   6.307  20.544  0.00  0.00    +0.000 A 
ATOM     33  C   UNL     1       2.270   5.761  19.383  0.00  0.00    +0.000 A 
ATOM     34  C   UNL     1       2.508   6.572  18.292  0.00  0.00    +0.000 A 
ATOM     35  C   UNL     1       2.267   7.944  18.369  0.00  0.00    +0.000 A 
ENDBRANCH  28  30
ENDBRANCH   2  26
TORSDOF 5
ENDMDL
