MODEL 1
REMARK VINA RESULT:      -7.5      0.000      0.000
REMARK  Name = 
REMARK  8 active torsions:
REMARK  status: ('A' for Active; 'I' for Inactive)
REMARK    1  A    between atoms: C_2  and  O_3
REMARK    2  A    between atoms: C_2  and  C_4
REMARK    3  A    between atoms: C_4  and  O_5
REMARK    4  A    between atoms: O_5  and  C_6
REMARK    5  A    between atoms: C_18  and  N_19
REMARK    6  A    between atoms: N_19  and  C_20
REMARK    7  A    between atoms: C_20  and  C_21
REMARK    8  A    between atoms: C_21  and  O_22
REMARK                            x       y       z     vdW  Elec       q    Type
REMARK                         _______ _______ _______ _____ _____    ______ ____
ROOT
ATOM      1  C   UNL     1       6.671   5.797  17.168  0.00  0.00    +0.000 C 
ATOM      2  C   UNL     1       5.406   6.312  16.441  0.00  0.00    +0.000 C 
ATOM      3  C   UNL     1       4.338   6.840  17.382  0.00  0.00    +0.000 C 
ATOM      4  N   UNL     1       4.143   5.961  18.521  0.00  0.00    +0.000 N 
ATOM      5  C   UNL     1       3.051   5.101  18.532  0.00  0.00    +0.000 A 
ATOM      6  C   UNL     1       2.508   4.708  19.747  0.00  0.00    +0.000 A 
ATOM      7  C   UNL     1       1.424   3.856  19.752  0.00  0.00    +0.000 A 
ATOM      8  N   UNL     1       0.870   3.436  18.610  0.00  0.00    +0.000 NA
ATOM      9  C   UNL     1       1.424   3.895  17.479  0.00  0.00    +0.000 A 
ATOM     10  N   UNL     1       2.497   4.700  17.380  0.00  0.00    +0.000 NA
ATOM     11  C   UNL     1       5.327   5.629  19.312  0.00  0.00    +0.000 C 
ATOM     12  C   UNL     1       6.365   4.947  18.424  0.00  0.00    +0.000 C 
ENDROOT
BRANCH   1  14
ATOM     13  O   UNL     1       7.640   8.072  17.132  0.00  0.00    +0.000 OA
ATOM     14  C   UNL     1       7.555   6.982  17.684  0.00  0.00    +0.000 C 
BRANCH  14  15
ATOM     15  O   UNL     1       8.242   6.759  18.833  0.00  0.00    +0.000 OA
ATOM     16  H   UNL     1       7.865   6.091  19.429  0.00  0.00    +0.000 HD
ENDBRANCH  14  15
ENDBRANCH   1  14
BRANCH   7  17
ATOM     17  N   UNL     1       0.861   3.504  20.985  0.00  0.00    +0.000 N 
ATOM     18  H   UNL     1       0.405   4.280  21.454  0.00  0.00    +0.000 HD
BRANCH  17  19
ATOM     19  C   UNL     1       1.709   2.737  21.905  0.00  0.00    +0.000 C 
BRANCH  19  20
ATOM     20  C   UNL     1       2.662   1.788  21.163  0.00  0.00    +0.000 C 
BRANCH  20  21
ATOM     21  O   UNL     1       4.023   2.086  21.489  0.00  0.00    +0.000 OA
ATOM     22  H   UNL     1       4.008   2.431  22.398  0.00  0.00    +0.000 HD
ENDBRANCH  20  21
ENDBRANCH  19  20
ENDBRANCH  17  19
ENDBRANCH   7  17
BRANCH   1  23
ATOM     23  O   UNL     1       7.551   5.139  16.228  0.00  0.00    +0.000 OA
BRANCH  23  24
ATOM     24  C   UNL     1       7.153   4.748  14.976  0.00  0.00    +0.000 A 
ATOM     25  C   UNL     1       6.232   3.749  14.653  0.00  0.00    +0.000 A 
ATOM     26  C   UNL     1       5.942   3.432  13.317  0.00  0.00    +0.000 A 
ATOM     27  C   UNL     1       6.563   4.126  12.290  0.00  0.00    +0.000 A 
ATOM     28  C   UNL     1       7.459   5.139  12.606  0.00  0.00    +0.000 A 
ATOM     29  F   UNL     1       8.050   5.823  11.616  0.00  0.00    +0.000 F 
ATOM     30  C   UNL     1       7.756   5.454  13.930  0.00  0.00    +0.000 A 
ENDBRANCH  23  24
ENDBRANCH   1  23
TORSDOF 8
ENDMDL
MODEL 2
REMARK VINA RESULT:      -7.0      0.879      1.409
REMARK  Name = 
REMARK  8 active torsions:
REMARK  status: ('A' for Active; 'I' for Inactive)
REMARK    1  A    between atoms: C_2  and  O_3
REMARK    2  A    between atoms: C_2  and  C_4
REMARK    3  A    between atoms: C_4  and  O_5
REMARK    4  A    between atoms: O_5  and  C_6
REMARK    5  A    between atoms: C_18  and  N_19
REMARK    6  A    between atoms: N_19  and  C_20
REMARK    7  A    between atoms: C_20  and  C_21
REMARK    8  A    between atoms: C_21  and  O_22
REMARK                            x       y       z     vdW  Elec       q    Type
REMARK                         _______ _______ _______ _____ _____    ______ ____
ROOT
ATOM      1  C   UNL     1       6.630   5.505  17.101  0.00  0.00    +0.000 C 
ATOM      2  C   UNL     1       5.395   5.988  16.303  0.00  0.00    +0.000 C 
ATOM      3  C   UNL     1       4.293   6.559  17.177  0.00  0.00    +0.000 C 
ATOM      4  N   UNL     1       4.052   5.732  18.346  0.00  0.00    +0.000 N 
ATOM      5  C   UNL     1       2.958   4.875  18.354  0.00  0.00    +0.000 A 
ATOM      6  C   UNL     1       2.368   4.537  19.562  0.00  0.00    +0.000 A 
ATOM      7  C   UNL     1       1.282   3.686  19.564  0.00  0.00    +0.000 A 
ATOM      8  N   UNL     1       0.772   3.216  18.421  0.00  0.00    +0.000 NA
ATOM      9  C   UNL     1       1.370   3.624  17.293  0.00  0.00    +0.000 A 
ATOM     10  N   UNL     1       2.449   4.422  17.200  0.00  0.00    +0.000 NA
ATOM     11  C   UNL     1       5.204   5.435  19.196  0.00  0.00    +0.000 C 
ATOM     12  C   UNL     1       6.274   4.713  18.381  0.00  0.00    +0.000 C 
ENDROOT
BRANCH   1  14
ATOM     13  O   UNL     1       8.170   6.706  18.619  0.00  0.00    +0.000 OA
ATOM     14  C   UNL     1       7.496   6.712  17.597  0.00  0.00    +0.000 C 
BRANCH  14  15
ATOM     15  O   UNL     1       7.492   7.814  16.804  0.00  0.00    +0.000 OA
ATOM     16  H   UNL     1       8.290   8.367  16.842  0.00  0.00    +0.000 HD
ENDBRANCH  14  15
ENDBRANCH   1  14
BRANCH   7  17
ATOM     17  N   UNL     1       0.671   3.391  20.789  0.00  0.00    +0.000 N 
ATOM     18  H   UNL     1      -0.005   4.090  21.078  0.00  0.00    +0.000 HD
BRANCH  17  19
ATOM     19  C   UNL     1       1.556   3.000  21.892  0.00  0.00    +0.000 C 
BRANCH  19  20
ATOM     20  C   UNL     1       2.430   1.788  21.537  0.00  0.00    +0.000 C 
BRANCH  20  21
ATOM     21  O   UNL     1       3.815   2.146  21.547  0.00  0.00    +0.000 OA
ATOM     22  H   UNL     1       3.837   3.117  21.603  0.00  0.00    +0.000 HD
ENDBRANCH  20  21
ENDBRANCH  19  20
ENDBRANCH  17  19
ENDBRANCH   7  17
BRANCH   1  23
ATOM     23  O   UNL     1       7.544   4.805  16.226  0.00  0.00    +0.000 OA
BRANCH  23  24
ATOM     24  C   UNL     1       7.390   4.756  14.865  0.00  0.00    +0.000 A 
ATOM     25  C   UNL     1       8.067   5.517  13.908  0.00  0.00    +0.000 A 
ATOM     26  C   UNL     1       7.783   5.382  12.539  0.00  0.00    +0.000 A 
ATOM     27  C   UNL     1       6.828   4.471  12.117  0.00  0.00    +0.000 A 
ATOM     28  C   UNL     1       6.172   3.694  13.063  0.00  0.00    +0.000 A 
ATOM     29  F   UNL     1       5.259   2.800  12.656  0.00  0.00    +0.000 F 
ATOM     30  C   UNL     1       6.444   3.827  14.423  0.00  0.00    +0.000 A 
ENDBRANCH  23  24
ENDBRANCH   1  23
TORSDOF 8
ENDMDL
MODEL 3
REMARK VINA RESULT:      -7.0      1.264      1.465
REMARK  Name = 
REMARK  8 active torsions:
REMARK  status: ('A' for Active; 'I' for Inactive)
REMARK    1  A    between atoms: C_2  and  O_3
REMARK    2  A    between atoms: C_2  and  C_4
REMARK    3  A    between atoms: C_4  and  O_5
REMARK    4  A    between atoms: O_5  and  C_6
REMARK    5  A    between atoms: C_18  and  N_19
REMARK    6  A    between atoms: N_19  and  C_20
REMARK    7  A    between atoms: C_20  and  C_21
REMARK    8  A    between atoms: C_21  and  O_22
REMARK                            x       y       z     vdW  Elec       q    Type
REMARK                         _______ _______ _______ _____ _____    ______ ____
ROOT
ATOM      1  C   UNL     1       6.901   6.039  16.856  0.00  0.00    +0.000 C 
ATOM      2  C   UNL     1       5.457   6.443  16.472  0.00  0.00    +0.000 C 
ATOM      3  C   UNL     1       4.506   6.495  17.654  0.00  0.00    +0.000 C 
ATOM      4  N   UNL     1       4.670   5.344  18.526  0.00  0.00    +0.000 N 
ATOM      5  C   UNL     1       3.755   4.301  18.447  0.00  0.00    +0.000 A 
ATOM      6  C   UNL     1       3.514   3.522  19.568  0.00  0.00    +0.000 A 
ATOM      7  C   UNL     1       2.605   2.489  19.485  0.00  0.00    +0.000 A 
ATOM      8  N   UNL     1       1.929   2.254  18.355  0.00  0.00    +0.000 NA
ATOM      9  C   UNL     1       2.184   3.078  17.330  0.00  0.00    +0.000 A 
ATOM     10  N   UNL     1       3.074   4.087  17.313  0.00  0.00    +0.000 NA
ATOM     11  C   UNL     1       6.017   5.083  19.031  0.00  0.00    +0.000 C 
ATOM     12  C   UNL     1       6.974   4.865  17.861  0.00  0.00    +0.000 C 
ENDROOT
BRANCH   1  14
ATOM     13  O   UNL     1       8.345   7.103  18.559  0.00  0.00    +0.000 OA
ATOM     14  C   UNL     1       7.657   7.220  17.553  0.00  0.00    +0.000 C 
BRANCH  14  15
ATOM     15  O   UNL     1       7.535   8.437  16.964  0.00  0.00    +0.000 OA
ATOM     16  H   UNL     1       8.342   8.793  16.555  0.00  0.00    +0.000 HD
ENDBRANCH  14  15
ENDBRANCH   1  14
BRANCH   7  17
ATOM     17  N   UNL     1       2.342   1.740  20.639  0.00  0.00    +0.000 N 
ATOM     18  H   UNL     1       1.983   0.812  20.442  0.00  0.00    +0.000 HD
BRANCH  17  19
ATOM     19  C   UNL     1       1.577   2.405  21.699  0.00  0.00    +0.000 C 
BRANCH  19  20
ATOM     20  C   UNL     1       1.332   3.891  21.396  0.00  0.00    +0.000 C 
BRANCH  20  21
ATOM     21  O   UNL     1       0.281   4.043  20.439  0.00  0.00    +0.000 OA
ATOM     22  H   UNL     1       0.606   4.690  19.789  0.00  0.00    +0.000 HD
ENDBRANCH  20  21
ENDBRANCH  19  20
ENDBRANCH  17  19
ENDBRANCH   7  17
BRANCH   1  23
ATOM     23  O   UNL     1       7.691   5.826  15.664  0.00  0.00    +0.000 OA
BRANCH  23  24
ATOM     24  C   UNL     1       7.245   5.103  14.588  0.00  0.00    +0.000 A 
ATOM     25  C   UNL     1       6.418   3.977  14.609  0.00  0.00    +0.000 A 
ATOM     26  C   UNL     1       6.064   3.313  13.423  0.00  0.00    +0.000 A 
ATOM     27  C   UNL     1       6.525   3.782  12.203  0.00  0.00    +0.000 A 
ATOM     28  C   UNL     1       7.325   4.917  12.176  0.00  0.00    +0.000 A 
ATOM     29  F   UNL     1       7.760   5.383  10.996  0.00  0.00    +0.000 F 
ATOM     30  C   UNL     1       7.685   5.577  13.349  0.00  0.00    +0.000 A 
ENDBRANCH  23  24
ENDBRANCH   1  23
TORSDOF 8
ENDMDL
MODEL 4
REMARK VINA RESULT:      -6.7      6.388      8.471
REMARK  Name = 
REMARK  8 active torsions:
REMARK  status: ('A' for Active; 'I' for Inactive)
REMARK    1  A    between atoms: C_2  and  O_3
REMARK    2  A    between atoms: C_2  and  C_4
REMARK    3  A    between atoms: C_4  and  O_5
REMARK    4  A    between atoms: O_5  and  C_6
REMARK    5  A    between atoms: C_18  and  N_19
REMARK    6  A    between atoms: N_19  and  C_20
REMARK    7  A    between atoms: C_20  and  C_21
REMARK    8  A    between atoms: C_21  and  O_22
REMARK                            x       y       z     vdW  Elec       q    Type
REMARK                         _______ _______ _______ _____ _____    ______ ____
ROOT
ATOM      1  C   UNL     1      -0.291  10.025  19.280  0.00  0.00    +0.000 C 
ATOM      2  C   UNL     1       0.087   9.205  20.537  0.00  0.00    +0.000 C 
ATOM      3  C   UNL     1       1.571   8.909  20.645  0.00  0.00    +0.000 C 
ATOM      4  N   UNL     1       2.127   8.478  19.374  0.00  0.00    +0.000 N 
ATOM      5  C   UNL     1       2.358   7.124  19.162  0.00  0.00    +0.000 A 
ATOM      6  C   UNL     1       3.364   6.736  18.289  0.00  0.00    +0.000 A 
ATOM      7  C   UNL     1       3.590   5.391  18.082  0.00  0.00    +0.000 A 
ATOM      8  N   UNL     1       2.883   4.464  18.737  0.00  0.00    +0.000 NA
ATOM      9  C   UNL     1       1.960   4.919  19.596  0.00  0.00    +0.000 A 
ATOM     10  N   UNL     1       1.651   6.206  19.835  0.00  0.00    +0.000 NA
ATOM     11  C   UNL     1       1.917   9.360  18.227  0.00  0.00    +0.000 C 
ATOM     12  C   UNL     1       0.421   9.553  17.991  0.00  0.00    +0.000 C 
ENDROOT
BRANCH   1  14
ATOM     13  O   UNL     1       0.332  12.290  18.505  0.00  0.00    +0.000 OA
ATOM     14  C   UNL     1       0.111  11.530  19.440  0.00  0.00    +0.000 C 
BRANCH  14  15
ATOM     15  O   UNL     1       0.188  11.995  20.712  0.00  0.00    +0.000 OA
ATOM     16  H   UNL     1       1.062  12.312  20.996  0.00  0.00    +0.000 HD
ENDBRANCH  14  15
ENDBRANCH   1  14
BRANCH   7  17
ATOM     17  N   UNL     1       4.638   5.016  17.232  0.00  0.00    +0.000 N 
ATOM     18  H   UNL     1       4.332   4.466  16.436  0.00  0.00    +0.000 HD
BRANCH  17  19
ATOM     19  C   UNL     1       5.830   4.442  17.865  0.00  0.00    +0.000 C 
BRANCH  19  20
ATOM     20  C   UNL     1       7.116   4.771  17.092  0.00  0.00    +0.000 C 
BRANCH  20  21
ATOM     21  O   UNL     1       8.228   4.055  17.636  0.00  0.00    +0.000 OA
ATOM     22  H   UNL     1       7.906   3.653  18.462  0.00  0.00    +0.000 HD
ENDBRANCH  20  21
ENDBRANCH  19  20
ENDBRANCH  17  19
ENDBRANCH   7  17
BRANCH   1  23
ATOM     23  O   UNL     1      -1.729  10.100  19.150  0.00  0.00    +0.000 OA
BRANCH  23  24
ATOM     24  C   UNL     1      -2.365  10.285  17.950  0.00  0.00    +0.000 A 
ATOM     25  C   UNL     1      -2.088   9.647  16.738  0.00  0.00    +0.000 A 
ATOM     26  C   UNL     1      -2.805   9.960  15.571  0.00  0.00    +0.000 A 
ATOM     27  C   UNL     1      -3.818  10.905  15.614  0.00  0.00    +0.000 A 
ATOM     28  C   UNL     1      -4.115  11.521  16.823  0.00  0.00    +0.000 A 
ATOM     29  F   UNL     1      -5.105  12.424  16.872  0.00  0.00    +0.000 F 
ATOM     30  C   UNL     1      -3.404  11.220  17.982  0.00  0.00    +0.000 A 
ENDBRANCH  23  24
ENDBRANCH   1  23
TORSDOF 8
ENDMDL
MODEL 5
REMARK VINA RESULT:      -6.6      6.452      8.302
REMARK  Name = 
REMARK  8 active torsions:
REMARK  status: ('A' for Active; 'I' for Inactive)
REMARK    1  A    between atoms: C_2  and  O_3
REMARK    2  A    between atoms: C_2  and  C_4
REMARK    3  A    between atoms: C_4  and  O_5
REMARK    4  A    between atoms: O_5  and  C_6
REMARK    5  A    between atoms: C_18  and  N_19
REMARK    6  A    between atoms: N_19  and  C_20
REMARK    7  A    between atoms: C_20  and  C_21
REMARK    8  A    between atoms: C_21  and  O_22
REMARK                            x       y       z     vdW  Elec       q    Type
REMARK                         _______ _______ _______ _____ _____    ______ ____
ROOT
ATOM      1  C   UNL     1      -0.300  10.130  19.358  0.00  0.00    +0.000 C 
ATOM      2  C   UNL     1       0.009   9.542  20.756  0.00  0.00    +0.000 C 
ATOM      3  C   UNL     1       1.458   9.126  20.933  0.00  0.00    +0.000 C 
ATOM      4  N   UNL     1       1.953   8.399  19.776  0.00  0.00    +0.000 N 
ATOM      5  C   UNL     1       2.047   7.014  19.839  0.00  0.00    +0.000 A 
ATOM      6  C   UNL     1       2.999   6.363  19.069  0.00  0.00    +0.000 A 
ATOM      7  C   UNL     1       3.088   4.987  19.135  0.00  0.00    +0.000 A 
ATOM      8  N   UNL     1       2.300   4.283  19.954  0.00  0.00    +0.000 NA
ATOM      9  C   UNL     1       1.437   4.989  20.698  0.00  0.00    +0.000 A 
ATOM     10  N   UNL     1       1.261   6.322  20.674  0.00  0.00    +0.000 NA
ATOM     11  C   UNL     1       1.819   9.053  18.476  0.00  0.00    +0.000 C 
ATOM     12  C   UNL     1       0.347   9.343  18.194  0.00  0.00    +0.000 C 
ENDROOT
BRANCH   1  14
ATOM     13  O   UNL     1       0.284  12.405  20.131  0.00  0.00    +0.000 OA
ATOM     14  C   UNL     1       0.251  11.589  19.219  0.00  0.00    +0.000 C 
BRANCH  14  15
ATOM     15  O   UNL     1       0.734  11.931  17.998  0.00  0.00    +0.000 OA
ATOM     16  H   UNL     1       0.987  12.862  17.886  0.00  0.00    +0.000 HD
ENDBRANCH  14  15
ENDBRANCH   1  14
BRANCH   7  17
ATOM     17  N   UNL     1       4.084   4.350  18.384  0.00  0.00    +0.000 N 
ATOM     18  H   UNL     1       4.194   4.737  17.453  0.00  0.00    +0.000 HD
BRANCH  17  19
ATOM     19  C   UNL     1       4.061   2.883  18.365  0.00  0.00    +0.000 C 
BRANCH  19  20
ATOM     20  C   UNL     1       2.920   2.330  17.497  0.00  0.00    +0.000 C 
BRANCH  20  21
ATOM     21  O   UNL     1       1.928   1.699  18.312  0.00  0.00    +0.000 OA
ATOM     22  H   UNL     1       1.314   2.406  18.577  0.00  0.00    +0.000 HD
ENDBRANCH  20  21
ENDBRANCH  19  20
ENDBRANCH  17  19
ENDBRANCH   7  17
BRANCH   1  23
ATOM     23  O   UNL     1      -1.725  10.320  19.203  0.00  0.00    +0.000 OA
BRANCH  23  24
ATOM     24  C   UNL     1      -2.340  10.427  17.983  0.00  0.00    +0.000 A 
ATOM     25  C   UNL     1      -2.003   9.759  16.803  0.00  0.00    +0.000 A 
ATOM     26  C   UNL     1      -2.705   9.991  15.610  0.00  0.00    +0.000 A 
ATOM     27  C   UNL     1      -3.763  10.886  15.593  0.00  0.00    +0.000 A 
ATOM     28  C   UNL     1      -4.120  11.532  16.769  0.00  0.00    +0.000 A 
ATOM     29  F   UNL     1      -5.153  12.386  16.760  0.00  0.00    +0.000 F 
ATOM     30  C   UNL     1      -3.423  11.311  17.955  0.00  0.00    +0.000 A 
ENDBRANCH  23  24
ENDBRANCH   1  23
TORSDOF 8
ENDMDL
MODEL 6
REMARK VINA RESULT:      -6.4      6.278      8.425
REMARK  Name = 
REMARK  8 active torsions:
REMARK  status: ('A' for Active; 'I' for Inactive)
REMARK    1  A    between atoms: C_2  and  O_3
REMARK    2  A    between atoms: C_2  and  C_4
REMARK    3  A    between atoms: C_4  and  O_5
REMARK    4  A    between atoms: O_5  and  C_6
REMARK    5  A    between atoms: C_18  and  N_19
REMARK    6  A    between atoms: N_19  and  C_20
REMARK    7  A    between atoms: C_20  and  C_21
REMARK    8  A    between atoms: C_21  and  O_22
REMARK                            x       y       z     vdW  Elec       q    Type
REMARK                         _______ _______ _______ _____ _____    ______ ____
ROOT
ATOM      1  C   UNL     1      -0.033   9.986  19.343  0.00  0.00    +0.000 C 
ATOM      2  C   UNL     1       0.319   9.178  20.616  0.00  0.00    +0.000 C 
ATOM      3  C   UNL     1       1.767   8.724  20.665  0.00  0.00    +0.000 C 
ATOM      4  N   UNL     1       2.205   8.185  19.388  0.00  0.00    +0.000 N 
ATOM      5  C   UNL     1       2.277   6.808  19.225  0.00  0.00    +0.000 A 
ATOM      6  C   UNL     1       3.187   6.277  18.323  0.00  0.00    +0.000 A 
ATOM      7  C   UNL     1       3.255   4.909  18.165  0.00  0.00    +0.000 A 
ATOM      8  N   UNL     1       2.487   4.091  18.893  0.00  0.00    +0.000 NA
ATOM      9  C   UNL     1       1.666   4.678  19.775  0.00  0.00    +0.000 A 
ATOM     10  N   UNL     1       1.512   5.999  19.971  0.00  0.00    +0.000 NA
ATOM     11  C   UNL     1       2.032   9.041  18.215  0.00  0.00    +0.000 C 
ATOM     12  C   UNL     1       0.555   9.388  18.043  0.00  0.00    +0.000 C 
ENDROOT
BRANCH   1  14
ATOM     13  O   UNL     1       0.745  12.153  18.442  0.00  0.00    +0.000 OA
ATOM     14  C   UNL     1       0.537  11.442  19.417  0.00  0.00    +0.000 C 
BRANCH  14  15
ATOM     15  O   UNL     1       0.785  11.924  20.661  0.00  0.00    +0.000 OA
ATOM     16  H   UNL     1       0.035  12.350  21.109  0.00  0.00    +0.000 HD
ENDBRANCH  14  15
ENDBRANCH   1  14
BRANCH   7  17
ATOM     17  N   UNL     1       4.210   4.388  17.283  0.00  0.00    +0.000 N 
ATOM     18  H   UNL     1       4.492   3.440  17.510  0.00  0.00    +0.000 HD
BRANCH  17  19
ATOM     19  C   UNL     1       5.365   5.241  16.980  0.00  0.00    +0.000 C 
BRANCH  19  20
ATOM     20  C   UNL     1       5.490   5.540  15.478  0.00  0.00    +0.000 C 
BRANCH  20  21
ATOM     21  O   UNL     1       5.206   6.916  15.213  0.00  0.00    +0.000 OA
ATOM     22  H   UNL     1       4.351   7.097  15.640  0.00  0.00    +0.000 HD
ENDBRANCH  20  21
ENDBRANCH  19  20
ENDBRANCH  17  19
ENDBRANCH   7  17
BRANCH   1  23
ATOM     23  O   UNL     1      -1.460  10.213  19.279  0.00  0.00    +0.000 OA
BRANCH  23  24
ATOM     24  C   UNL     1      -2.143  10.361  18.101  0.00  0.00    +0.000 A 
ATOM     25  C   UNL     1      -1.875   9.735  16.881  0.00  0.00    +0.000 A 
ATOM     26  C   UNL     1      -2.645  10.008  15.739  0.00  0.00    +0.000 A 
ATOM     27  C   UNL     1      -3.703  10.900  15.814  0.00  0.00    +0.000 A 
ATOM     28  C   UNL     1      -3.990  11.504  17.031  0.00  0.00    +0.000 A 
ATOM     29  F   UNL     1      -5.023  12.356  17.111  0.00  0.00    +0.000 F 
ATOM     30  C   UNL     1      -3.226  11.243  18.167  0.00  0.00    +0.000 A 
ENDBRANCH  23  24
ENDBRANCH   1  23
TORSDOF 8
ENDMDL
MODEL 7
REMARK VINA RESULT:      -6.3      4.074      7.833
REMARK  Name = 
REMARK  8 active torsions:
REMARK  status: ('A' for Active; 'I' for Inactive)
REMARK    1  A    between atoms: C_2  and  O_3
REMARK    2  A    between atoms: C_2  and  C_4
REMARK    3  A    between atoms: C_4  and  O_5
REMARK    4  A    between atoms: O_5  and  C_6
REMARK    5  A    between atoms: C_18  and  N_19
REMARK    6  A    between atoms: N_19  and  C_20
REMARK    7  A    between atoms: C_20  and  C_21
REMARK    8  A    between atoms: C_21  and  O_22
REMARK                            x       y       z     vdW  Elec       q    Type
REMARK                         _______ _______ _______ _____ _____    ______ ____
ROOT
ATOM      1  C   UNL     1       4.912   5.275  17.849  0.00  0.00    +0.000 C 
ATOM      2  C   UNL     1       5.575   5.860  16.578  0.00  0.00    +0.000 C 
ATOM      3  C   UNL     1       7.082   6.008  16.693  0.00  0.00    +0.000 C 
ATOM      4  N   UNL     1       7.470   6.577  17.973  0.00  0.00    +0.000 N 
ATOM      5  C   UNL     1       7.812   7.921  18.038  0.00  0.00    +0.000 A 
ATOM      6  C   UNL     1       8.701   8.349  19.013  0.00  0.00    +0.000 A 
ATOM      7  C   UNL     1       9.038   9.686  19.073  0.00  0.00    +0.000 A 
ATOM      8  N   UNL     1       8.552  10.561  18.186  0.00  0.00    +0.000 NA
ATOM      9  C   UNL     1       7.735  10.062  17.248  0.00  0.00    +0.000 A 
ATOM     10  N   UNL     1       7.329   8.785  17.134  0.00  0.00    +0.000 NA
ATOM     11  C   UNL     1       6.983   5.899  19.173  0.00  0.00    +0.000 C 
ATOM     12  C   UNL     1       5.456   5.874  19.167  0.00  0.00    +0.000 C 
ENDROOT
BRANCH   1  14
ATOM     13  O   UNL     1       5.312   3.136  19.024  0.00  0.00    +0.000 OA
ATOM     14  C   UNL     1       5.166   3.734  17.966  0.00  0.00    +0.000 C 
BRANCH  14  15
ATOM     15  O   UNL     1       5.198   3.045  16.797  0.00  0.00    +0.000 OA
ATOM     16  H   UNL     1       4.598   2.282  16.738  0.00  0.00    +0.000 HD
ENDBRANCH  14  15
ENDBRANCH   1  14
BRANCH   7  17
ATOM     17  N   UNL     1       9.971  10.093  20.035  0.00  0.00    +0.000 N 
ATOM     18  H   UNL     1      10.136   9.396  20.754  0.00  0.00    +0.000 HD
BRANCH  17  19
ATOM     19  C   UNL     1       9.791  11.432  20.606  0.00  0.00    +0.000 C 
BRANCH  19  20
ATOM     20  C   UNL     1      10.961  12.369  20.273  0.00  0.00    +0.000 C 
BRANCH  20  21
ATOM     21  O   UNL     1      12.190  11.640  20.215  0.00  0.00    +0.000 OA
ATOM     22  H   UNL     1      12.175  11.035  20.976  0.00  0.00    +0.000 HD
ENDBRANCH  20  21
ENDBRANCH  19  20
ENDBRANCH  17  19
ENDBRANCH   7  17
BRANCH   1  23
ATOM     23  O   UNL     1       3.472   5.345  17.734  0.00  0.00    +0.000 OA
BRANCH  23  24
ATOM     24  C   UNL     1       2.619   4.772  18.641  0.00  0.00    +0.000 A 
ATOM     25  C   UNL     1       2.411   5.154  19.968  0.00  0.00    +0.000 A 
ATOM     26  C   UNL     1       1.522   4.451  20.797  0.00  0.00    +0.000 A 
ATOM     27  C   UNL     1       0.821   3.365  20.296  0.00  0.00    +0.000 A 
ATOM     28  C   UNL     1       1.004   2.998  18.969  0.00  0.00    +0.000 A 
ATOM     29  F   UNL     1       0.316   1.958  18.476  0.00  0.00    +0.000 F 
ATOM     30  C   UNL     1       1.890   3.688  18.143  0.00  0.00    +0.000 A 
ENDBRANCH  23  24
ENDBRANCH   1  23
TORSDOF 8
ENDMDL
MODEL 8
REMARK VINA RESULT:      -6.2      6.195      8.340
REMARK  Name = 
REMARK  8 active torsions:
REMARK  status: ('A' for Active; 'I' for Inactive)
REMARK    1  A    between atoms: C_2  and  O_3
REMARK    2  A    between atoms: C_2  and  C_4
REMARK    3  A    between atoms: C_4  and  O_5
REMARK    4  A    between atoms: O_5  and  C_6
REMARK    5  A    between atoms: C_18  and  N_19
REMARK    6  A    between atoms: N_19  and  C_20
REMARK    7  A    between atoms: C_20  and  C_21
REMARK    8  A    between atoms: C_21  and  O_22
REMARK                            x       y       z     vdW  Elec       q    Type
REMARK                         _______ _______ _______ _____ _____    ______ ____
ROOT
ATOM      1  C   UNL     1      -0.393  10.034  19.187  0.00  0.00    +0.000 C 
ATOM      2  C   UNL     1       0.132   9.193  20.376  0.00  0.00    +0.000 C 
ATOM      3  C   UNL     1       1.642   9.040  20.392  0.00  0.00    +0.000 C 
ATOM      4  N   UNL     1       2.165   8.732  19.072  0.00  0.00    +0.000 N 
ATOM      5  C   UNL     1       2.514   7.421  18.773  0.00  0.00    +0.000 A 
ATOM      6  C   UNL     1       3.502   7.179  17.831  0.00  0.00    +0.000 A 
ATOM      7  C   UNL     1       3.845   5.875  17.538  0.00  0.00    +0.000 A 
ATOM      8  N   UNL     1       3.268   4.850  18.174  0.00  0.00    +0.000 NA
ATOM      9  C   UNL     1       2.355   5.167  19.103  0.00  0.00    +0.000 A 
ATOM     10  N   UNL     1       1.937   6.404  19.428  0.00  0.00    +0.000 NA
ATOM     11  C   UNL     1       1.808   9.646  17.989  0.00  0.00    +0.000 C 
ATOM     12  C   UNL     1       0.289   9.701  17.839  0.00  0.00    +0.000 C 
ENDROOT
BRANCH   1  14
ATOM     13  O   UNL     1       0.097  12.362  18.512  0.00  0.00    +0.000 OA
ATOM     14  C   UNL     1      -0.130  11.562  19.410  0.00  0.00    +0.000 C 
BRANCH  14  15
ATOM     15  O   UNL     1      -0.185  11.995  20.695  0.00  0.00    +0.000 OA
ATOM     16  H   UNL     1      -0.793  12.734  20.868  0.00  0.00    +0.000 HD
ENDBRANCH  14  15
ENDBRANCH   1  14
BRANCH   7  17
ATOM     17  N   UNL     1       4.876   5.650  16.617  0.00  0.00    +0.000 N 
ATOM     18  H   UNL     1       4.574   5.728  15.651  0.00  0.00    +0.000 HD
BRANCH  17  19
ATOM     19  C   UNL     1       5.709   4.462  16.833  0.00  0.00    +0.000 C 
BRANCH  19  20
ATOM     20  C   UNL     1       6.829   4.713  17.853  0.00  0.00    +0.000 C 
BRANCH  20  21
ATOM     21  O   UNL     1       6.350   4.514  19.186  0.00  0.00    +0.000 OA
ATOM     22  H   UNL     1       7.143   4.389  19.736  0.00  0.00    +0.000 HD
ENDBRANCH  20  21
ENDBRANCH  19  20
ENDBRANCH  17  19
ENDBRANCH   7  17
BRANCH   1  23
ATOM     23  O   UNL     1      -1.836   9.972  19.133  0.00  0.00    +0.000 OA
BRANCH  23  24
ATOM     24  C   UNL     1      -2.566  10.405  18.057  0.00  0.00    +0.000 A 
ATOM     25  C   UNL     1      -3.599  11.345  18.057  0.00  0.00    +0.000 A 
ATOM     26  C   UNL     1      -4.285  11.672  16.876  0.00  0.00    +0.000 A 
ATOM     27  C   UNL     1      -3.930  11.069  15.680  0.00  0.00    +0.000 A 
ATOM     28  C   UNL     1      -2.885  10.153  15.670  0.00  0.00    +0.000 A 
ATOM     29  F   UNL     1      -2.529   9.580  14.512  0.00  0.00    +0.000 F 
ATOM     30  C   UNL     1      -2.205   9.820  16.839  0.00  0.00    +0.000 A 
ENDBRANCH  23  24
ENDBRANCH   1  23
TORSDOF 8
ENDMDL
MODEL 9
REMARK VINA RESULT:      -6.2      4.050      7.669
REMARK  Name = 
REMARK  8 active torsions:
REMARK  status: ('A' for Active; 'I' for Inactive)
REMARK    1  A    between atoms: C_2  and  O_3
REMARK    2  A    between atoms: C_2  and  C_4
REMARK    3  A    between atoms: C_4  and  O_5
REMARK    4  A    between atoms: O_5  and  C_6
REMARK    5  A    between atoms: C_18  and  N_19
REMARK    6  A    between atoms: N_19  and  C_20
REMARK    7  A    between atoms: C_20  and  C_21
REMARK    8  A    between atoms: C_21  and  O_22
REMARK                            x       y       z     vdW  Elec       q    Type
REMARK                         _______ _______ _______ _____ _____    ______ ____
ROOT
ATOM      1  C   UNL     1       4.912   5.372  17.712  0.00  0.00    +0.000 C 
ATOM      2  C   UNL     1       5.540   6.028  16.459  0.00  0.00    +0.000 C 
ATOM      3  C   UNL     1       7.048   6.185  16.547  0.00  0.00    +0.000 C 
ATOM      4  N   UNL     1       7.460   6.691  17.845  0.00  0.00    +0.000 N 
ATOM      5  C   UNL     1       7.792   8.034  17.971  0.00  0.00    +0.000 A 
ATOM      6  C   UNL     1       8.699   8.421  18.946  0.00  0.00    +0.000 A 
ATOM      7  C   UNL     1       9.026   9.756  19.066  0.00  0.00    +0.000 A 
ATOM      8  N   UNL     1       8.512  10.670  18.237  0.00  0.00    +0.000 NA
ATOM      9  C   UNL     1       7.678  10.212  17.293  0.00  0.00    +0.000 A 
ATOM     10  N   UNL     1       7.280   8.938  17.124  0.00  0.00    +0.000 NA
ATOM     11  C   UNL     1       7.006   5.949  19.020  0.00  0.00    +0.000 C 
ATOM     12  C   UNL     1       5.480   5.909  19.047  0.00  0.00    +0.000 C 
ENDROOT
BRANCH   1  14
ATOM     13  O   UNL     1       5.154   3.102  16.761  0.00  0.00    +0.000 OA
ATOM     14  C   UNL     1       5.181   3.830  17.745  0.00  0.00    +0.000 C 
BRANCH  14  15
ATOM     15  O   UNL     1       5.483   3.303  18.959  0.00  0.00    +0.000 OA
ATOM     16  H   UNL     1       5.922   3.903  19.585  0.00  0.00    +0.000 HD
ENDBRANCH  14  15
ENDBRANCH   1  14
BRANCH   7  17
ATOM     17  N   UNL     1       9.977  10.123  20.027  0.00  0.00    +0.000 N 
ATOM     18  H   UNL     1       9.798   9.722  20.942  0.00  0.00    +0.000 HD
BRANCH  17  19
ATOM     19  C   UNL     1      10.314  11.548  20.113  0.00  0.00    +0.000 C 
BRANCH  19  20
ATOM     20  C   UNL     1       9.765  12.200  21.391  0.00  0.00    +0.000 C 
BRANCH  20  21
ATOM     21  O   UNL     1       9.008  11.256  22.153  0.00  0.00    +0.000 OA
ATOM     22  H   UNL     1       8.681  10.600  21.513  0.00  0.00    +0.000 HD
ENDBRANCH  20  21
ENDBRANCH  19  20
ENDBRANCH  17  19
ENDBRANCH   7  17
BRANCH   1  23
ATOM     23  O   UNL     1       3.469   5.434  17.634  0.00  0.00    +0.000 OA
BRANCH  23  24
ATOM     24  C   UNL     1       2.643   4.897  18.586  0.00  0.00    +0.000 A 
ATOM     25  C   UNL     1       2.481   5.324  19.906  0.00  0.00    +0.000 A 
ATOM     26  C   UNL     1       1.615   4.654  20.786  0.00  0.00    +0.000 A 
ATOM     27  C   UNL     1       0.892   3.558  20.345  0.00  0.00    +0.000 A 
ATOM     28  C   UNL     1       1.029   3.146  19.026  0.00  0.00    +0.000 A 
ATOM     29  F   UNL     1       0.319   2.096  18.591  0.00  0.00    +0.000 F 
ATOM     30  C   UNL     1       1.891   3.802  18.149  0.00  0.00    +0.000 A 
ENDBRANCH  23  24
ENDBRANCH   1  23
TORSDOF 8
ENDMDL
