MODEL 1
REMARK VINA RESULT:      -7.2      0.000      0.000
REMARK  Name = 
REMARK  8 active torsions:
REMARK  status: ('A' for Active; 'I' for Inactive)
REMARK    1  A    between atoms: C_1  and  C_2
REMARK    2  A    between atoms: C_2  and  C_3
REMARK    3  A    between atoms: N_5  and  C_6
REMARK    4  A    between atoms: C_6  and  C_7
REMARK    5  A    between atoms: C_7  and  C_8
REMARK    6  A    between atoms: C_7  and  C_10
REMARK    7  A    between atoms: C_8  and  O_9
REMARK    8  A    between atoms: C_10  and  C_11
REMARK                            x       y       z     vdW  Elec       q    Type
REMARK                         _______ _______ _______ _____ _____    ______ ____
ROOT
ATOM      1  C   UNL     1       3.721   4.310  18.666  0.00  0.00    +0.000 C 
ATOM      2  O   UNL     1       3.936   3.319  17.965  0.00  0.00    +0.000 OA
ATOM      3  N   UNL     1       4.752   5.004  19.249  0.00  0.00    +0.000 N 
ATOM      4  H   UNL     1       4.558   5.693  19.964  0.00  0.00    +0.000 HD
ENDROOT
BRANCH   1   6
ATOM      5  C   UNL     1       2.210   6.201  18.160  0.00  0.00    +0.000 C 
ATOM      6  C   UNL     1       2.305   4.869  18.915  0.00  0.00    +0.000 C 
ATOM      7  C   UNL     1       1.258   3.881  18.359  0.00  0.00    +0.000 C 
ATOM      8  C   UNL     1       1.143   2.612  19.211  0.00  0.00    +0.000 C 
ATOM      9  N   UNL     1       0.849   2.935  20.607  0.00  0.00    +0.000 NA
ATOM     10  C   UNL     1       1.873   3.793  21.193  0.00  0.00    +0.000 C 
ATOM     11  C   UNL     1       2.015   5.099  20.415  0.00  0.00    +0.000 C 
ATOM     12  H   UNL     1       0.793   2.066  21.139  0.00  0.00    +0.000 HD
ENDBRANCH   1   6
BRANCH   3  13
ATOM     13  C   UNL     1       6.138   4.641  19.031  0.00  0.00    +0.000 C 
BRANCH  13  14
ATOM     14  C   UNL     1       7.059   5.870  19.100  0.00  0.00    +0.000 C 
BRANCH  14  15
ATOM     15  C   UNL     1       8.407   5.530  19.756  0.00  0.00    +0.000 C 
BRANCH  15  16
ATOM     16  O   UNL     1       8.260   5.237  21.136  0.00  0.00    +0.000 OA
ATOM     17  H   UNL     1       9.128   4.871  21.439  0.00  0.00    +0.000 HD
ENDBRANCH  15  16
ENDBRANCH  14  15
BRANCH  14  18
ATOM     18  C   UNL     1       7.285   6.455  17.693  0.00  0.00    +0.000 C 
BRANCH  18  19
ATOM     19  C   UNL     1       6.710   5.614  16.580  0.00  0.00    +0.000 A 
ATOM     20  C   UNL     1       7.201   4.422  16.081  0.00  0.00    +0.000 A 
ATOM     21  C   UNL     1       6.425   3.926  14.993  0.00  0.00    +0.000 A 
ATOM     22  C   UNL     1       5.344   4.734  14.723  0.00  0.00    +0.000 A 
ATOM     23  S   UNL     1       5.294   6.103  15.744  0.00  0.00    +0.000 S 
ENDBRANCH  18  19
ENDBRANCH  14  18
ENDBRANCH  13  14
ENDBRANCH   3  13
TORSDOF 7
ENDMDL
MODEL 2
REMARK VINA RESULT:      -6.9      2.503      5.880
REMARK  Name = 
REMARK  8 active torsions:
REMARK  status: ('A' for Active; 'I' for Inactive)
REMARK    1  A    between atoms: C_1  and  C_2
REMARK    2  A    between atoms: C_2  and  C_3
REMARK    3  A    between atoms: N_5  and  C_6
REMARK    4  A    between atoms: C_6  and  C_7
REMARK    5  A    between atoms: C_7  and  C_8
REMARK    6  A    between atoms: C_7  and  C_10
REMARK    7  A    between atoms: C_8  and  O_9
REMARK    8  A    between atoms: C_10  and  C_11
REMARK                            x       y       z     vdW  Elec       q    Type
REMARK                         _______ _______ _______ _____ _____    ______ ____
ROOT
ATOM      1  C   UNL     1       5.066   4.052  17.881  0.00  0.00    +0.000 C 
ATOM      2  O   UNL     1       5.540   3.673  18.954  0.00  0.00    +0.000 OA
ATOM      3  N   UNL     1       3.710   4.055  17.665  0.00  0.00    +0.000 N 
ATOM      4  H   UNL     1       3.347   4.189  16.730  0.00  0.00    +0.000 HD
ENDROOT
BRANCH   1   6
ATOM      5  C   UNL     1       5.799   3.579  15.566  0.00  0.00    +0.000 C 
ATOM      6  C   UNL     1       5.935   4.580  16.721  0.00  0.00    +0.000 C 
ATOM      7  C   UNL     1       5.409   5.962  16.275  0.00  0.00    +0.000 C 
ATOM      8  C   UNL     1       5.719   7.061  17.297  0.00  0.00    +0.000 C 
ATOM      9  N   UNL     1       7.151   7.129  17.586  0.00  0.00    +0.000 NA
ATOM     10  C   UNL     1       7.661   5.863  18.101  0.00  0.00    +0.000 C 
ATOM     11  C   UNL     1       7.422   4.724  17.113  0.00  0.00    +0.000 C 
ATOM     12  H   UNL     1       7.311   7.863  18.277  0.00  0.00    +0.000 HD
ENDBRANCH   1   6
BRANCH   3  13
ATOM     13  C   UNL     1       2.771   3.665  18.697  0.00  0.00    +0.000 C 
BRANCH  13  14
ATOM     14  C   UNL     1       1.969   4.870  19.213  0.00  0.00    +0.000 C 
BRANCH  14  15
ATOM     15  C   UNL     1       1.189   4.526  20.492  0.00  0.00    +0.000 C 
BRANCH  15  16
ATOM     16  O   UNL     1       0.524   3.277  20.382  0.00  0.00    +0.000 OA
ATOM     17  H   UNL     1       0.130   3.090  21.270  0.00  0.00    +0.000 HD
ENDBRANCH  15  16
ENDBRANCH  14  15
BRANCH  14  18
ATOM     18  C   UNL     1       2.901   6.071  19.465  0.00  0.00    +0.000 C 
BRANCH  18  19
ATOM     19  C   UNL     1       2.286   7.405  19.122  0.00  0.00    +0.000 A 
ATOM     20  C   UNL     1       2.294   8.051  17.900  0.00  0.00    +0.000 A 
ATOM     21  C   UNL     1       1.655   9.324  17.952  0.00  0.00    +0.000 A 
ATOM     22  C   UNL     1       1.142   9.591  19.201  0.00  0.00    +0.000 A 
ATOM     23  S   UNL     1       1.473   8.336  20.312  0.00  0.00    +0.000 S 
ENDBRANCH  18  19
ENDBRANCH  14  18
ENDBRANCH  13  14
ENDBRANCH   3  13
TORSDOF 7
ENDMDL
MODEL 3
REMARK VINA RESULT:      -6.8      2.560      5.896
REMARK  Name = 
REMARK  8 active torsions:
REMARK  status: ('A' for Active; 'I' for Inactive)
REMARK    1  A    between atoms: C_1  and  C_2
REMARK    2  A    between atoms: C_2  and  C_3
REMARK    3  A    between atoms: N_5  and  C_6
REMARK    4  A    between atoms: C_6  and  C_7
REMARK    5  A    between atoms: C_7  and  C_8
REMARK    6  A    between atoms: C_7  and  C_10
REMARK    7  A    between atoms: C_8  and  O_9
REMARK    8  A    between atoms: C_10  and  C_11
REMARK                            x       y       z     vdW  Elec       q    Type
REMARK                         _______ _______ _______ _____ _____    ______ ____
ROOT
ATOM      1  C   UNL     1       5.267   4.462  18.406  0.00  0.00    +0.000 C 
ATOM      2  O   UNL     1       5.401   3.524  19.195  0.00  0.00    +0.000 OA
ATOM      3  N   UNL     1       4.034   4.801  17.908  0.00  0.00    +0.000 N 
ATOM      4  H   UNL     1       3.961   5.444  17.130  0.00  0.00    +0.000 HD
ENDROOT
BRANCH   1   6
ATOM      5  C   UNL     1       7.262   5.692  19.200  0.00  0.00    +0.000 C 
ATOM      6  C   UNL     1       6.446   5.345  17.947  0.00  0.00    +0.000 C 
ATOM      7  C   UNL     1       7.325   4.552  16.957  0.00  0.00    +0.000 C 
ATOM      8  C   UNL     1       6.649   4.369  15.594  0.00  0.00    +0.000 C 
ATOM      9  N   UNL     1       6.262   5.654  15.016  0.00  0.00    +0.000 NA
ATOM     10  C   UNL     1       5.352   6.389  15.887  0.00  0.00    +0.000 C 
ATOM     11  C   UNL     1       5.977   6.645  17.256  0.00  0.00    +0.000 C 
ATOM     12  H   UNL     1       5.806   5.486  14.118  0.00  0.00    +0.000 HD
ENDBRANCH   1   6
BRANCH   3  13
ATOM     13  C   UNL     1       2.827   4.112  18.319  0.00  0.00    +0.000 C 
BRANCH  13  14
ATOM     14  C   UNL     1       2.021   4.942  19.331  0.00  0.00    +0.000 C 
BRANCH  14  15
ATOM     15  C   UNL     1       1.628   4.110  20.561  0.00  0.00    +0.000 C 
BRANCH  15  16
ATOM     16  O   UNL     1       0.430   3.382  20.343  0.00  0.00    +0.000 OA
ATOM     17  H   UNL     1       0.411   2.663  21.021  0.00  0.00    +0.000 HD
ENDBRANCH  15  16
ENDBRANCH  14  15
BRANCH  14  18
ATOM     18  C   UNL     1       2.818   6.188  19.763  0.00  0.00    +0.000 C 
BRANCH  18  19
ATOM     19  C   UNL     1       2.226   7.490  19.283  0.00  0.00    +0.000 A 
ATOM     20  C   UNL     1       2.301   8.037  18.015  0.00  0.00    +0.000 A 
ATOM     21  C   UNL     1       1.664   9.309  17.932  0.00  0.00    +0.000 A 
ATOM     22  C   UNL     1       1.087   9.674  19.127  0.00  0.00    +0.000 A 
ATOM     23  S   UNL     1       1.355   8.512  20.350  0.00  0.00    +0.000 S 
ENDBRANCH  18  19
ENDBRANCH  14  18
ENDBRANCH  13  14
ENDBRANCH   3  13
TORSDOF 7
ENDMDL
MODEL 4
REMARK VINA RESULT:      -6.8      2.253      5.667
REMARK  Name = 
REMARK  8 active torsions:
REMARK  status: ('A' for Active; 'I' for Inactive)
REMARK    1  A    between atoms: C_1  and  C_2
REMARK    2  A    between atoms: C_2  and  C_3
REMARK    3  A    between atoms: N_5  and  C_6
REMARK    4  A    between atoms: C_6  and  C_7
REMARK    5  A    between atoms: C_7  and  C_8
REMARK    6  A    between atoms: C_7  and  C_10
REMARK    7  A    between atoms: C_8  and  O_9
REMARK    8  A    between atoms: C_10  and  C_11
REMARK                            x       y       z     vdW  Elec       q    Type
REMARK                         _______ _______ _______ _____ _____    ______ ____
ROOT
ATOM      1  C   UNL     1       5.895   4.702  18.798  0.00  0.00    +0.000 C 
ATOM      2  O   UNL     1       5.674   5.490  19.720  0.00  0.00    +0.000 OA
ATOM      3  N   UNL     1       5.248   3.493  18.728  0.00  0.00    +0.000 N 
ATOM      4  H   UNL     1       5.568   2.785  18.080  0.00  0.00    +0.000 HD
ENDROOT
BRANCH   1   6
ATOM      5  C   UNL     1       8.215   4.369  18.008  0.00  0.00    +0.000 C 
ATOM      6  C   UNL     1       6.870   5.013  17.645  0.00  0.00    +0.000 C 
ATOM      7  C   UNL     1       6.333   4.393  16.338  0.00  0.00    +0.000 C 
ATOM      8  C   UNL     1       5.110   5.142  15.796  0.00  0.00    +0.000 C 
ATOM      9  N   UNL     1       5.399   6.562  15.605  0.00  0.00    +0.000 NA
ATOM     10  C   UNL     1       5.820   7.202  16.847  0.00  0.00    +0.000 C 
ATOM     11  C   UNL     1       7.063   6.530  17.426  0.00  0.00    +0.000 C 
ATOM     12  H   UNL     1       4.559   7.024  15.256  0.00  0.00    +0.000 HD
ENDBRANCH   1   6
BRANCH   3  13
ATOM     13  C   UNL     1       4.243   3.106  19.697  0.00  0.00    +0.000 C 
BRANCH  13  14
ATOM     14  C   UNL     1       2.845   3.592  19.284  0.00  0.00    +0.000 C 
BRANCH  14  15
ATOM     15  C   UNL     1       1.833   2.436  19.242  0.00  0.00    +0.000 C 
BRANCH  15  16
ATOM     16  O   UNL     1       2.345   1.314  18.542  0.00  0.00    +0.000 OA
ATOM     17  H   UNL     1       3.171   1.043  19.012  0.00  0.00    +0.000 HD
ENDBRANCH  15  16
ENDBRANCH  14  15
BRANCH  14  18
ATOM     18  C   UNL     1       2.353   4.697  20.239  0.00  0.00    +0.000 C 
BRANCH  18  19
ATOM     19  C   UNL     1       2.242   6.057  19.596  0.00  0.00    +0.000 A 
ATOM     20  C   UNL     1       2.533   6.401  18.289  0.00  0.00    +0.000 A 
ATOM     21  C   UNL     1       2.358   7.794  18.040  0.00  0.00    +0.000 A 
ATOM     22  C   UNL     1       1.900   8.461  19.154  0.00  0.00    +0.000 A 
ATOM     23  S   UNL     1       1.729   7.422  20.499  0.00  0.00    +0.000 S 
ENDBRANCH  18  19
ENDBRANCH  14  18
ENDBRANCH  13  14
ENDBRANCH   3  13
TORSDOF 7
ENDMDL
MODEL 5
REMARK VINA RESULT:      -6.8      1.125      1.285
REMARK  Name = 
REMARK  8 active torsions:
REMARK  status: ('A' for Active; 'I' for Inactive)
REMARK    1  A    between atoms: C_1  and  C_2
REMARK    2  A    between atoms: C_2  and  C_3
REMARK    3  A    between atoms: N_5  and  C_6
REMARK    4  A    between atoms: C_6  and  C_7
REMARK    5  A    between atoms: C_7  and  C_8
REMARK    6  A    between atoms: C_7  and  C_10
REMARK    7  A    between atoms: C_8  and  O_9
REMARK    8  A    between atoms: C_10  and  C_11
REMARK                            x       y       z     vdW  Elec       q    Type
REMARK                         _______ _______ _______ _____ _____    ______ ____
ROOT
ATOM      1  C   UNL     1       3.899   4.412  19.161  0.00  0.00    +0.000 C 
ATOM      2  O   UNL     1       4.317   3.259  19.029  0.00  0.00    +0.000 OA
ATOM      3  N   UNL     1       4.765   5.471  19.283  0.00  0.00    +0.000 N 
ATOM      4  H   UNL     1       4.419   6.376  19.573  0.00  0.00    +0.000 HD
ENDROOT
BRANCH   1   6
ATOM      5  C   UNL     1       2.238   6.050  18.339  0.00  0.00    +0.000 C 
ATOM      6  C   UNL     1       2.398   4.764  19.162  0.00  0.00    +0.000 C 
ATOM      7  C   UNL     1       1.602   3.620  18.497  0.00  0.00    +0.000 C 
ATOM      8  C   UNL     1       1.531   2.370  19.381  0.00  0.00    +0.000 C 
ATOM      9  N   UNL     1       0.976   2.680  20.697  0.00  0.00    +0.000 NA
ATOM     10  C   UNL     1       1.762   3.692  21.393  0.00  0.00    +0.000 C 
ATOM     11  C   UNL     1       1.843   4.986  20.586  0.00  0.00    +0.000 C 
ATOM     12  H   UNL     1       0.958   1.825  21.255  0.00  0.00    +0.000 HD
ENDBRANCH   1   6
BRANCH   3  13
ATOM     13  C   UNL     1       6.202   5.296  19.213  0.00  0.00    +0.000 C 
BRANCH  13  14
ATOM     14  C   UNL     1       6.773   5.852  17.899  0.00  0.00    +0.000 C 
BRANCH  14  15
ATOM     15  C   UNL     1       7.752   7.008  18.153  0.00  0.00    +0.000 C 
BRANCH  15  16
ATOM     16  O   UNL     1       8.547   6.782  19.306  0.00  0.00    +0.000 OA
ATOM     17  H   UNL     1       9.098   7.593  19.431  0.00  0.00    +0.000 HD
ENDBRANCH  15  16
ENDBRANCH  14  15
BRANCH  14  18
ATOM     18  C   UNL     1       7.466   4.734  17.096  0.00  0.00    +0.000 C 
BRANCH  18  19
ATOM     19  C   UNL     1       6.870   4.502  15.730  0.00  0.00    +0.000 A 
ATOM     20  C   UNL     1       7.436   4.787  14.501  0.00  0.00    +0.000 A 
ATOM     21  C   UNL     1       6.564   4.478  13.416  0.00  0.00    +0.000 A 
ATOM     22  C   UNL     1       5.378   3.930  13.849  0.00  0.00    +0.000 A 
ATOM     23  S   UNL     1       5.300   3.834  15.553  0.00  0.00    +0.000 S 
ENDBRANCH  18  19
ENDBRANCH  14  18
ENDBRANCH  13  14
ENDBRANCH   3  13
TORSDOF 7
ENDMDL
MODEL 6
REMARK VINA RESULT:      -6.7      2.031      2.728
REMARK  Name = 
REMARK  8 active torsions:
REMARK  status: ('A' for Active; 'I' for Inactive)
REMARK    1  A    between atoms: C_1  and  C_2
REMARK    2  A    between atoms: C_2  and  C_3
REMARK    3  A    between atoms: N_5  and  C_6
REMARK    4  A    between atoms: C_6  and  C_7
REMARK    5  A    between atoms: C_7  and  C_8
REMARK    6  A    between atoms: C_7  and  C_10
REMARK    7  A    between atoms: C_8  and  O_9
REMARK    8  A    between atoms: C_10  and  C_11
REMARK                            x       y       z     vdW  Elec       q    Type
REMARK                         _______ _______ _______ _____ _____    ______ ____
ROOT
ATOM      1  C   UNL     1       4.101   5.357  18.980  0.00  0.00    +0.000 C 
ATOM      2  O   UNL     1       5.057   5.390  19.758  0.00  0.00    +0.000 OA
ATOM      3  N   UNL     1       4.176   5.939  17.738  0.00  0.00    +0.000 N 
ATOM      4  H   UNL     1       3.337   6.067  17.188  0.00  0.00    +0.000 HD
ENDROOT
BRANCH   1   6
ATOM      5  C   UNL     1       1.931   5.622  20.135  0.00  0.00    +0.000 C 
ATOM      6  C   UNL     1       2.776   4.642  19.310  0.00  0.00    +0.000 C 
ATOM      7  C   UNL     1       2.038   4.297  17.999  0.00  0.00    +0.000 C 
ATOM      8  C   UNL     1       2.715   3.155  17.233  0.00  0.00    +0.000 C 
ATOM      9  N   UNL     1       2.854   1.964  18.068  0.00  0.00    +0.000 NA
ATOM     10  C   UNL     1       3.630   2.234  19.274  0.00  0.00    +0.000 C 
ATOM     11  C   UNL     1       2.990   3.339  20.111  0.00  0.00    +0.000 C 
ATOM     12  H   UNL     1       3.319   1.235  17.526  0.00  0.00    +0.000 HD
ENDBRANCH   1   6
BRANCH   3  13
ATOM     13  C   UNL     1       5.391   6.572  17.263  0.00  0.00    +0.000 C 
BRANCH  13  14
ATOM     14  C   UNL     1       6.229   5.609  16.406  0.00  0.00    +0.000 C 
BRANCH  14  15
ATOM     15  C   UNL     1       7.265   4.854  17.252  0.00  0.00    +0.000 C 
BRANCH  15  16
ATOM     16  O   UNL     1       6.655   3.880  18.085  0.00  0.00    +0.000 OA
ATOM     17  H   UNL     1       7.362   3.230  18.320  0.00  0.00    +0.000 HD
ENDBRANCH  15  16
ENDBRANCH  14  15
BRANCH  14  18
ATOM     18  C   UNL     1       5.316   4.611  15.666  0.00  0.00    +0.000 C 
BRANCH  18  19
ATOM     19  C   UNL     1       5.777   4.282  14.268  0.00  0.00    +0.000 A 
ATOM     20  C   UNL     1       5.106   3.547  13.308  0.00  0.00    +0.000 A 
ATOM     21  C   UNL     1       5.865   3.395  12.110  0.00  0.00    +0.000 A 
ATOM     22  C   UNL     1       7.072   4.052  12.180  0.00  0.00    +0.000 A 
ATOM     23  S   UNL     1       7.307   4.805  13.695  0.00  0.00    +0.000 S 
ENDBRANCH  18  19
ENDBRANCH  14  18
ENDBRANCH  13  14
ENDBRANCH   3  13
TORSDOF 7
ENDMDL
MODEL 7
REMARK VINA RESULT:      -6.7      1.693      3.288
REMARK  Name = 
REMARK  8 active torsions:
REMARK  status: ('A' for Active; 'I' for Inactive)
REMARK    1  A    between atoms: C_1  and  C_2
REMARK    2  A    between atoms: C_2  and  C_3
REMARK    3  A    between atoms: N_5  and  C_6
REMARK    4  A    between atoms: C_6  and  C_7
REMARK    5  A    between atoms: C_7  and  C_8
REMARK    6  A    between atoms: C_7  and  C_10
REMARK    7  A    between atoms: C_8  and  O_9
REMARK    8  A    between atoms: C_10  and  C_11
REMARK                            x       y       z     vdW  Elec       q    Type
REMARK                         _______ _______ _______ _____ _____    ______ ____
ROOT
ATOM      1  C   UNL     1       3.682   4.100  18.507  0.00  0.00    +0.000 C 
ATOM      2  O   UNL     1       4.459   3.563  19.298  0.00  0.00    +0.000 OA
ATOM      3  N   UNL     1       3.914   4.072  17.154  0.00  0.00    +0.000 N 
ATOM      4  H   UNL     1       3.378   4.666  16.536  0.00  0.00    +0.000 HD
ENDROOT
BRANCH   1   6
ATOM      5  C   UNL     1       2.428   6.228  18.381  0.00  0.00    +0.000 C 
ATOM      6  C   UNL     1       2.385   4.805  18.953  0.00  0.00    +0.000 C 
ATOM      7  C   UNL     1       1.167   4.051  18.379  0.00  0.00    +0.000 C 
ATOM      8  C   UNL     1       0.933   2.706  19.076  0.00  0.00    +0.000 C 
ATOM      9  N   UNL     1       0.794   2.873  20.521  0.00  0.00    +0.000 NA
ATOM     10  C   UNL     1       1.972   3.499  21.111  0.00  0.00    +0.000 C 
ATOM     11  C   UNL     1       2.245   4.867  20.491  0.00  0.00    +0.000 C 
ATOM     12  H   UNL     1       0.652   1.956  20.945  0.00  0.00    +0.000 HD
ENDBRANCH   1   6
BRANCH   3  13
ATOM     13  C   UNL     1       5.050   3.371  16.587  0.00  0.00    +0.000 C 
BRANCH  13  14
ATOM     14  C   UNL     1       5.896   4.296  15.698  0.00  0.00    +0.000 C 
BRANCH  14  15
ATOM     15  C   UNL     1       5.503   4.173  14.218  0.00  0.00    +0.000 C 
BRANCH  15  16
ATOM     16  O   UNL     1       6.472   3.448  13.476  0.00  0.00    +0.000 OA
ATOM     17  H   UNL     1       5.979   2.748  12.981  0.00  0.00    +0.000 HD
ENDBRANCH  15  16
ENDBRANCH  14  15
BRANCH  14  18
ATOM     18  C   UNL     1       5.766   5.759  16.164  0.00  0.00    +0.000 C 
BRANCH  18  19
ATOM     19  C   UNL     1       6.747   6.147  17.243  0.00  0.00    +0.000 A 
ATOM     20  C   UNL     1       7.209   5.366  18.286  0.00  0.00    +0.000 A 
ATOM     21  C   UNL     1       8.096   6.077  19.147  0.00  0.00    +0.000 A 
ATOM     22  C   UNL     1       8.314   7.364  18.710  0.00  0.00    +0.000 A 
ATOM     23  S   UNL     1       7.419   7.724  17.300  0.00  0.00    +0.000 S 
ENDBRANCH  18  19
ENDBRANCH  14  18
ENDBRANCH  13  14
ENDBRANCH   3  13
TORSDOF 7
ENDMDL
MODEL 8
REMARK VINA RESULT:      -6.7      1.981      2.890
REMARK  Name = 
REMARK  8 active torsions:
REMARK  status: ('A' for Active; 'I' for Inactive)
REMARK    1  A    between atoms: C_1  and  C_2
REMARK    2  A    between atoms: C_2  and  C_3
REMARK    3  A    between atoms: N_5  and  C_6
REMARK    4  A    between atoms: C_6  and  C_7
REMARK    5  A    between atoms: C_7  and  C_8
REMARK    6  A    between atoms: C_7  and  C_10
REMARK    7  A    between atoms: C_8  and  O_9
REMARK    8  A    between atoms: C_10  and  C_11
REMARK                            x       y       z     vdW  Elec       q    Type
REMARK                         _______ _______ _______ _____ _____    ______ ____
ROOT
ATOM      1  C   UNL     1       3.838   4.057  18.743  0.00  0.00    +0.000 C 
ATOM      2  O   UNL     1       4.622   4.505  19.582  0.00  0.00    +0.000 OA
ATOM      3  N   UNL     1       3.661   4.681  17.532  0.00  0.00    +0.000 N 
ATOM      4  H   UNL     1       2.890   4.415  16.934  0.00  0.00    +0.000 HD
ENDROOT
BRANCH   1   6
ATOM      5  C   UNL     1       3.659   1.686  18.063  0.00  0.00    +0.000 C 
ATOM      6  C   UNL     1       3.030   2.762  18.959  0.00  0.00    +0.000 C 
ATOM      7  C   UNL     1       3.134   2.332  20.437  0.00  0.00    +0.000 C 
ATOM      8  C   UNL     1       2.330   3.246  21.368  0.00  0.00    +0.000 C 
ATOM      9  N   UNL     1       0.929   3.323  20.957  0.00  0.00    +0.000 NA
ATOM     10  C   UNL     1       0.790   3.817  19.592  0.00  0.00    +0.000 C 
ATOM     11  C   UNL     1       1.536   2.929  18.600  0.00  0.00    +0.000 C 
ATOM     12  H   UNL     1       0.434   3.949  21.594  0.00  0.00    +0.000 HD
ENDBRANCH   1   6
BRANCH   3  13
ATOM     13  C   UNL     1       4.418   5.860  17.162  0.00  0.00    +0.000 C 
BRANCH  13  14
ATOM     14  C   UNL     1       5.679   5.490  16.363  0.00  0.00    +0.000 C 
BRANCH  14  15
ATOM     15  C   UNL     1       6.931   5.481  17.254  0.00  0.00    +0.000 C 
BRANCH  15  16
ATOM     16  O   UNL     1       7.131   4.217  17.866  0.00  0.00    +0.000 OA
ATOM     17  H   UNL     1       7.899   4.322  18.480  0.00  0.00    +0.000 HD
ENDBRANCH  15  16
ENDBRANCH  14  15
BRANCH  14  18
ATOM     18  C   UNL     1       5.502   4.121  15.679  0.00  0.00    +0.000 C 
BRANCH  18  19
ATOM     19  C   UNL     1       5.980   4.086  14.248  0.00  0.00    +0.000 A 
ATOM     20  C   UNL     1       5.418   3.404  13.185  0.00  0.00    +0.000 A 
ATOM     21  C   UNL     1       6.166   3.560  11.981  0.00  0.00    +0.000 A 
ATOM     22  C   UNL     1       7.251   4.388  12.154  0.00  0.00    +0.000 A 
ATOM     23  S   UNL     1       7.392   4.934  13.767  0.00  0.00    +0.000 S 
ENDBRANCH  18  19
ENDBRANCH  14  18
ENDBRANCH  13  14
ENDBRANCH   3  13
TORSDOF 7
ENDMDL
MODEL 9
REMARK VINA RESULT:      -6.7      2.052      2.944
REMARK  Name = 
REMARK  8 active torsions:
REMARK  status: ('A' for Active; 'I' for Inactive)
REMARK    1  A    between atoms: C_1  and  C_2
REMARK    2  A    between atoms: C_2  and  C_3
REMARK    3  A    between atoms: N_5  and  C_6
REMARK    4  A    between atoms: C_6  and  C_7
REMARK    5  A    between atoms: C_7  and  C_8
REMARK    6  A    between atoms: C_7  and  C_10
REMARK    7  A    between atoms: C_8  and  O_9
REMARK    8  A    between atoms: C_10  and  C_11
REMARK                            x       y       z     vdW  Elec       q    Type
REMARK                         _______ _______ _______ _____ _____    ______ ____
ROOT
ATOM      1  C   UNL     1       3.812   4.211  19.319  0.00  0.00    +0.000 C 
ATOM      2  O   UNL     1       3.763   5.224  20.020  0.00  0.00    +0.000 OA
ATOM      3  N   UNL     1       4.354   4.247  18.058  0.00  0.00    +0.000 N 
ATOM      4  H   UNL     1       4.222   3.466  17.428  0.00  0.00    +0.000 HD
ENDROOT
BRANCH   1   6
ATOM      5  C   UNL     1       4.554   1.970  20.055  0.00  0.00    +0.000 C 
ATOM      6  C   UNL     1       3.312   2.834  19.799  0.00  0.00    +0.000 C 
ATOM      7  C   UNL     1       2.519   3.006  21.112  0.00  0.00    +0.000 C 
ATOM      8  C   UNL     1       1.154   3.665  20.887  0.00  0.00    +0.000 C 
ATOM      9  N   UNL     1       0.362   2.925  19.906  0.00  0.00    +0.000 NA
ATOM     10  C   UNL     1       1.044   2.826  18.620  0.00  0.00    +0.000 C 
ATOM     11  C   UNL     1       2.401   2.140  18.762  0.00  0.00    +0.000 C 
ATOM     12  H   UNL     1      -0.531   3.402  19.777  0.00  0.00    +0.000 HD
ENDBRANCH   1   6
BRANCH   3  13
ATOM     13  C   UNL     1       4.939   5.455  17.511  0.00  0.00    +0.000 C 
BRANCH  13  14
ATOM     14  C   UNL     1       6.059   5.134  16.508  0.00  0.00    +0.000 C 
BRANCH  14  15
ATOM     15  C   UNL     1       7.298   4.557  17.209  0.00  0.00    +0.000 C 
BRANCH  15  16
ATOM     16  O   UNL     1       7.052   4.296  18.582  0.00  0.00    +0.000 OA
ATOM     17  H   UNL     1       7.890   3.925  18.951  0.00  0.00    +0.000 HD
ENDBRANCH  15  16
ENDBRANCH  14  15
BRANCH  14  18
ATOM     18  C   UNL     1       5.554   4.157  15.429  0.00  0.00    +0.000 C 
BRANCH  18  19
ATOM     19  C   UNL     1       6.281   4.269  14.112  0.00  0.00    +0.000 A 
ATOM     20  C   UNL     1       7.358   5.081  13.807  0.00  0.00    +0.000 A 
ATOM     21  C   UNL     1       7.760   4.963  12.445  0.00  0.00    +0.000 A 
ATOM     22  C   UNL     1       7.006   4.035  11.764  0.00  0.00    +0.000 A 
ATOM     23  S   UNL     1       5.791   3.348  12.750  0.00  0.00    +0.000 S 
ENDBRANCH  18  19
ENDBRANCH  14  18
ENDBRANCH  13  14
ENDBRANCH   3  13
TORSDOF 7
ENDMDL
