MODEL 1
REMARK VINA RESULT:      -8.8      0.000      0.000
REMARK  Name = 
REMARK  3 active torsions:
REMARK  status: ('A' for Active; 'I' for Inactive)
REMARK    1  A    between atoms: C_5  and  C_6
REMARK    2  A    between atoms: N_20  and  C_21
REMARK    3  A    between atoms: C_21  and  C_22
REMARK                            x       y       z     vdW  Elec       q    Type
REMARK                         _______ _______ _______ _____ _____    ______ ____
ROOT
ATOM      1  O   UNL     1       5.531   6.624  15.215  0.00  0.00    +0.000 OA
ATOM      2  C   UNL     1       5.540   6.083  16.317  0.00  0.00    +0.000 C 
ATOM      3  C   UNL     1       6.635   6.372  17.268  0.00  0.00    +0.000 A 
ATOM      4  C   UNL     1       7.077   7.708  17.313  0.00  0.00    +0.000 A 
ATOM      5  C   UNL     1       8.036   8.143  18.242  0.00  0.00    +0.000 A 
ATOM      6  C   UNL     1       8.594   7.164  19.084  0.00  0.00    +0.000 A 
ATOM      7  C   UNL     1       8.186   5.823  19.022  0.00  0.00    +0.000 A 
ATOM      8  C   UNL     1       7.174   5.436  18.143  0.00  0.00    +0.000 A 
ATOM      9  O   UNL     1       6.818   4.117  18.158  0.00  0.00    +0.000 OA
ATOM     10  C   UNL     1       5.447   3.943  18.545  0.00  0.00    +0.000 C 
ATOM     11  C   UNL     1       4.504   4.106  17.355  0.00  0.00    +0.000 C 
ATOM     12  N   UNL     1       4.417   5.473  16.852  0.00  0.00    +0.000 N 
ENDROOT
BRANCH   5  13
ATOM     13  C   UNL     1       8.418   9.571  18.328  0.00  0.00    +0.000 A 
ATOM     14  C   UNL     1       9.367  10.021  19.270  0.00  0.00    +0.000 A 
ATOM     15  C   UNL     1       9.720  11.372  19.373  0.00  0.00    +0.000 A 
ATOM     16  C   UNL     1       9.136  12.305  18.523  0.00  0.00    +0.000 A 
ATOM     17 CL   UNL     1       9.569  13.965  18.654  0.00  0.00    +0.000 Cl
ATOM     18  C   UNL     1       8.210  11.881  17.575  0.00  0.00    +0.000 A 
ATOM     19  F   UNL     1       7.641  12.757  16.736  0.00  0.00    +0.000 F 
ATOM     20  C   UNL     1       7.851  10.535  17.479  0.00  0.00    +0.000 A 
ENDBRANCH   5  13
BRANCH  12  21
ATOM     21  C   UNL     1       3.432   6.377  17.443  0.00  0.00    +0.000 C 
BRANCH  21  22
ATOM     22  C   UNL     1       2.515   5.745  18.466  0.00  0.00    +0.000 A 
ATOM     23  C   UNL     1       2.521   6.179  19.791  0.00  0.00    +0.000 A 
ATOM     24  C   UNL     1       1.793   5.467  20.740  0.00  0.00    +0.000 A 
ATOM     25  C   UNL     1       1.077   4.345  20.346  0.00  0.00    +0.000 A 
ATOM     26  C   UNL     1       1.104   3.991  19.008  0.00  0.00    +0.000 A 
ATOM     27  N   UNL     1       1.805   4.659  18.064  0.00  0.00    +0.000 NA
ENDBRANCH  21  22
ENDBRANCH  12  21
TORSDOF 3
ENDMDL
MODEL 2
REMARK VINA RESULT:      -8.7      0.947      1.322
REMARK  Name = 
REMARK  3 active torsions:
REMARK  status: ('A' for Active; 'I' for Inactive)
REMARK    1  A    between atoms: C_5  and  C_6
REMARK    2  A    between atoms: N_20  and  C_21
REMARK    3  A    between atoms: C_21  and  C_22
REMARK                            x       y       z     vdW  Elec       q    Type
REMARK                         _______ _______ _______ _____ _____    ______ ____
ROOT
ATOM      1  O   UNL     1       5.563   6.715  15.237  0.00  0.00    +0.000 OA
ATOM      2  C   UNL     1       5.560   6.151  16.326  0.00  0.00    +0.000 C 
ATOM      3  C   UNL     1       6.655   6.404  17.288  0.00  0.00    +0.000 A 
ATOM      4  C   UNL     1       7.115   7.732  17.364  0.00  0.00    +0.000 A 
ATOM      5  C   UNL     1       8.077   8.133  18.305  0.00  0.00    +0.000 A 
ATOM      6  C   UNL     1       8.618   7.129  19.127  0.00  0.00    +0.000 A 
ATOM      7  C   UNL     1       8.192   5.796  19.035  0.00  0.00    +0.000 A 
ATOM      8  C   UNL     1       7.178   5.441  18.144  0.00  0.00    +0.000 A 
ATOM      9  O   UNL     1       6.804   4.128  18.129  0.00  0.00    +0.000 OA
ATOM     10  C   UNL     1       5.429   3.964  18.508  0.00  0.00    +0.000 C 
ATOM     11  C   UNL     1       4.493   4.166  17.318  0.00  0.00    +0.000 C 
ATOM     12  N   UNL     1       4.426   5.544  16.844  0.00  0.00    +0.000 N 
ENDROOT
BRANCH   5  13
ATOM     13  C   UNL     1       8.478   9.553  18.423  0.00  0.00    +0.000 A 
ATOM     14  C   UNL     1       7.999  10.527  17.521  0.00  0.00    +0.000 A 
ATOM     15  C   UNL     1       8.388  11.870  17.611  0.00  0.00    +0.000 A 
ATOM     16  C   UNL     1       9.260  12.270  18.617  0.00  0.00    +0.000 A 
ATOM     17 CL   UNL     1       9.740  13.920  18.723  0.00  0.00    +0.000 Cl
ATOM     18  C   UNL     1       9.732  11.330  19.527  0.00  0.00    +0.000 A 
ATOM     19  F   UNL     1      10.565  11.691  20.513  0.00  0.00    +0.000 F 
ATOM     20  C   UNL     1       9.352   9.989  19.432  0.00  0.00    +0.000 A 
ENDBRANCH   5  13
BRANCH  12  21
ATOM     21  C   UNL     1       3.451   6.449  17.452  0.00  0.00    +0.000 C 
BRANCH  21  22
ATOM     22  C   UNL     1       2.535   5.812  18.471  0.00  0.00    +0.000 A 
ATOM     23  C   UNL     1       2.543   6.237  19.800  0.00  0.00    +0.000 A 
ATOM     24  C   UNL     1       1.816   5.519  20.745  0.00  0.00    +0.000 A 
ATOM     25  C   UNL     1       1.097   4.402  20.344  0.00  0.00    +0.000 A 
ATOM     26  C   UNL     1       1.121   4.057  19.003  0.00  0.00    +0.000 A 
ATOM     27  N   UNL     1       1.822   4.730  18.063  0.00  0.00    +0.000 NA
ENDBRANCH  21  22
ENDBRANCH  12  21
TORSDOF 3
ENDMDL
MODEL 3
REMARK VINA RESULT:      -8.3      4.762      6.710
REMARK  Name = 
REMARK  3 active torsions:
REMARK  status: ('A' for Active; 'I' for Inactive)
REMARK    1  A    between atoms: C_5  and  C_6
REMARK    2  A    between atoms: N_20  and  C_21
REMARK    3  A    between atoms: C_21  and  C_22
REMARK                            x       y       z     vdW  Elec       q    Type
REMARK                         _______ _______ _______ _____ _____    ______ ____
ROOT
ATOM      1  O   UNL     1       6.038   5.845  18.692  0.00  0.00    +0.000 OA
ATOM      2  C   UNL     1       5.145   5.045  18.430  0.00  0.00    +0.000 C 
ATOM      3  C   UNL     1       3.868   5.100  19.176  0.00  0.00    +0.000 A 
ATOM      4  C   UNL     1       3.379   6.387  19.467  0.00  0.00    +0.000 A 
ATOM      5  C   UNL     1       2.129   6.588  20.077  0.00  0.00    +0.000 A 
ATOM      6  C   UNL     1       1.415   5.436  20.452  0.00  0.00    +0.000 A 
ATOM      7  C   UNL     1       1.910   4.149  20.198  0.00  0.00    +0.000 A 
ATOM      8  C   UNL     1       3.119   3.982  19.519  0.00  0.00    +0.000 A 
ATOM      9  O   UNL     1       3.522   2.696  19.291  0.00  0.00    +0.000 OA
ATOM     10  C   UNL     1       3.617   2.413  17.888  0.00  0.00    +0.000 C 
ATOM     11  C   UNL     1       4.962   2.858  17.316  0.00  0.00    +0.000 C 
ATOM     12  N   UNL     1       5.132   4.305  17.258  0.00  0.00    +0.000 N 
ENDROOT
BRANCH   5  13
ATOM     13  C   UNL     1       1.599   7.953  20.291  0.00  0.00    +0.000 A 
ATOM     14  C   UNL     1       1.511   8.880  19.231  0.00  0.00    +0.000 A 
ATOM     15  C   UNL     1       1.030  10.181  19.427  0.00  0.00    +0.000 A 
ATOM     16  C   UNL     1       0.615  10.580  20.693  0.00  0.00    +0.000 A 
ATOM     17 CL   UNL     1       0.029  12.180  20.933  0.00  0.00    +0.000 Cl
ATOM     18  C   UNL     1       0.678   9.677  21.750  0.00  0.00    +0.000 A 
ATOM     19  F   UNL     1       0.274  10.032  22.977  0.00  0.00    +0.000 F 
ATOM     20  C   UNL     1       1.166   8.383  21.556  0.00  0.00    +0.000 A 
ENDBRANCH   5  13
BRANCH  12  21
ATOM     21  C   UNL     1       4.668   5.020  16.070  0.00  0.00    +0.000 C 
BRANCH  21  22
ATOM     22  C   UNL     1       5.508   4.812  14.830  0.00  0.00    +0.000 A 
ATOM     23  C   UNL     1       5.106   3.917  13.838  0.00  0.00    +0.000 A 
ATOM     24  C   UNL     1       5.980   3.623  12.796  0.00  0.00    +0.000 A 
ATOM     25  C   UNL     1       7.229   4.228  12.765  0.00  0.00    +0.000 A 
ATOM     26  C   UNL     1       7.546   5.122  13.774  0.00  0.00    +0.000 A 
ATOM     27  N   UNL     1       6.720   5.424  14.802  0.00  0.00    +0.000 NA
ENDBRANCH  21  22
ENDBRANCH  12  21
TORSDOF 3
ENDMDL
MODEL 4
REMARK VINA RESULT:      -8.3      4.565      6.526
REMARK  Name = 
REMARK  3 active torsions:
REMARK  status: ('A' for Active; 'I' for Inactive)
REMARK    1  A    between atoms: C_5  and  C_6
REMARK    2  A    between atoms: N_20  and  C_21
REMARK    3  A    between atoms: C_21  and  C_22
REMARK                            x       y       z     vdW  Elec       q    Type
REMARK                         _______ _______ _______ _____ _____    ______ ____
ROOT
ATOM      1  O   UNL     1       6.068   5.821  18.687  0.00  0.00    +0.000 OA
ATOM      2  C   UNL     1       5.171   5.025  18.426  0.00  0.00    +0.000 C 
ATOM      3  C   UNL     1       3.896   5.084  19.174  0.00  0.00    +0.000 A 
ATOM      4  C   UNL     1       3.413   6.372  19.468  0.00  0.00    +0.000 A 
ATOM      5  C   UNL     1       2.165   6.577  20.080  0.00  0.00    +0.000 A 
ATOM      6  C   UNL     1       1.446   5.428  20.454  0.00  0.00    +0.000 A 
ATOM      7  C   UNL     1       1.936   4.139  20.198  0.00  0.00    +0.000 A 
ATOM      8  C   UNL     1       3.143   3.968  19.517  0.00  0.00    +0.000 A 
ATOM      9  O   UNL     1       3.541   2.682  19.286  0.00  0.00    +0.000 OA
ATOM     10  C   UNL     1       3.632   2.400  17.882  0.00  0.00    +0.000 C 
ATOM     11  C   UNL     1       4.978   2.840  17.308  0.00  0.00    +0.000 C 
ATOM     12  N   UNL     1       5.153   4.287  17.253  0.00  0.00    +0.000 N 
ENDROOT
BRANCH   5  13
ATOM     13  C   UNL     1       1.641   7.944  20.298  0.00  0.00    +0.000 A 
ATOM     14  C   UNL     1       1.197   8.366  21.569  0.00  0.00    +0.000 A 
ATOM     15  C   UNL     1       0.680   9.650  21.782  0.00  0.00    +0.000 A 
ATOM     16  C   UNL     1       0.607  10.549  20.723  0.00  0.00    +0.000 A 
ATOM     17 CL   UNL     1      -0.032  12.125  20.986  0.00  0.00    +0.000 Cl
ATOM     18  C   UNL     1       1.054  10.160  19.464  0.00  0.00    +0.000 A 
ATOM     19  F   UNL     1       1.005  11.009  18.429  0.00  0.00    +0.000 F 
ATOM     20  C   UNL     1       1.561   8.876  19.250  0.00  0.00    +0.000 A 
ENDBRANCH   5  13
BRANCH  12  21
ATOM     21  C   UNL     1       4.690   5.005  16.066  0.00  0.00    +0.000 C 
BRANCH  21  22
ATOM     22  C   UNL     1       5.527   4.795  14.825  0.00  0.00    +0.000 A 
ATOM     23  C   UNL     1       5.115   3.908  13.829  0.00  0.00    +0.000 A 
ATOM     24  C   UNL     1       5.986   3.611  12.785  0.00  0.00    +0.000 A 
ATOM     25  C   UNL     1       7.240   4.205  12.755  0.00  0.00    +0.000 A 
ATOM     26  C   UNL     1       7.566   5.092  13.767  0.00  0.00    +0.000 A 
ATOM     27  N   UNL     1       6.744   5.397  14.797  0.00  0.00    +0.000 NA
ENDBRANCH  21  22
ENDBRANCH  12  21
TORSDOF 3
ENDMDL
MODEL 5
REMARK VINA RESULT:      -8.2      4.564      6.477
REMARK  Name = 
REMARK  3 active torsions:
REMARK  status: ('A' for Active; 'I' for Inactive)
REMARK    1  A    between atoms: C_5  and  C_6
REMARK    2  A    between atoms: N_20  and  C_21
REMARK    3  A    between atoms: C_21  and  C_22
REMARK                            x       y       z     vdW  Elec       q    Type
REMARK                         _______ _______ _______ _____ _____    ______ ____
ROOT
ATOM      1  O   UNL     1       5.798   5.295  19.048  0.00  0.00    +0.000 OA
ATOM      2  C   UNL     1       4.834   4.582  18.786  0.00  0.00    +0.000 C 
ATOM      3  C   UNL     1       3.545   4.805  19.478  0.00  0.00    +0.000 A 
ATOM      4  C   UNL     1       3.186   6.148  19.695  0.00  0.00    +0.000 A 
ATOM      5  C   UNL     1       1.944   6.506  20.246  0.00  0.00    +0.000 A 
ATOM      6  C   UNL     1       1.099   5.455  20.641  0.00  0.00    +0.000 A 
ATOM      7  C   UNL     1       1.462   4.112  20.462  0.00  0.00    +0.000 A 
ATOM      8  C   UNL     1       2.669   3.788  19.839  0.00  0.00    +0.000 A 
ATOM      9  O   UNL     1       2.941   2.459  19.681  0.00  0.00    +0.000 OA
ATOM     10  C   UNL     1       3.054   2.102  18.296  0.00  0.00    +0.000 C 
ATOM     11  C   UNL     1       4.458   2.376  17.759  0.00  0.00    +0.000 C 
ATOM     12  N   UNL     1       4.782   3.794  17.647  0.00  0.00    +0.000 N 
ENDROOT
BRANCH   5  13
ATOM     13  C   UNL     1       1.556   7.928  20.381  0.00  0.00    +0.000 A 
ATOM     14  C   UNL     1       1.202   8.475  21.633  0.00  0.00    +0.000 A 
ATOM     15  C   UNL     1       0.812   9.814  21.769  0.00  0.00    +0.000 A 
ATOM     16  C   UNL     1       0.781  10.641  20.651  0.00  0.00    +0.000 A 
ATOM     17 CL   UNL     1       0.298  12.284  20.821  0.00  0.00    +0.000 Cl
ATOM     18  C   UNL     1       1.141  10.127  19.410  0.00  0.00    +0.000 A 
ATOM     19  F   UNL     1       1.130  10.904  18.319  0.00  0.00    +0.000 F 
ATOM     20  C   UNL     1       1.520   8.789  19.272  0.00  0.00    +0.000 A 
ENDBRANCH   5  13
BRANCH  12  21
ATOM     21  C   UNL     1       4.439   4.497  16.412  0.00  0.00    +0.000 C 
BRANCH  21  22
ATOM     22  C   UNL     1       5.475   4.407  15.315  0.00  0.00    +0.000 A 
ATOM     23  C   UNL     1       6.667   5.127  15.400  0.00  0.00    +0.000 A 
ATOM     24  C   UNL     1       7.520   5.156  14.301  0.00  0.00    +0.000 A 
ATOM     25  C   UNL     1       7.169   4.466  13.148  0.00  0.00    +0.000 A 
ATOM     26  C   UNL     1       5.980   3.757  13.150  0.00  0.00    +0.000 A 
ATOM     27  N   UNL     1       5.128   3.714  14.199  0.00  0.00    +0.000 NA
ENDBRANCH  21  22
ENDBRANCH  12  21
TORSDOF 3
ENDMDL
MODEL 6
REMARK VINA RESULT:      -8.1      4.770      6.684
REMARK  Name = 
REMARK  3 active torsions:
REMARK  status: ('A' for Active; 'I' for Inactive)
REMARK    1  A    between atoms: C_5  and  C_6
REMARK    2  A    between atoms: N_20  and  C_21
REMARK    3  A    between atoms: C_21  and  C_22
REMARK                            x       y       z     vdW  Elec       q    Type
REMARK                         _______ _______ _______ _____ _____    ______ ____
ROOT
ATOM      1  O   UNL     1       5.813   5.407  19.073  0.00  0.00    +0.000 OA
ATOM      2  C   UNL     1       4.870   4.673  18.795  0.00  0.00    +0.000 C 
ATOM      3  C   UNL     1       3.570   4.857  19.476  0.00  0.00    +0.000 A 
ATOM      4  C   UNL     1       3.175   6.188  19.703  0.00  0.00    +0.000 A 
ATOM      5  C   UNL     1       1.920   6.510  20.246  0.00  0.00    +0.000 A 
ATOM      6  C   UNL     1       1.097   5.433  20.623  0.00  0.00    +0.000 A 
ATOM      7  C   UNL     1       1.497   4.102  20.434  0.00  0.00    +0.000 A 
ATOM      8  C   UNL     1       2.717   3.815  19.819  0.00  0.00    +0.000 A 
ATOM      9  O   UNL     1       3.024   2.494  19.651  0.00  0.00    +0.000 OA
ATOM     10  C   UNL     1       3.159   2.155  18.264  0.00  0.00    +0.000 C 
ATOM     11  C   UNL     1       4.559   2.469  17.743  0.00  0.00    +0.000 C 
ATOM     12  N   UNL     1       4.849   3.896  17.648  0.00  0.00    +0.000 N 
ENDROOT
BRANCH   5  13
ATOM     13  C   UNL     1       1.494   7.920  20.392  0.00  0.00    +0.000 A 
ATOM     14  C   UNL     1       1.525   8.812  19.299  0.00  0.00    +0.000 A 
ATOM     15  C   UNL     1       1.144  10.154  19.430  0.00  0.00    +0.000 A 
ATOM     16  C   UNL     1       0.711  10.630  20.662  0.00  0.00    +0.000 A 
ATOM     17 CL   UNL     1       0.247  12.280  20.822  0.00  0.00    +0.000 Cl
ATOM     18  C   UNL     1       0.657   9.765  21.750  0.00  0.00    +0.000 A 
ATOM     19  F   UNL     1       0.232  10.195  22.946  0.00  0.00    +0.000 F 
ATOM     20  C   UNL     1       1.046   8.429  21.621  0.00  0.00    +0.000 A 
ENDBRANCH   5  13
BRANCH  12  21
ATOM     21  C   UNL     1       4.499   4.602  16.416  0.00  0.00    +0.000 C 
BRANCH  21  22
ATOM     22  C   UNL     1       5.500   4.462  15.292  0.00  0.00    +0.000 A 
ATOM     23  C   UNL     1       6.712   5.152  15.327  0.00  0.00    +0.000 A 
ATOM     24  C   UNL     1       7.533   5.135  14.203  0.00  0.00    +0.000 A 
ATOM     25  C   UNL     1       7.130   4.432  13.076  0.00  0.00    +0.000 A 
ATOM     26  C   UNL     1       5.924   3.755  13.128  0.00  0.00    +0.000 A 
ATOM     27  N   UNL     1       5.102   3.755  14.202  0.00  0.00    +0.000 NA
ENDBRANCH  21  22
ENDBRANCH  12  21
TORSDOF 3
ENDMDL
MODEL 7
REMARK VINA RESULT:      -8.0      4.481      6.223
REMARK  Name = 
REMARK  3 active torsions:
REMARK  status: ('A' for Active; 'I' for Inactive)
REMARK    1  A    between atoms: C_5  and  C_6
REMARK    2  A    between atoms: N_20  and  C_21
REMARK    3  A    between atoms: C_21  and  C_22
REMARK                            x       y       z     vdW  Elec       q    Type
REMARK                         _______ _______ _______ _____ _____    ______ ____
ROOT
ATOM      1  O   UNL     1       5.641   4.569  19.204  0.00  0.00    +0.000 OA
ATOM      2  C   UNL     1       4.591   3.934  19.192  0.00  0.00    +0.000 C 
ATOM      3  C   UNL     1       3.366   4.528  19.770  0.00  0.00    +0.000 A 
ATOM      4  C   UNL     1       3.173   5.901  19.529  0.00  0.00    +0.000 A 
ATOM      5  C   UNL     1       2.004   6.570  19.928  0.00  0.00    +0.000 A 
ATOM      6  C   UNL     1       1.059   5.819  20.649  0.00  0.00    +0.000 A 
ATOM      7  C   UNL     1       1.258   4.458  20.926  0.00  0.00    +0.000 A 
ATOM      8  C   UNL     1       2.393   3.802  20.447  0.00  0.00    +0.000 A 
ATOM      9  O   UNL     1       2.503   2.472  20.739  0.00  0.00    +0.000 OA
ATOM     10  C   UNL     1       2.519   1.668  19.551  0.00  0.00    +0.000 C 
ATOM     11  C   UNL     1       3.922   1.576  18.955  0.00  0.00    +0.000 C 
ATOM     12  N   UNL     1       4.404   2.827  18.379  0.00  0.00    +0.000 N 
ENDROOT
BRANCH   5  13
ATOM     13  C   UNL     1       1.788   7.993  19.584  0.00  0.00    +0.000 A 
ATOM     14  C   UNL     1       2.169   8.509  18.327  0.00  0.00    +0.000 A 
ATOM     15  C   UNL     1       1.988   9.859  17.998  0.00  0.00    +0.000 A 
ATOM     16  C   UNL     1       1.409  10.722  18.922  0.00  0.00    +0.000 A 
ATOM     17 CL   UNL     1       1.191  12.381  18.518  0.00  0.00    +0.000 Cl
ATOM     18  C   UNL     1       1.011  10.232  20.161  0.00  0.00    +0.000 A 
ATOM     19  F   UNL     1       0.440  11.040  21.065  0.00  0.00    +0.000 F 
ATOM     20  C   UNL     1       1.200   8.888  20.493  0.00  0.00    +0.000 A 
ENDBRANCH   5  13
BRANCH  12  21
ATOM     21  C   UNL     1       4.095   3.120  16.980  0.00  0.00    +0.000 C 
BRANCH  21  22
ATOM     22  C   UNL     1       5.046   4.081  16.303  0.00  0.00    +0.000 A 
ATOM     23  C   UNL     1       4.721   5.432  16.173  0.00  0.00    +0.000 A 
ATOM     24  C   UNL     1       5.535   6.252  15.398  0.00  0.00    +0.000 A 
ATOM     25  C   UNL     1       6.652   5.711  14.777  0.00  0.00    +0.000 A 
ATOM     26  C   UNL     1       6.920   4.367  14.973  0.00  0.00    +0.000 A 
ATOM     27  N   UNL     1       6.146   3.543  15.715  0.00  0.00    +0.000 NA
ENDBRANCH  21  22
ENDBRANCH  12  21
TORSDOF 3
ENDMDL
MODEL 8
REMARK VINA RESULT:      -7.9      6.778      9.606
REMARK  Name = 
REMARK  3 active torsions:
REMARK  status: ('A' for Active; 'I' for Inactive)
REMARK    1  A    between atoms: C_5  and  C_6
REMARK    2  A    between atoms: N_20  and  C_21
REMARK    3  A    between atoms: C_21  and  C_22
REMARK                            x       y       z     vdW  Elec       q    Type
REMARK                         _______ _______ _______ _____ _____    ______ ____
ROOT
ATOM      1  O   UNL     1      -0.348  12.438  18.312  0.00  0.00    +0.000 OA
ATOM      2  C   UNL     1      -0.201  12.432  19.530  0.00  0.00    +0.000 C 
ATOM      3  C   UNL     1      -0.057  11.146  20.246  0.00  0.00    +0.000 A 
ATOM      4  C   UNL     1       0.714  10.162  19.600  0.00  0.00    +0.000 A 
ATOM      5  C   UNL     1       1.018   8.934  20.211  0.00  0.00    +0.000 A 
ATOM      6  C   UNL     1       0.454   8.699  21.477  0.00  0.00    +0.000 A 
ATOM      7  C   UNL     1      -0.346   9.659  22.115  0.00  0.00    +0.000 A 
ATOM      8  C   UNL     1      -0.565  10.901  21.517  0.00  0.00    +0.000 A 
ATOM      9  O   UNL     1      -1.336  11.790  22.211  0.00  0.00    +0.000 OA
ATOM     10  C   UNL     1      -0.604  12.978  22.545  0.00  0.00    +0.000 C 
ATOM     11  C   UNL     1      -0.612  13.984  21.396  0.00  0.00    +0.000 C 
ATOM     12  N   UNL     1       0.169  13.565  20.238  0.00  0.00    +0.000 N 
ENDROOT
BRANCH   5  13
ATOM     13  C   UNL     1       1.905   7.954  19.545  0.00  0.00    +0.000 A 
ATOM     14  C   UNL     1       2.473   8.219  18.281  0.00  0.00    +0.000 A 
ATOM     15  C   UNL     1       3.297   7.290  17.633  0.00  0.00    +0.000 A 
ATOM     16  C   UNL     1       3.580   6.074  18.245  0.00  0.00    +0.000 A 
ATOM     17 CL   UNL     1       4.589   4.932  17.445  0.00  0.00    +0.000 Cl
ATOM     18  C   UNL     1       3.043   5.797  19.498  0.00  0.00    +0.000 A 
ATOM     19  F   UNL     1       3.310   4.638  20.116  0.00  0.00    +0.000 F 
ATOM     20  C   UNL     1       2.214   6.720  20.141  0.00  0.00    +0.000 A 
ENDBRANCH   5  13
BRANCH  12  21
ATOM     21  C   UNL     1       1.592  13.897  20.193  0.00  0.00    +0.000 C 
BRANCH  21  22
ATOM     22  C   UNL     1       1.988  14.870  19.106  0.00  0.00    +0.000 A 
ATOM     23  C   UNL     1       3.095  14.618  18.295  0.00  0.00    +0.000 A 
ATOM     24  C   UNL     1       3.533  15.609  17.421  0.00  0.00    +0.000 A 
ATOM     25  C   UNL     1       2.859  16.821  17.374  0.00  0.00    +0.000 A 
ATOM     26  C   UNL     1       1.756  16.986  18.194  0.00  0.00    +0.000 A 
ATOM     27  N   UNL     1       1.309  16.045  19.057  0.00  0.00    +0.000 NA
ENDBRANCH  21  22
ENDBRANCH  12  21
TORSDOF 3
ENDMDL
MODEL 9
REMARK VINA RESULT:      -7.9      7.453     10.004
REMARK  Name = 
REMARK  3 active torsions:
REMARK  status: ('A' for Active; 'I' for Inactive)
REMARK    1  A    between atoms: C_5  and  C_6
REMARK    2  A    between atoms: N_20  and  C_21
REMARK    3  A    between atoms: C_21  and  C_22
REMARK                            x       y       z     vdW  Elec       q    Type
REMARK                         _______ _______ _______ _____ _____    ______ ____
ROOT
ATOM      1  O   UNL     1      -1.382  12.277  18.626  0.00  0.00    +0.000 OA
ATOM      2  C   UNL     1      -0.992  12.420  19.780  0.00  0.00    +0.000 C 
ATOM      3  C   UNL     1      -0.530  11.244  20.550  0.00  0.00    +0.000 A 
ATOM      4  C   UNL     1       0.223  10.295  19.835  0.00  0.00    +0.000 A 
ATOM      5  C   UNL     1       0.811   9.185  20.463  0.00  0.00    +0.000 A 
ATOM      6  C   UNL     1       0.553   9.023  21.836  0.00  0.00    +0.000 A 
ATOM      7  C   UNL     1      -0.226   9.944  22.551  0.00  0.00    +0.000 A 
ATOM      8  C   UNL     1      -0.732  11.080  21.916  0.00  0.00    +0.000 A 
ATOM      9  O   UNL     1      -1.462  11.941  22.686  0.00  0.00    +0.000 OA
ATOM     10  C   UNL     1      -0.849  13.236  22.758  0.00  0.00    +0.000 C 
ATOM     11  C   UNL     1      -1.228  14.104  21.560  0.00  0.00    +0.000 C 
ATOM     12  N   UNL     1      -0.647  13.658  20.299  0.00  0.00    +0.000 N 
ENDROOT
BRANCH   5  13
ATOM     13  C   UNL     1       1.671   8.250  19.704  0.00  0.00    +0.000 A 
ATOM     14  C   UNL     1       2.151   8.575  18.417  0.00  0.00    +0.000 A 
ATOM     15  C   UNL     1       2.949   7.690  17.681  0.00  0.00    +0.000 A 
ATOM     16  C   UNL     1       3.295   6.458  18.226  0.00  0.00    +0.000 A 
ATOM     17 CL   UNL     1       4.272   5.370  17.319  0.00  0.00    +0.000 Cl
ATOM     18  C   UNL     1       2.847   6.123  19.499  0.00  0.00    +0.000 A 
ATOM     19  F   UNL     1       3.175   4.947  20.052  0.00  0.00    +0.000 F 
ATOM     20  C   UNL     1       2.043   7.002  20.230  0.00  0.00    +0.000 A 
ENDBRANCH   5  13
BRANCH  12  21
ATOM     21  C   UNL     1       0.678  14.150  19.923  0.00  0.00    +0.000 C 
BRANCH  21  22
ATOM     22  C   UNL     1       0.692  15.506  19.256  0.00  0.00    +0.000 A 
ATOM     23  C   UNL     1      -0.455  16.009  18.641  0.00  0.00    +0.000 A 
ATOM     24  C   UNL     1      -0.364  17.178  17.891  0.00  0.00    +0.000 A 
ATOM     25  C   UNL     1       0.862  17.819  17.776  0.00  0.00    +0.000 A 
ATOM     26  C   UNL     1       1.949  17.269  18.435  0.00  0.00    +0.000 A 
ATOM     27  N   UNL     1       1.894  16.132  19.166  0.00  0.00    +0.000 NA
ENDBRANCH  21  22
ENDBRANCH  12  21
TORSDOF 3
ENDMDL
