MODEL 1
REMARK VINA RESULT:      -7.4      0.000      0.000
REMARK  Name = 
REMARK  12 active torsions:
REMARK  status: ('A' for Active; 'I' for Inactive)
REMARK    1  A    between atoms: C_1  and  C_2
REMARK    2  A    between atoms: C_2  and  C_3
REMARK    3  A    between atoms: C_3  and  O_4
REMARK    4  A    between atoms: O_4  and  C_5
REMARK    5  A    between atoms: C_8  and  C_9
REMARK    6  A    between atoms: C_10  and  C_11
REMARK    7  A    between atoms: C_14  and  C_15
REMARK    8  A    between atoms: C_15  and  C_16
REMARK    9  A    between atoms: C_16  and  C_17
REMARK   10  A    between atoms: C_16  and  N_18
REMARK   11  A    between atoms: C_19  and  C_20
REMARK   12  A    between atoms: C_24  and  C_25
REMARK                            x       y       z     vdW  Elec       q    Type
REMARK                         _______ _______ _______ _____ _____    ______ ____
ROOT
ATOM      1  C   UNL     1       7.738   7.941  17.811  0.00  0.00    +0.000 C 
ATOM      2  C   UNL     1       8.354   8.902  18.180  0.00  0.00    +0.000 C 
ENDROOT
BRANCH   1   6
ATOM      3  C   UNL     1       5.236   4.654  16.835  0.00  0.00    +0.000 A 
ATOM      4  C   UNL     1       5.281   5.780  16.011  0.00  0.00    +0.000 A 
ATOM      5  C   UNL     1       6.113   6.862  16.325  0.00  0.00    +0.000 A 
ATOM      6  C   UNL     1       6.911   6.822  17.473  0.00  0.00    +0.000 A 
ATOM      7  C   UNL     1       6.879   5.690  18.296  0.00  0.00    +0.000 A 
ATOM      8  C   UNL     1       6.045   4.613  17.973  0.00  0.00    +0.000 A 
BRANCH   7   9
ATOM      9  C   UNL     1       7.678   5.598  19.484  0.00  0.00    +0.000 C 
ATOM     10  N   UNL     1       8.312   5.493  20.450  0.00  0.00    +0.000 NA
ENDBRANCH   7   9
BRANCH   3  11
ATOM     11  O   UNL     1       4.376   3.659  16.445  0.00  0.00    +0.000 OA
BRANCH  11  12
ATOM     12  C   UNL     1       3.457   3.220  17.449  0.00  0.00    +0.000 C 
BRANCH  12  14
ATOM     13  C   UNL     1       1.325   3.773  18.624  0.00  0.00    +0.000 C 
ATOM     14  C   UNL     1       2.441   4.315  17.745  0.00  0.00    +0.000 C 
ENDBRANCH  12  14
ENDBRANCH  11  12
ENDBRANCH   3  11
ENDBRANCH   1   6
BRANCH   2  15
ATOM     15  C   UNL     1       9.040  10.070  18.643  0.00  0.00    +0.000 A 
ATOM     16  C   UNL     1       9.557  10.998  17.735  0.00  0.00    +0.000 A 
ATOM     17  C   UNL     1      10.282  12.103  18.197  0.00  0.00    +0.000 A 
ATOM     18  C   UNL     1      10.485  12.302  19.570  0.00  0.00    +0.000 A 
ATOM     19  C   UNL     1       9.937  11.377  20.471  0.00  0.00    +0.000 A 
ATOM     20  C   UNL     1       9.220  10.269  20.010  0.00  0.00    +0.000 A 
BRANCH  18  21
ATOM     21  C   UNL     1      11.318  13.463  20.076  0.00  0.00    +0.000 C 
BRANCH  21  22
ATOM     22  C   UNL     1      10.519  14.592  20.763  0.00  0.00    +0.000 C 
ATOM     23  C   UNL     1      11.352  15.864  20.920  0.00  0.00    +0.000 C 
BRANCH  22  24
ATOM     24  N   UNL     1       9.301  14.915  20.013  0.00  0.00    +0.000 N 
ATOM     25  C   UNL     1       8.043  14.636  20.496  0.00  0.00    +0.000 C 
ATOM     26  C   UNL     1       6.918  15.038  19.576  0.00  0.00    +0.000 C 
ATOM     27  O   UNL     1       7.833  14.106  21.582  0.00  0.00    +0.000 OA
ATOM     28  H   UNL     1       9.396  15.269  19.070  0.00  0.00    +0.000 HD
ENDBRANCH  22  24
ENDBRANCH  21  22
ENDBRANCH  18  21
ENDBRANCH   2  15
TORSDOF 9
ENDMDL
MODEL 2
REMARK VINA RESULT:      -7.2      7.702      9.632
REMARK  Name = 
REMARK  12 active torsions:
REMARK  status: ('A' for Active; 'I' for Inactive)
REMARK    1  A    between atoms: C_1  and  C_2
REMARK    2  A    between atoms: C_2  and  C_3
REMARK    3  A    between atoms: C_3  and  O_4
REMARK    4  A    between atoms: O_4  and  C_5
REMARK    5  A    between atoms: C_8  and  C_9
REMARK    6  A    between atoms: C_10  and  C_11
REMARK    7  A    between atoms: C_14  and  C_15
REMARK    8  A    between atoms: C_15  and  C_16
REMARK    9  A    between atoms: C_16  and  C_17
REMARK   10  A    between atoms: C_16  and  N_18
REMARK   11  A    between atoms: C_19  and  C_20
REMARK   12  A    between atoms: C_24  and  C_25
REMARK                            x       y       z     vdW  Elec       q    Type
REMARK                         _______ _______ _______ _____ _____    ______ ____
ROOT
ATOM      1  C   UNL     1       1.592   7.557  20.439  0.00  0.00    +0.000 C 
ATOM      2  C   UNL     1       0.957   8.442  20.944  0.00  0.00    +0.000 C 
ENDROOT
BRANCH   1   6
ATOM      3  C   UNL     1       3.989   4.718  18.388  0.00  0.00    +0.000 A 
ATOM      4  C   UNL     1       3.494   4.438  19.663  0.00  0.00    +0.000 A 
ATOM      5  C   UNL     1       2.695   5.370  20.338  0.00  0.00    +0.000 A 
ATOM      6  C   UNL     1       2.383   6.593  19.736  0.00  0.00    +0.000 A 
ATOM      7  C   UNL     1       2.867   6.873  18.453  0.00  0.00    +0.000 A 
ATOM      8  C   UNL     1       3.665   5.935  17.786  0.00  0.00    +0.000 A 
BRANCH   7   9
ATOM      9  C   UNL     1       2.576   8.112  17.790  0.00  0.00    +0.000 C 
ATOM     10  N   UNL     1       2.346   9.098  17.224  0.00  0.00    +0.000 NA
ENDBRANCH   7   9
BRANCH   3  11
ATOM     11  O   UNL     1       4.775   3.746  17.823  0.00  0.00    +0.000 OA
BRANCH  11  12
ATOM     12  C   UNL     1       5.047   3.917  16.430  0.00  0.00    +0.000 C 
BRANCH  12  14
ATOM     13  C   UNL     1       6.775   4.571  14.749  0.00  0.00    +0.000 C 
ATOM     14  C   UNL     1       6.500   4.322  16.224  0.00  0.00    +0.000 C 
ENDBRANCH  12  14
ENDBRANCH  11  12
ENDBRANCH   3  11
ENDBRANCH   1   6
BRANCH   2  15
ATOM     15  C   UNL     1       0.234   9.535  21.517  0.00  0.00    +0.000 A 
ATOM     16  C   UNL     1      -0.290   9.442  22.810  0.00  0.00    +0.000 A 
ATOM     17  C   UNL     1      -1.051  10.491  23.338  0.00  0.00    +0.000 A 
ATOM     18  C   UNL     1      -1.285  11.652  22.587  0.00  0.00    +0.000 A 
ATOM     19  C   UNL     1      -0.730  11.743  21.301  0.00  0.00    +0.000 A 
ATOM     20  C   UNL     1       0.023  10.692  20.771  0.00  0.00    +0.000 A 
BRANCH  18  21
ATOM     21  C   UNL     1      -2.156  12.768  23.127  0.00  0.00    +0.000 C 
BRANCH  21  22
ATOM     22  C   UNL     1      -3.671  12.470  23.142  0.00  0.00    +0.000 C 
ATOM     23  C   UNL     1      -4.237  12.474  24.562  0.00  0.00    +0.000 C 
BRANCH  22  24
ATOM     24  N   UNL     1      -4.413  13.443  22.334  0.00  0.00    +0.000 N 
ATOM     25  C   UNL     1      -5.437  13.073  21.492  0.00  0.00    +0.000 C 
ATOM     26  C   UNL     1      -6.072  14.218  20.744  0.00  0.00    +0.000 C 
ATOM     27  O   UNL     1      -5.817  11.916  21.350  0.00  0.00    +0.000 OA
ATOM     28  H   UNL     1      -4.097  14.404  22.328  0.00  0.00    +0.000 HD
ENDBRANCH  22  24
ENDBRANCH  21  22
ENDBRANCH  18  21
ENDBRANCH   2  15
TORSDOF 9
ENDMDL
MODEL 3
REMARK VINA RESULT:      -7.2      6.014      7.864
REMARK  Name = 
REMARK  12 active torsions:
REMARK  status: ('A' for Active; 'I' for Inactive)
REMARK    1  A    between atoms: C_1  and  C_2
REMARK    2  A    between atoms: C_2  and  C_3
REMARK    3  A    between atoms: C_3  and  O_4
REMARK    4  A    between atoms: O_4  and  C_5
REMARK    5  A    between atoms: C_8  and  C_9
REMARK    6  A    between atoms: C_10  and  C_11
REMARK    7  A    between atoms: C_14  and  C_15
REMARK    8  A    between atoms: C_15  and  C_16
REMARK    9  A    between atoms: C_16  and  C_17
REMARK   10  A    between atoms: C_16  and  N_18
REMARK   11  A    between atoms: C_19  and  C_20
REMARK   12  A    between atoms: C_24  and  C_25
REMARK                            x       y       z     vdW  Elec       q    Type
REMARK                         _______ _______ _______ _____ _____    ______ ____
ROOT
ATOM      1  C   UNL     1       2.668   7.191  18.531  0.00  0.00    +0.000 C 
ATOM      2  C   UNL     1       2.001   7.900  19.233  0.00  0.00    +0.000 C 
ENDROOT
BRANCH   1   6
ATOM      3  C   UNL     1       5.080   4.477  16.333  0.00  0.00    +0.000 A 
ATOM      4  C   UNL     1       5.352   5.846  16.309  0.00  0.00    +0.000 A 
ATOM      5  C   UNL     1       4.563   6.743  17.041  0.00  0.00    +0.000 A 
ATOM      6  C   UNL     1       3.493   6.271  17.808  0.00  0.00    +0.000 A 
ATOM      7  C   UNL     1       3.224   4.898  17.845  0.00  0.00    +0.000 A 
ATOM      8  C   UNL     1       4.018   4.009  17.111  0.00  0.00    +0.000 A 
BRANCH   7   9
ATOM      9  C   UNL     1       2.139   4.363  18.616  0.00  0.00    +0.000 C 
ATOM     10  N   UNL     1       1.256   3.961  19.254  0.00  0.00    +0.000 NA
ENDBRANCH   7   9
BRANCH   3  11
ATOM     11  O   UNL     1       5.901   3.688  15.568  0.00  0.00    +0.000 OA
BRANCH  11  12
ATOM     12  C   UNL     1       6.454   4.325  14.414  0.00  0.00    +0.000 C 
BRANCH  12  14
ATOM     13  C   UNL     1       6.924   3.844  12.009  0.00  0.00    +0.000 C 
ATOM     14  C   UNL     1       5.933   3.660  13.147  0.00  0.00    +0.000 C 
ENDBRANCH  12  14
ENDBRANCH  11  12
ENDBRANCH   3  11
ENDBRANCH   1   6
BRANCH   2  15
ATOM     15  C   UNL     1       1.201   8.701  20.108  0.00  0.00    +0.000 A 
ATOM     16  C   UNL     1       0.507   9.812  19.620  0.00  0.00    +0.000 A 
ATOM     17  C   UNL     1      -0.221  10.627  20.495  0.00  0.00    +0.000 A 
ATOM     18  C   UNL     1      -0.278  10.332  21.865  0.00  0.00    +0.000 A 
ATOM     19  C   UNL     1       0.400   9.197  22.336  0.00  0.00    +0.000 A 
ATOM     20  C   UNL     1       1.134   8.388  21.464  0.00  0.00    +0.000 A 
BRANCH  18  21
ATOM     21  C   UNL     1      -1.016  11.239  22.828  0.00  0.00    +0.000 C 
BRANCH  21  22
ATOM     22  C   UNL     1      -1.379  12.632  22.270  0.00  0.00    +0.000 C 
ATOM     23  C   UNL     1      -2.687  13.159  22.861  0.00  0.00    +0.000 C 
BRANCH  22  24
ATOM     24  N   UNL     1      -0.315  13.606  22.534  0.00  0.00    +0.000 N 
ATOM     25  C   UNL     1       0.286  14.331  21.530  0.00  0.00    +0.000 C 
ATOM     26  C   UNL     1       1.362  15.276  22.003  0.00  0.00    +0.000 C 
ATOM     27  O   UNL     1      -0.016  14.232  20.346  0.00  0.00    +0.000 OA
ATOM     28  H   UNL     1       0.051  13.675  23.475  0.00  0.00    +0.000 HD
ENDBRANCH  22  24
ENDBRANCH  21  22
ENDBRANCH  18  21
ENDBRANCH   2  15
TORSDOF 9
ENDMDL
MODEL 4
REMARK VINA RESULT:      -7.2      6.486     10.463
REMARK  Name = 
REMARK  12 active torsions:
REMARK  status: ('A' for Active; 'I' for Inactive)
REMARK    1  A    between atoms: C_1  and  C_2
REMARK    2  A    between atoms: C_2  and  C_3
REMARK    3  A    between atoms: C_3  and  O_4
REMARK    4  A    between atoms: O_4  and  C_5
REMARK    5  A    between atoms: C_8  and  C_9
REMARK    6  A    between atoms: C_10  and  C_11
REMARK    7  A    between atoms: C_14  and  C_15
REMARK    8  A    between atoms: C_15  and  C_16
REMARK    9  A    between atoms: C_16  and  C_17
REMARK   10  A    between atoms: C_16  and  N_18
REMARK   11  A    between atoms: C_19  and  C_20
REMARK   12  A    between atoms: C_24  and  C_25
REMARK                            x       y       z     vdW  Elec       q    Type
REMARK                         _______ _______ _______ _____ _____    ______ ____
ROOT
ATOM      1  C   UNL     1       1.067   8.883  20.482  0.00  0.00    +0.000 C 
ATOM      2  C   UNL     1       1.729   8.055  19.919  0.00  0.00    +0.000 C 
ENDROOT
BRANCH   1   6
ATOM      3  C   UNL     1      -1.031  11.808  22.732  0.00  0.00    +0.000 A 
ATOM      4  C   UNL     1      -1.009  10.475  23.147  0.00  0.00    +0.000 A 
ATOM      5  C   UNL     1      -0.311   9.509  22.412  0.00  0.00    +0.000 A 
ATOM      6  C   UNL     1       0.378   9.876  21.251  0.00  0.00    +0.000 A 
ATOM      7  C   UNL     1       0.370  11.213  20.837  0.00  0.00    +0.000 A 
ATOM      8  C   UNL     1      -0.331  12.170  21.579  0.00  0.00    +0.000 A 
BRANCH   7   9
ATOM      9  C   UNL     1       1.060  11.640  19.654  0.00  0.00    +0.000 C 
ATOM     10  N   UNL     1       1.595  12.011  18.693  0.00  0.00    +0.000 NA
ENDBRANCH   7   9
BRANCH   3  11
ATOM     11  O   UNL     1      -1.758  12.669  23.514  0.00  0.00    +0.000 OA
BRANCH  11  12
ATOM     12  C   UNL     1      -3.149  12.359  23.629  0.00  0.00    +0.000 C 
BRANCH  12  14
ATOM     13  C   UNL     1      -4.365  14.235  22.515  0.00  0.00    +0.000 C 
ATOM     14  C   UNL     1      -3.891  12.797  22.373  0.00  0.00    +0.000 C 
ENDBRANCH  12  14
ENDBRANCH  11  12
ENDBRANCH   3  11
ENDBRANCH   1   6
BRANCH   2  15
ATOM     15  C   UNL     1       2.565   7.090  19.274  0.00  0.00    +0.000 A 
ATOM     16  C   UNL     1       3.217   7.400  18.077  0.00  0.00    +0.000 A 
ATOM     17  C   UNL     1       3.981   6.429  17.420  0.00  0.00    +0.000 A 
ATOM     18  C   UNL     1       4.117   5.142  17.960  0.00  0.00    +0.000 A 
ATOM     19  C   UNL     1       3.480   4.853  19.176  0.00  0.00    +0.000 A 
ATOM     20  C   UNL     1       2.710   5.820  19.828  0.00  0.00    +0.000 A 
BRANCH  18  21
ATOM     21  C   UNL     1       4.894   4.066  17.228  0.00  0.00    +0.000 C 
BRANCH  21  22
ATOM     22  C   UNL     1       6.026   4.583  16.313  0.00  0.00    +0.000 C 
ATOM     23  C   UNL     1       7.400   4.427  16.966  0.00  0.00    +0.000 C 
BRANCH  22  24
ATOM     24  N   UNL     1       6.032   3.882  15.026  0.00  0.00    +0.000 N 
ATOM     25  C   UNL     1       6.616   4.415  13.899  0.00  0.00    +0.000 C 
ATOM     26  C   UNL     1       6.513   3.545  12.672  0.00  0.00    +0.000 C 
ATOM     27  O   UNL     1       7.178   5.505  13.876  0.00  0.00    +0.000 OA
ATOM     28  H   UNL     1       5.507   3.020  14.944  0.00  0.00    +0.000 HD
ENDBRANCH  22  24
ENDBRANCH  21  22
ENDBRANCH  18  21
ENDBRANCH   2  15
TORSDOF 9
ENDMDL
MODEL 5
REMARK VINA RESULT:      -7.2      6.826     10.362
REMARK  Name = 
REMARK  12 active torsions:
REMARK  status: ('A' for Active; 'I' for Inactive)
REMARK    1  A    between atoms: C_1  and  C_2
REMARK    2  A    between atoms: C_2  and  C_3
REMARK    3  A    between atoms: C_3  and  O_4
REMARK    4  A    between atoms: O_4  and  C_5
REMARK    5  A    between atoms: C_8  and  C_9
REMARK    6  A    between atoms: C_10  and  C_11
REMARK    7  A    between atoms: C_14  and  C_15
REMARK    8  A    between atoms: C_15  and  C_16
REMARK    9  A    between atoms: C_16  and  C_17
REMARK   10  A    between atoms: C_16  and  N_18
REMARK   11  A    between atoms: C_19  and  C_20
REMARK   12  A    between atoms: C_24  and  C_25
REMARK                            x       y       z     vdW  Elec       q    Type
REMARK                         _______ _______ _______ _____ _____    ______ ____
ROOT
ATOM      1  C   UNL     1       0.690   9.639  19.386  0.00  0.00    +0.000 C 
ATOM      2  C   UNL     1       1.452   8.753  19.117  0.00  0.00    +0.000 C 
ENDROOT
BRANCH   1   6
ATOM      3  C   UNL     1      -2.214  12.534  20.486  0.00  0.00    +0.000 A 
ATOM      4  C   UNL     1      -1.999  12.220  19.143  0.00  0.00    +0.000 A 
ATOM      5  C   UNL     1      -1.048  11.259  18.777  0.00  0.00    +0.000 A 
ATOM      6  C   UNL     1      -0.304  10.599  19.762  0.00  0.00    +0.000 A 
ATOM      7  C   UNL     1      -0.524  10.901  21.110  0.00  0.00    +0.000 A 
ATOM      8  C   UNL     1      -1.477  11.863  21.465  0.00  0.00    +0.000 A 
BRANCH   7   9
ATOM      9  C   UNL     1       0.211  10.253  22.158  0.00  0.00    +0.000 C 
ATOM     10  N   UNL     1       0.780   9.736  23.027  0.00  0.00    +0.000 NA
ENDBRANCH   7   9
BRANCH   3  11
ATOM     11  O   UNL     1      -3.154  13.501  20.734  0.00  0.00    +0.000 OA
BRANCH  11  12
ATOM     12  C   UNL     1      -4.234  13.098  21.580  0.00  0.00    +0.000 C 
BRANCH  12  14
ATOM     13  C   UNL     1      -4.216  12.808  24.060  0.00  0.00    +0.000 C 
ATOM     14  C   UNL     1      -4.146  13.812  22.921  0.00  0.00    +0.000 C 
ENDBRANCH  12  14
ENDBRANCH  11  12
ENDBRANCH   3  11
ENDBRANCH   1   6
BRANCH   2  15
ATOM     15  C   UNL     1       2.337   7.663  18.839  0.00  0.00    +0.000 A 
ATOM     16  C   UNL     1       2.393   6.557  19.692  0.00  0.00    +0.000 A 
ATOM     17  C   UNL     1       3.308   5.526  19.446  0.00  0.00    +0.000 A 
ATOM     18  C   UNL     1       4.166   5.580  18.338  0.00  0.00    +0.000 A 
ATOM     19  C   UNL     1       4.079   6.684  17.475  0.00  0.00    +0.000 A 
ATOM     20  C   UNL     1       3.171   7.717  17.725  0.00  0.00    +0.000 A 
BRANCH  18  21
ATOM     21  C   UNL     1       5.198   4.498  18.097  0.00  0.00    +0.000 C 
BRANCH  21  22
ATOM     22  C   UNL     1       6.304   4.861  17.082  0.00  0.00    +0.000 C 
ATOM     23  C   UNL     1       7.697   4.515  17.610  0.00  0.00    +0.000 C 
BRANCH  22  24
ATOM     24  N   UNL     1       6.100   4.175  15.803  0.00  0.00    +0.000 N 
ATOM     25  C   UNL     1       6.664   4.619  14.629  0.00  0.00    +0.000 C 
ATOM     26  C   UNL     1       6.332   3.781  13.421  0.00  0.00    +0.000 C 
ATOM     27  O   UNL     1       7.382   5.611  14.553  0.00  0.00    +0.000 OA
ATOM     28  H   UNL     1       5.446   3.403  15.771  0.00  0.00    +0.000 HD
ENDBRANCH  22  24
ENDBRANCH  21  22
ENDBRANCH  18  21
ENDBRANCH   2  15
TORSDOF 9
ENDMDL
MODEL 6
REMARK VINA RESULT:      -7.1      6.425     10.201
REMARK  Name = 
REMARK  12 active torsions:
REMARK  status: ('A' for Active; 'I' for Inactive)
REMARK    1  A    between atoms: C_1  and  C_2
REMARK    2  A    between atoms: C_2  and  C_3
REMARK    3  A    between atoms: C_3  and  O_4
REMARK    4  A    between atoms: O_4  and  C_5
REMARK    5  A    between atoms: C_8  and  C_9
REMARK    6  A    between atoms: C_10  and  C_11
REMARK    7  A    between atoms: C_14  and  C_15
REMARK    8  A    between atoms: C_15  and  C_16
REMARK    9  A    between atoms: C_16  and  C_17
REMARK   10  A    between atoms: C_16  and  N_18
REMARK   11  A    between atoms: C_19  and  C_20
REMARK   12  A    between atoms: C_24  and  C_25
REMARK                            x       y       z     vdW  Elec       q    Type
REMARK                         _______ _______ _______ _____ _____    ______ ____
ROOT
ATOM      1  C   UNL     1       1.258   8.908  20.530  0.00  0.00    +0.000 C 
ATOM      2  C   UNL     1       1.849   8.084  19.888  0.00  0.00    +0.000 C 
ENDROOT
BRANCH   1   6
ATOM      3  C   UNL     1      -1.172  11.510  22.841  0.00  0.00    +0.000 A 
ATOM      4  C   UNL     1      -0.989  10.181  23.227  0.00  0.00    +0.000 A 
ATOM      5  C   UNL     1      -0.181   9.323  22.472  0.00  0.00    +0.000 A 
ATOM      6  C   UNL     1       0.457   9.794  21.319  0.00  0.00    +0.000 A 
ATOM      7  C   UNL     1       0.287  11.129  20.934  0.00  0.00    +0.000 A 
ATOM      8  C   UNL     1      -0.524  11.979  21.696  0.00  0.00    +0.000 A 
BRANCH   7   9
ATOM      9  C   UNL     1       0.918  11.662  19.761  0.00  0.00    +0.000 C 
ATOM     10  N   UNL     1       1.410  12.071  18.793  0.00  0.00    +0.000 NA
ENDBRANCH   7   9
BRANCH   3  11
ATOM     11  O   UNL     1      -1.996  12.260  23.641  0.00  0.00    +0.000 OA
BRANCH  11  12
ATOM     12  C   UNL     1      -2.759  13.260  22.961  0.00  0.00    +0.000 C 
BRANCH  12  14
ATOM     13  C   UNL     1      -4.375  12.444  24.681  0.00  0.00    +0.000 C 
ATOM     14  C   UNL     1      -4.229  13.150  23.343  0.00  0.00    +0.000 C 
ENDBRANCH  12  14
ENDBRANCH  11  12
ENDBRANCH   3  11
ENDBRANCH   1   6
BRANCH   2  15
ATOM     15  C   UNL     1       2.525   7.059  19.153  0.00  0.00    +0.000 A 
ATOM     16  C   UNL     1       3.134   7.347  17.928  0.00  0.00    +0.000 A 
ATOM     17  C   UNL     1       3.737   6.324  17.186  0.00  0.00    +0.000 A 
ATOM     18  C   UNL     1       3.751   5.007  17.665  0.00  0.00    +0.000 A 
ATOM     19  C   UNL     1       3.160   4.738  18.909  0.00  0.00    +0.000 A 
ATOM     20  C   UNL     1       2.551   5.757  19.647  0.00  0.00    +0.000 A 
BRANCH  18  21
ATOM     21  C   UNL     1       4.350   3.883  16.843  0.00  0.00    +0.000 C 
BRANCH  21  22
ATOM     22  C   UNL     1       5.825   4.085  16.434  0.00  0.00    +0.000 C 
ATOM     23  C   UNL     1       5.999   4.087  14.915  0.00  0.00    +0.000 C 
BRANCH  22  24
ATOM     24  N   UNL     1       6.361   5.339  16.972  0.00  0.00    +0.000 N 
ATOM     25  C   UNL     1       7.396   5.369  17.878  0.00  0.00    +0.000 C 
ATOM     26  C   UNL     1       7.800   6.754  18.317  0.00  0.00    +0.000 C 
ATOM     27  O   UNL     1       7.957   4.365  18.304  0.00  0.00    +0.000 OA
ATOM     28  H   UNL     1       5.888   6.203  16.739  0.00  0.00    +0.000 HD
ENDBRANCH  22  24
ENDBRANCH  21  22
ENDBRANCH  18  21
ENDBRANCH   2  15
TORSDOF 9
ENDMDL
MODEL 7
REMARK VINA RESULT:      -7.1      1.081      1.506
REMARK  Name = 
REMARK  12 active torsions:
REMARK  status: ('A' for Active; 'I' for Inactive)
REMARK    1  A    between atoms: C_1  and  C_2
REMARK    2  A    between atoms: C_2  and  C_3
REMARK    3  A    between atoms: C_3  and  O_4
REMARK    4  A    between atoms: O_4  and  C_5
REMARK    5  A    between atoms: C_8  and  C_9
REMARK    6  A    between atoms: C_10  and  C_11
REMARK    7  A    between atoms: C_14  and  C_15
REMARK    8  A    between atoms: C_15  and  C_16
REMARK    9  A    between atoms: C_16  and  C_17
REMARK   10  A    between atoms: C_16  and  N_18
REMARK   11  A    between atoms: C_19  and  C_20
REMARK   12  A    between atoms: C_24  and  C_25
REMARK                            x       y       z     vdW  Elec       q    Type
REMARK                         _______ _______ _______ _____ _____    ______ ____
ROOT
ATOM      1  C   UNL     1       7.480   7.867  17.705  0.00  0.00    +0.000 C 
ATOM      2  C   UNL     1       8.090   8.851  18.022  0.00  0.00    +0.000 C 
ENDROOT
BRANCH   1   6
ATOM      3  C   UNL     1       4.991   4.526  16.894  0.00  0.00    +0.000 A 
ATOM      4  C   UNL     1       5.000   5.628  16.037  0.00  0.00    +0.000 A 
ATOM      5  C   UNL     1       5.827   6.728  16.297  0.00  0.00    +0.000 A 
ATOM      6  C   UNL     1       6.658   6.729  17.422  0.00  0.00    +0.000 A 
ATOM      7  C   UNL     1       6.662   5.621  18.278  0.00  0.00    +0.000 A 
ATOM      8  C   UNL     1       5.832   4.527  18.009  0.00  0.00    +0.000 A 
BRANCH   7   9
ATOM      9  C   UNL     1       7.495   5.573  19.444  0.00  0.00    +0.000 C 
ATOM     10  N   UNL     1       8.143   5.520  20.406  0.00  0.00    +0.000 NA
ENDBRANCH   7   9
BRANCH   3  11
ATOM     11  O   UNL     1       4.133   3.510  16.557  0.00  0.00    +0.000 OA
BRANCH  11  12
ATOM     12  C   UNL     1       3.263   3.075  17.605  0.00  0.00    +0.000 C 
BRANCH  12  14
ATOM     13  C   UNL     1       1.959   4.749  18.922  0.00  0.00    +0.000 C 
ATOM     14  C   UNL     1       2.008   3.936  17.638  0.00  0.00    +0.000 C 
ENDBRANCH  12  14
ENDBRANCH  11  12
ENDBRANCH   3  11
ENDBRANCH   1   6
BRANCH   2  15
ATOM     15  C   UNL     1       8.766  10.047  18.420  0.00  0.00    +0.000 A 
ATOM     16  C   UNL     1       9.547  10.071  19.579  0.00  0.00    +0.000 A 
ATOM     17  C   UNL     1      10.152  11.262  19.995  0.00  0.00    +0.000 A 
ATOM     18  C   UNL     1       9.998  12.440  19.250  0.00  0.00    +0.000 A 
ATOM     19  C   UNL     1       9.235  12.395  18.073  0.00  0.00    +0.000 A 
ATOM     20  C   UNL     1       8.624  11.207  17.662  0.00  0.00    +0.000 A 
BRANCH  18  21
ATOM     21  C   UNL     1      10.601  13.747  19.722  0.00  0.00    +0.000 C 
BRANCH  21  22
ATOM     22  C   UNL     1       9.652  14.649  20.540  0.00  0.00    +0.000 C 
ATOM     23  C   UNL     1       9.029  15.748  19.679  0.00  0.00    +0.000 C 
BRANCH  22  24
ATOM     24  N   UNL     1       8.578  13.868  21.160  0.00  0.00    +0.000 N 
ATOM     25  C   UNL     1       8.305  13.929  22.508  0.00  0.00    +0.000 C 
ATOM     26  C   UNL     1       7.166  13.048  22.953  0.00  0.00    +0.000 C 
ATOM     27  O   UNL     1       8.923  14.637  23.295  0.00  0.00    +0.000 OA
ATOM     28  H   UNL     1       8.084  13.192  20.590  0.00  0.00    +0.000 HD
ENDBRANCH  22  24
ENDBRANCH  21  22
ENDBRANCH  18  21
ENDBRANCH   2  15
TORSDOF 9
ENDMDL
MODEL 8
REMARK VINA RESULT:      -7.1      6.197      7.669
REMARK  Name = 
REMARK  12 active torsions:
REMARK  status: ('A' for Active; 'I' for Inactive)
REMARK    1  A    between atoms: C_1  and  C_2
REMARK    2  A    between atoms: C_2  and  C_3
REMARK    3  A    between atoms: C_3  and  O_4
REMARK    4  A    between atoms: O_4  and  C_5
REMARK    5  A    between atoms: C_8  and  C_9
REMARK    6  A    between atoms: C_10  and  C_11
REMARK    7  A    between atoms: C_14  and  C_15
REMARK    8  A    between atoms: C_15  and  C_16
REMARK    9  A    between atoms: C_16  and  C_17
REMARK   10  A    between atoms: C_16  and  N_18
REMARK   11  A    between atoms: C_19  and  C_20
REMARK   12  A    between atoms: C_24  and  C_25
REMARK                            x       y       z     vdW  Elec       q    Type
REMARK                         _______ _______ _______ _____ _____    ______ ____
ROOT
ATOM      1  C   UNL     1       2.921   6.734  18.203  0.00  0.00    +0.000 C 
ATOM      2  C   UNL     1       2.316   7.489  18.913  0.00  0.00    +0.000 C 
ENDROOT
BRANCH   1   6
ATOM      3  C   UNL     1       5.360   4.287  15.737  0.00  0.00    +0.000 A 
ATOM      4  C   UNL     1       5.455   5.678  15.671  0.00  0.00    +0.000 A 
ATOM      5  C   UNL     1       4.658   6.488  16.490  0.00  0.00    +0.000 A 
ATOM      6  C   UNL     1       3.757   5.906  17.388  0.00  0.00    +0.000 A 
ATOM      7  C   UNL     1       3.667   4.511  17.467  0.00  0.00    +0.000 A 
ATOM      8  C   UNL     1       4.468   3.711  16.645  0.00  0.00    +0.000 A 
BRANCH   7   9
ATOM      9  C   UNL     1       2.761   3.865  18.371  0.00  0.00    +0.000 C 
ATOM     10  N   UNL     1       2.001   3.359  19.089  0.00  0.00    +0.000 NA
ENDBRANCH   7   9
BRANCH   3  11
ATOM     11  O   UNL     1       6.172   3.588  14.880  0.00  0.00    +0.000 OA
BRANCH  11  12
ATOM     12  C   UNL     1       6.580   4.302  13.711  0.00  0.00    +0.000 C 
BRANCH  12  14
ATOM     13  C   UNL     1       4.851   3.431  12.134  0.00  0.00    +0.000 C 
ATOM     14  C   UNL     1       6.334   3.459  12.468  0.00  0.00    +0.000 C 
ENDBRANCH  12  14
ENDBRANCH  11  12
ENDBRANCH   3  11
ENDBRANCH   1   6
BRANCH   2  15
ATOM     15  C   UNL     1       1.645   8.400  19.789  0.00  0.00    +0.000 A 
ATOM     16  C   UNL     1       1.497   8.103  21.147  0.00  0.00    +0.000 A 
ATOM     17  C   UNL     1       0.783   8.971  21.983  0.00  0.00    +0.000 A 
ATOM     18  C   UNL     1       0.223  10.151  21.475  0.00  0.00    +0.000 A 
ATOM     19  C   UNL     1       0.403  10.450  20.116  0.00  0.00    +0.000 A 
ATOM     20  C   UNL     1       1.109   9.581  19.280  0.00  0.00    +0.000 A 
BRANCH  18  21
ATOM     21  C   UNL     1      -0.601  11.067  22.359  0.00  0.00    +0.000 C 
BRANCH  21  22
ATOM     22  C   UNL     1      -1.146  12.333  21.663  0.00  0.00    +0.000 C 
ATOM     23  C   UNL     1      -2.668  12.427  21.765  0.00  0.00    +0.000 C 
BRANCH  22  24
ATOM     24  N   UNL     1      -0.558  13.549  22.234  0.00  0.00    +0.000 N 
ATOM     25  C   UNL     1       0.484  14.216  21.632  0.00  0.00    +0.000 C 
ATOM     26  C   UNL     1       0.953  15.441  22.376  0.00  0.00    +0.000 C 
ATOM     27  O   UNL     1       1.001  13.862  20.578  0.00  0.00    +0.000 OA
ATOM     28  H   UNL     1      -0.870  13.850  23.149  0.00  0.00    +0.000 HD
ENDBRANCH  22  24
ENDBRANCH  21  22
ENDBRANCH  18  21
ENDBRANCH   2  15
TORSDOF 9
ENDMDL
MODEL 9
REMARK VINA RESULT:      -7.1      6.721      8.542
REMARK  Name = 
REMARK  12 active torsions:
REMARK  status: ('A' for Active; 'I' for Inactive)
REMARK    1  A    between atoms: C_1  and  C_2
REMARK    2  A    between atoms: C_2  and  C_3
REMARK    3  A    between atoms: C_3  and  O_4
REMARK    4  A    between atoms: O_4  and  C_5
REMARK    5  A    between atoms: C_8  and  C_9
REMARK    6  A    between atoms: C_10  and  C_11
REMARK    7  A    between atoms: C_14  and  C_15
REMARK    8  A    between atoms: C_15  and  C_16
REMARK    9  A    between atoms: C_16  and  C_17
REMARK   10  A    between atoms: C_16  and  N_18
REMARK   11  A    between atoms: C_19  and  C_20
REMARK   12  A    between atoms: C_24  and  C_25
REMARK                            x       y       z     vdW  Elec       q    Type
REMARK                         _______ _______ _______ _____ _____    ______ ____
ROOT
ATOM      1  C   UNL     1       2.571   7.182  18.683  0.00  0.00    +0.000 C 
ATOM      2  C   UNL     1       1.937   7.907  19.398  0.00  0.00    +0.000 C 
ENDROOT
BRANCH   1   6
ATOM      3  C   UNL     1       4.993   4.517  16.435  0.00  0.00    +0.000 A 
ATOM      4  C   UNL     1       5.262   5.887  16.439  0.00  0.00    +0.000 A 
ATOM      5  C   UNL     1       4.470   6.768  17.187  0.00  0.00    +0.000 A 
ATOM      6  C   UNL     1       3.399   6.278  17.943  0.00  0.00    +0.000 A 
ATOM      7  C   UNL     1       3.133   4.904  17.952  0.00  0.00    +0.000 A 
ATOM      8  C   UNL     1       3.931   4.032  17.201  0.00  0.00    +0.000 A 
BRANCH   7   9
ATOM      9  C   UNL     1       2.048   4.351  18.710  0.00  0.00    +0.000 C 
ATOM     10  N   UNL     1       1.169   3.932  19.341  0.00  0.00    +0.000 NA
ENDBRANCH   7   9
BRANCH   3  11
ATOM     11  O   UNL     1       5.817   3.746  15.656  0.00  0.00    +0.000 OA
BRANCH  11  12
ATOM     12  C   UNL     1       6.372   4.408  14.516  0.00  0.00    +0.000 C 
BRANCH  12  14
ATOM     13  C   UNL     1       6.926   3.949  12.125  0.00  0.00    +0.000 C 
ATOM     14  C   UNL     1       5.913   3.724  13.236  0.00  0.00    +0.000 C 
ENDBRANCH  12  14
ENDBRANCH  11  12
ENDBRANCH   3  11
ENDBRANCH   1   6
BRANCH   2  15
ATOM     15  C   UNL     1       1.194   8.736  20.297  0.00  0.00    +0.000 A 
ATOM     16  C   UNL     1       1.382   8.634  21.679  0.00  0.00    +0.000 A 
ATOM     17  C   UNL     1       0.605   9.404  22.552  0.00  0.00    +0.000 A 
ATOM     18  C   UNL     1      -0.357  10.296  22.056  0.00  0.00    +0.000 A 
ATOM     19  C   UNL     1      -0.514  10.409  20.666  0.00  0.00    +0.000 A 
ATOM     20  C   UNL     1       0.256   9.634  19.794  0.00  0.00    +0.000 A 
BRANCH  18  21
ATOM     21  C   UNL     1      -1.242  11.091  22.995  0.00  0.00    +0.000 C 
BRANCH  21  22
ATOM     22  C   UNL     1      -1.445  12.572  22.608  0.00  0.00    +0.000 C 
ATOM     23  C   UNL     1      -0.164  13.195  22.053  0.00  0.00    +0.000 C 
BRANCH  22  24
ATOM     24  N   UNL     1      -2.512  12.721  21.614  0.00  0.00    +0.000 N 
ATOM     25  C   UNL     1      -3.844  12.601  21.938  0.00  0.00    +0.000 C 
ATOM     26  C   UNL     1      -4.788  12.783  20.777  0.00  0.00    +0.000 C 
ATOM     27  O   UNL     1      -4.249  12.369  23.072  0.00  0.00    +0.000 OA
ATOM     28  H   UNL     1      -2.253  12.822  20.640  0.00  0.00    +0.000 HD
ENDBRANCH  22  24
ENDBRANCH  21  22
ENDBRANCH  18  21
ENDBRANCH   2  15
TORSDOF 9
ENDMDL
