MODEL 1
REMARK VINA RESULT:      -7.7      0.000      0.000
REMARK  Name = 
REMARK  5 active torsions:
REMARK  status: ('A' for Active; 'I' for Inactive)
REMARK    1  A    between atoms: C_2  and  C_3
REMARK    2  A    between atoms: C_3  and  C_4
REMARK    3  A    between atoms: C_4  and  C_5
REMARK    4  A    between atoms: C_4  and  C_12
REMARK    5  A    between atoms: C_16  and  O_17
REMARK                            x       y       z     vdW  Elec       q    Type
REMARK                         _______ _______ _______ _____ _____    ______ ____
ROOT
ATOM      1  C   UNL     1       4.262   6.372  17.753  0.00  0.00    +0.000 A 
ATOM      2  C   UNL     1       4.198   6.986  16.410  0.00  0.00    +0.000 A 
ATOM      3  N   UNL     1       5.196   6.745  15.609  0.00  0.00    +0.000 NA
ATOM      4  C   UNL     1       6.012   5.947  16.364  0.00  0.00    +0.000 A 
ATOM      5  C   UNL     1       7.179   5.369  16.052  0.00  0.00    +0.000 A 
ATOM      6  N   UNL     1       7.788   4.600  17.009  0.00  0.00    +0.000 N 
ATOM      7  C   UNL     1       7.194   4.441  18.237  0.00  0.00    +0.000 A 
ATOM      8  N   UNL     1       6.060   4.956  18.626  0.00  0.00    +0.000 NA
ATOM      9  C   UNL     1       5.431   5.732  17.676  0.00  0.00    +0.000 A 
ATOM     10  H   UNL     1       8.658   4.158  16.748  0.00  0.00    +0.000 HD
ENDROOT
BRANCH   5  11
ATOM     11  O   UNL     1       7.781   5.501  14.832  0.00  0.00    +0.000 OA
ATOM     12  H   UNL     1       7.126   5.152  14.194  0.00  0.00    +0.000 HD
ENDBRANCH   5  11
BRANCH   1  13
ATOM     13  C   UNL     1       3.229   6.435  18.830  0.00  0.00    +0.000 C 
BRANCH  13  14
ATOM     14  C   UNL     1       2.436   5.126  18.967  0.00  0.00    +0.000 A 
ATOM     15  C   UNL     1       1.839   4.464  17.882  0.00  0.00    +0.000 A 
ATOM     16  C   UNL     1       1.168   3.250  18.055  0.00  0.00    +0.000 A 
ATOM     17  C   UNL     1       1.063   2.679  19.319  0.00  0.00    +0.000 A 
ATOM     18  C   UNL     1       1.613   3.336  20.413  0.00  0.00    +0.000 A 
ATOM     19 CL   UNL     1       1.483   2.639  21.981  0.00  0.00    +0.000 Cl
ATOM     20  C   UNL     1       2.280   4.552  20.247  0.00  0.00    +0.000 A 
ENDBRANCH  13  14
BRANCH  13  21
ATOM     21  C   UNL     1       2.411   7.742  18.713  0.00  0.00    +0.000 C 
BRANCH  21  23
ATOM     22  N   UNL     1       1.268   8.428  20.981  0.00  0.00    +0.000 NA
ATOM     23  C   UNL     1       1.778   8.145  19.978  0.00  0.00    +0.000 C 
ENDBRANCH  21  23
ENDBRANCH  13  21
ENDBRANCH   1  13
TORSDOF 5
ENDMDL
MODEL 2
REMARK VINA RESULT:      -7.6      2.411      4.035
REMARK  Name = 
REMARK  5 active torsions:
REMARK  status: ('A' for Active; 'I' for Inactive)
REMARK    1  A    between atoms: C_2  and  C_3
REMARK    2  A    between atoms: C_3  and  C_4
REMARK    3  A    between atoms: C_4  and  C_5
REMARK    4  A    between atoms: C_4  and  C_12
REMARK    5  A    between atoms: C_16  and  O_17
REMARK                            x       y       z     vdW  Elec       q    Type
REMARK                         _______ _______ _______ _____ _____    ______ ____
ROOT
ATOM      1  C   UNL     1       4.022   5.091  18.076  0.00  0.00    +0.000 A 
ATOM      2  C   UNL     1       4.703   4.798  19.353  0.00  0.00    +0.000 A 
ATOM      3  N   UNL     1       5.978   4.540  19.291  0.00  0.00    +0.000 NA
ATOM      4  C   UNL     1       6.247   4.637  17.953  0.00  0.00    +0.000 A 
ATOM      5  C   UNL     1       7.405   4.495  17.295  0.00  0.00    +0.000 A 
ATOM      6  N   UNL     1       7.392   4.659  15.935  0.00  0.00    +0.000 N 
ATOM      7  C   UNL     1       6.216   4.964  15.295  0.00  0.00    +0.000 A 
ATOM      8  N   UNL     1       5.047   5.127  15.851  0.00  0.00    +0.000 NA
ATOM      9  C   UNL     1       5.040   4.969  17.220  0.00  0.00    +0.000 A 
ATOM     10  H   UNL     1       8.279   4.567  15.460  0.00  0.00    +0.000 HD
ENDROOT
BRANCH   5  11
ATOM     11  O   UNL     1       8.590   4.207  17.913  0.00  0.00    +0.000 OA
ATOM     12  H   UNL     1       8.465   4.503  18.838  0.00  0.00    +0.000 HD
ENDBRANCH   5  11
BRANCH   1  13
ATOM     13  C   UNL     1       2.593   5.479  17.877  0.00  0.00    +0.000 C 
BRANCH  13  14
ATOM     14  C   UNL     1       2.295   6.907  18.360  0.00  0.00    +0.000 A 
ATOM     15  C   UNL     1       2.343   8.034  17.523  0.00  0.00    +0.000 A 
ATOM     16  C   UNL     1       2.017   9.307  18.003  0.00  0.00    +0.000 A 
ATOM     17  C   UNL     1       1.652   9.483  19.334  0.00  0.00    +0.000 A 
ATOM     18  C   UNL     1       1.636   8.387  20.189  0.00  0.00    +0.000 A 
ATOM     19 CL   UNL     1       1.192   8.599  21.838  0.00  0.00    +0.000 Cl
ATOM     20  C   UNL     1       1.966   7.115  19.716  0.00  0.00    +0.000 A 
ENDBRANCH  13  14
BRANCH  13  21
ATOM     21  C   UNL     1       1.657   4.357  18.381  0.00  0.00    +0.000 C 
BRANCH  21  23
ATOM     22  N   UNL     1       2.445   1.956  17.647  0.00  0.00    +0.000 NA
ATOM     23  C   UNL     1       2.103   3.011  17.990  0.00  0.00    +0.000 C 
ENDBRANCH  21  23
ENDBRANCH  13  21
ENDBRANCH   1  13
TORSDOF 5
ENDMDL
MODEL 3
REMARK VINA RESULT:      -7.2      2.823      4.281
REMARK  Name = 
REMARK  5 active torsions:
REMARK  status: ('A' for Active; 'I' for Inactive)
REMARK    1  A    between atoms: C_2  and  C_3
REMARK    2  A    between atoms: C_3  and  C_4
REMARK    3  A    between atoms: C_4  and  C_5
REMARK    4  A    between atoms: C_4  and  C_12
REMARK    5  A    between atoms: C_16  and  O_17
REMARK                            x       y       z     vdW  Elec       q    Type
REMARK                         _______ _______ _______ _____ _____    ______ ____
ROOT
ATOM      1  C   UNL     1       3.998   4.979  18.049  0.00  0.00    +0.000 A 
ATOM      2  C   UNL     1       4.658   4.591  19.312  0.00  0.00    +0.000 A 
ATOM      3  N   UNL     1       5.934   4.339  19.252  0.00  0.00    +0.000 NA
ATOM      4  C   UNL     1       6.226   4.536  17.931  0.00  0.00    +0.000 A 
ATOM      5  C   UNL     1       7.395   4.445  17.284  0.00  0.00    +0.000 A 
ATOM      6  N   UNL     1       7.405   4.710  15.940  0.00  0.00    +0.000 N 
ATOM      7  C   UNL     1       6.239   5.063  15.304  0.00  0.00    +0.000 A 
ATOM      8  N   UNL     1       5.060   5.183  15.851  0.00  0.00    +0.000 NA
ATOM      9  C   UNL     1       5.031   4.922  17.204  0.00  0.00    +0.000 A 
ATOM     10  H   UNL     1       8.300   4.655  15.474  0.00  0.00    +0.000 HD
ENDROOT
BRANCH   5  11
ATOM     11  O   UNL     1       8.570   4.112  17.898  0.00  0.00    +0.000 OA
ATOM     12  H   UNL     1       9.122   4.918  17.829  0.00  0.00    +0.000 HD
ENDBRANCH   5  11
BRANCH   1  13
ATOM     13  C   UNL     1       2.572   5.380  17.855  0.00  0.00    +0.000 C 
BRANCH  13  14
ATOM     14  C   UNL     1       2.168   6.571  18.738  0.00  0.00    +0.000 A 
ATOM     15  C   UNL     1       1.860   6.453  20.104  0.00  0.00    +0.000 A 
ATOM     16  C   UNL     1       1.542   7.576  20.874  0.00  0.00    +0.000 A 
ATOM     17  C   UNL     1       1.508   8.840  20.292  0.00  0.00    +0.000 A 
ATOM     18  C   UNL     1       1.772   8.974  18.934  0.00  0.00    +0.000 A 
ATOM     19 CL   UNL     1       1.726  10.533  18.207  0.00  0.00    +0.000 Cl
ATOM     20  C   UNL     1       2.084   7.855  18.160  0.00  0.00    +0.000 A 
ENDBRANCH  13  14
BRANCH  13  21
ATOM     21  C   UNL     1       1.655   4.137  17.889  0.00  0.00    +0.000 C 
BRANCH  21  23
ATOM     22  N   UNL     1       2.957   1.854  17.759  0.00  0.00    +0.000 NA
ATOM     23  C   UNL     1       2.397   2.867  17.831  0.00  0.00    +0.000 C 
ENDBRANCH  21  23
ENDBRANCH  13  21
ENDBRANCH   1  13
TORSDOF 5
ENDMDL
MODEL 4
REMARK VINA RESULT:      -7.2      3.709      5.648
REMARK  Name = 
REMARK  5 active torsions:
REMARK  status: ('A' for Active; 'I' for Inactive)
REMARK    1  A    between atoms: C_2  and  C_3
REMARK    2  A    between atoms: C_3  and  C_4
REMARK    3  A    between atoms: C_4  and  C_5
REMARK    4  A    between atoms: C_4  and  C_12
REMARK    5  A    between atoms: C_16  and  O_17
REMARK                            x       y       z     vdW  Elec       q    Type
REMARK                         _______ _______ _______ _____ _____    ______ ____
ROOT
ATOM      1  C   UNL     1       2.829   5.658  18.596  0.00  0.00    +0.000 A 
ATOM      2  C   UNL     1       2.416   6.125  19.936  0.00  0.00    +0.000 A 
ATOM      3  N   UNL     1       1.845   5.249  20.711  0.00  0.00    +0.000 NA
ATOM      4  C   UNL     1       1.828   4.119  19.939  0.00  0.00    +0.000 A 
ATOM      5  C   UNL     1       1.380   2.889  20.222  0.00  0.00    +0.000 A 
ATOM      6  N   UNL     1       1.498   1.927  19.255  0.00  0.00    +0.000 N 
ATOM      7  C   UNL     1       2.067   2.241  18.045  0.00  0.00    +0.000 A 
ATOM      8  N   UNL     1       2.536   3.404  17.683  0.00  0.00    +0.000 NA
ATOM      9  C   UNL     1       2.428   4.385  18.645  0.00  0.00    +0.000 A 
ATOM     10  H   UNL     1       1.172   1.001  19.494  0.00  0.00    +0.000 HD
ENDROOT
BRANCH   5  11
ATOM     11  O   UNL     1       0.825   2.550  21.425  0.00  0.00    +0.000 OA
ATOM     12  H   UNL     1       0.141   1.886  21.202  0.00  0.00    +0.000 HD
ENDBRANCH   5  11
BRANCH   1  13
ATOM     13  C   UNL     1       3.556   6.435  17.548  0.00  0.00    +0.000 C 
BRANCH  13  14
ATOM     14  C   UNL     1       4.907   5.806  17.176  0.00  0.00    +0.000 A 
ATOM     15  C   UNL     1       5.988   5.706  18.069  0.00  0.00    +0.000 A 
ATOM     16  C   UNL     1       7.182   5.082  17.694  0.00  0.00    +0.000 A 
ATOM     17  C   UNL     1       7.329   4.560  16.413  0.00  0.00    +0.000 A 
ATOM     18  C   UNL     1       6.287   4.682  15.501  0.00  0.00    +0.000 A 
ATOM     19 CL   UNL     1       6.464   4.044  13.913  0.00  0.00    +0.000 Cl
ATOM     20  C   UNL     1       5.095   5.309  15.868  0.00  0.00    +0.000 A 
ENDBRANCH  13  14
BRANCH  13  21
ATOM     21  C   UNL     1       3.554   7.941  17.898  0.00  0.00    +0.000 C 
BRANCH  21  23
ATOM     22  N   UNL     1       1.242   9.131  17.500  0.00  0.00    +0.000 NA
ATOM     23  C   UNL     1       2.254   8.589  17.667  0.00  0.00    +0.000 C 
ENDBRANCH  21  23
ENDBRANCH  13  21
ENDBRANCH   1  13
TORSDOF 5
ENDMDL
MODEL 5
REMARK VINA RESULT:      -7.2      3.864      6.400
REMARK  Name = 
REMARK  5 active torsions:
REMARK  status: ('A' for Active; 'I' for Inactive)
REMARK    1  A    between atoms: C_2  and  C_3
REMARK    2  A    between atoms: C_3  and  C_4
REMARK    3  A    between atoms: C_4  and  C_5
REMARK    4  A    between atoms: C_4  and  C_12
REMARK    5  A    between atoms: C_16  and  O_17
REMARK                            x       y       z     vdW  Elec       q    Type
REMARK                         _______ _______ _______ _____ _____    ______ ____
ROOT
ATOM      1  C   UNL     1       4.099   4.642  17.382  0.00  0.00    +0.000 A 
ATOM      2  C   UNL     1       3.152   5.705  17.776  0.00  0.00    +0.000 A 
ATOM      3  N   UNL     1       2.093   5.332  18.435  0.00  0.00    +0.000 NA
ATOM      4  C   UNL     1       2.251   3.976  18.528  0.00  0.00    +0.000 A 
ATOM      5  C   UNL     1       1.478   3.059  19.124  0.00  0.00    +0.000 A 
ATOM      6  N   UNL     1       1.883   1.751  19.075  0.00  0.00    +0.000 N 
ATOM      7  C   UNL     1       3.053   1.423  18.433  0.00  0.00    +0.000 A 
ATOM      8  N   UNL     1       3.870   2.245  17.834  0.00  0.00    +0.000 NA
ATOM      9  C   UNL     1       3.479   3.566  17.875  0.00  0.00    +0.000 A 
ATOM     10  H   UNL     1       1.298   1.077  19.546  0.00  0.00    +0.000 HD
ENDROOT
BRANCH   5  11
ATOM     11  O   UNL     1       0.319   3.364  19.782  0.00  0.00    +0.000 OA
ATOM     12  H   UNL     1       0.113   2.562  20.305  0.00  0.00    +0.000 HD
ENDBRANCH   5  11
BRANCH   1  13
ATOM     13  C   UNL     1       5.409   4.805  16.684  0.00  0.00    +0.000 C 
BRANCH  13  14
ATOM     14  C   UNL     1       6.439   5.569  17.530  0.00  0.00    +0.000 A 
ATOM     15  C   UNL     1       7.124   5.000  18.617  0.00  0.00    +0.000 A 
ATOM     16  C   UNL     1       8.087   5.726  19.326  0.00  0.00    +0.000 A 
ATOM     17  C   UNL     1       8.374   7.041  18.975  0.00  0.00    +0.000 A 
ATOM     18  C   UNL     1       7.681   7.636  17.927  0.00  0.00    +0.000 A 
ATOM     19 CL   UNL     1       8.027   9.263  17.491  0.00  0.00    +0.000 Cl
ATOM     20  C   UNL     1       6.715   6.918  17.219  0.00  0.00    +0.000 A 
ENDBRANCH  13  14
BRANCH  13  21
ATOM     21  C   UNL     1       5.188   5.296  15.235  0.00  0.00    +0.000 C 
BRANCH  21  23
ATOM     22  N   UNL     1       6.215   3.713  13.402  0.00  0.00    +0.000 NA
ATOM     23  C   UNL     1       5.760   4.395  14.223  0.00  0.00    +0.000 C 
ENDBRANCH  21  23
ENDBRANCH  13  21
ENDBRANCH   1  13
TORSDOF 5
ENDMDL
MODEL 6
REMARK VINA RESULT:      -7.1      2.453      3.630
REMARK  Name = 
REMARK  5 active torsions:
REMARK  status: ('A' for Active; 'I' for Inactive)
REMARK    1  A    between atoms: C_2  and  C_3
REMARK    2  A    between atoms: C_3  and  C_4
REMARK    3  A    between atoms: C_4  and  C_5
REMARK    4  A    between atoms: C_4  and  C_12
REMARK    5  A    between atoms: C_16  and  O_17
REMARK                            x       y       z     vdW  Elec       q    Type
REMARK                         _______ _______ _______ _____ _____    ______ ____
ROOT
ATOM      1  C   UNL     1       3.850   4.946  18.341  0.00  0.00    +0.000 A 
ATOM      2  C   UNL     1       3.830   4.335  16.996  0.00  0.00    +0.000 A 
ATOM      3  N   UNL     1       4.985   4.112  16.437  0.00  0.00    +0.000 NA
ATOM      4  C   UNL     1       5.873   4.566  17.372  0.00  0.00    +0.000 A 
ATOM      5  C   UNL     1       7.212   4.572  17.357  0.00  0.00    +0.000 A 
ATOM      6  N   UNL     1       7.863   5.085  18.448  0.00  0.00    +0.000 N 
ATOM      7  C   UNL     1       7.138   5.565  19.512  0.00  0.00    +0.000 A 
ATOM      8  N   UNL     1       5.837   5.593  19.618  0.00  0.00    +0.000 NA
ATOM      9  C   UNL     1       5.166   5.079  18.530  0.00  0.00    +0.000 A 
ATOM     10  H   UNL     1       8.872   5.062  18.426  0.00  0.00    +0.000 HD
ENDROOT
BRANCH   5  11
ATOM     11  O   UNL     1       7.954   4.085  16.317  0.00  0.00    +0.000 OA
ATOM     12  H   UNL     1       8.880   4.125  16.634  0.00  0.00    +0.000 HD
ENDBRANCH   5  11
BRANCH   1  13
ATOM     13  C   UNL     1       2.681   5.243  19.221  0.00  0.00    +0.000 C 
BRANCH  13  14
ATOM     14  C   UNL     1       2.265   6.721  19.174  0.00  0.00    +0.000 A 
ATOM     15  C   UNL     1       2.364   7.518  18.022  0.00  0.00    +0.000 A 
ATOM     16  C   UNL     1       1.928   8.847  18.020  0.00  0.00    +0.000 A 
ATOM     17  C   UNL     1       1.400   9.414  19.175  0.00  0.00    +0.000 A 
ATOM     18  C   UNL     1       1.328   8.655  20.338  0.00  0.00    +0.000 A 
ATOM     19 CL   UNL     1       0.682   9.352  21.772  0.00  0.00    +0.000 Cl
ATOM     20  C   UNL     1       1.767   7.330  20.346  0.00  0.00    +0.000 A 
ENDBRANCH  13  14
BRANCH  13  21
ATOM     21  C   UNL     1       2.888   4.615  20.619  0.00  0.00    +0.000 C 
BRANCH  21  23
ATOM     22  N   UNL     1       1.137   2.743  21.212  0.00  0.00    +0.000 NA
ATOM     23  C   UNL     1       1.912   3.560  20.932  0.00  0.00    +0.000 C 
ENDBRANCH  21  23
ENDBRANCH  13  21
ENDBRANCH   1  13
TORSDOF 5
ENDMDL
MODEL 7
REMARK VINA RESULT:      -7.0      3.765      5.711
REMARK  Name = 
REMARK  5 active torsions:
REMARK  status: ('A' for Active; 'I' for Inactive)
REMARK    1  A    between atoms: C_2  and  C_3
REMARK    2  A    between atoms: C_3  and  C_4
REMARK    3  A    between atoms: C_4  and  C_5
REMARK    4  A    between atoms: C_4  and  C_12
REMARK    5  A    between atoms: C_16  and  O_17
REMARK                            x       y       z     vdW  Elec       q    Type
REMARK                         _______ _______ _______ _____ _____    ______ ____
ROOT
ATOM      1  C   UNL     1       2.326   7.289  19.172  0.00  0.00    +0.000 A 
ATOM      2  C   UNL     1       2.500   7.827  17.807  0.00  0.00    +0.000 A 
ATOM      3  N   UNL     1       2.059   9.034  17.593  0.00  0.00    +0.000 NA
ATOM      4  C   UNL     1       1.548   9.396  18.809  0.00  0.00    +0.000 A 
ATOM      5  C   UNL     1       0.981  10.545  19.198  0.00  0.00    +0.000 A 
ATOM      6  N   UNL     1       0.561  10.644  20.498  0.00  0.00    +0.000 N 
ATOM      7  C   UNL     1       0.735   9.584  21.354  0.00  0.00    +0.000 A 
ATOM      8  N   UNL     1       1.282   8.434  21.069  0.00  0.00    +0.000 NA
ATOM      9  C   UNL     1       1.713   8.317  19.765  0.00  0.00    +0.000 A 
ATOM     10  H   UNL     1       0.153  11.525  20.776  0.00  0.00    +0.000 HD
ENDROOT
BRANCH   5  11
ATOM     11  O   UNL     1       0.811  11.618  18.367  0.00  0.00    +0.000 OA
ATOM     12  H   UNL     1       0.243  11.283  17.644  0.00  0.00    +0.000 HD
ENDBRANCH   5  11
BRANCH   1  13
ATOM     13  C   UNL     1       2.795   5.971  19.695  0.00  0.00    +0.000 C 
BRANCH  13  14
ATOM     14  C   UNL     1       3.747   5.255  18.725  0.00  0.00    +0.000 A 
ATOM     15  C   UNL     1       3.309   4.430  17.675  0.00  0.00    +0.000 A 
ATOM     16  C   UNL     1       4.217   3.839  16.791  0.00  0.00    +0.000 A 
ATOM     17  C   UNL     1       5.584   4.044  16.947  0.00  0.00    +0.000 A 
ATOM     18  C   UNL     1       6.042   4.825  18.002  0.00  0.00    +0.000 A 
ATOM     19 CL   UNL     1       7.731   5.079  18.204  0.00  0.00    +0.000 Cl
ATOM     20  C   UNL     1       5.140   5.414  18.891  0.00  0.00    +0.000 A 
ENDBRANCH  13  14
BRANCH  13  21
ATOM     21  C   UNL     1       1.601   5.154  20.238  0.00  0.00    +0.000 C 
BRANCH  21  23
ATOM     22  N   UNL     1       2.283   3.300  21.977  0.00  0.00    +0.000 NA
ATOM     23  C   UNL     1       1.999   4.113  21.199  0.00  0.00    +0.000 C 
ENDBRANCH  21  23
ENDBRANCH  13  21
ENDBRANCH   1  13
TORSDOF 5
ENDMDL
MODEL 8
REMARK VINA RESULT:      -7.0      3.579      6.207
REMARK  Name = 
REMARK  5 active torsions:
REMARK  status: ('A' for Active; 'I' for Inactive)
REMARK    1  A    between atoms: C_2  and  C_3
REMARK    2  A    between atoms: C_3  and  C_4
REMARK    3  A    between atoms: C_4  and  C_5
REMARK    4  A    between atoms: C_4  and  C_12
REMARK    5  A    between atoms: C_16  and  O_17
REMARK                            x       y       z     vdW  Elec       q    Type
REMARK                         _______ _______ _______ _____ _____    ______ ____
ROOT
ATOM      1  C   UNL     1       4.042   4.638  17.378  0.00  0.00    +0.000 A 
ATOM      2  C   UNL     1       3.168   5.729  17.857  0.00  0.00    +0.000 A 
ATOM      3  N   UNL     1       2.143   5.382  18.582  0.00  0.00    +0.000 NA
ATOM      4  C   UNL     1       2.253   4.020  18.640  0.00  0.00    +0.000 A 
ATOM      5  C   UNL     1       1.489   3.120  19.272  0.00  0.00    +0.000 A 
ATOM      6  N   UNL     1       1.838   1.799  19.170  0.00  0.00    +0.000 N 
ATOM      7  C   UNL     1       2.946   1.440  18.442  0.00  0.00    +0.000 A 
ATOM      8  N   UNL     1       3.751   2.243  17.802  0.00  0.00    +0.000 NA
ATOM      9  C   UNL     1       3.416   3.577  17.894  0.00  0.00    +0.000 A 
ATOM     10  H   UNL     1       1.260   1.138  19.670  0.00  0.00    +0.000 HD
ENDROOT
BRANCH   5  11
ATOM     11  O   UNL     1       0.391   3.456  20.015  0.00  0.00    +0.000 OA
ATOM     12  H   UNL     1      -0.215   2.692  19.920  0.00  0.00    +0.000 HD
ENDBRANCH   5  11
BRANCH   1  13
ATOM     13  C   UNL     1       5.306   4.766  16.592  0.00  0.00    +0.000 C 
BRANCH  13  14
ATOM     14  C   UNL     1       6.357   5.634  17.300  0.00  0.00    +0.000 A 
ATOM     15  C   UNL     1       6.721   6.920  16.865  0.00  0.00    +0.000 A 
ATOM     16  C   UNL     1       7.651   7.688  17.573  0.00  0.00    +0.000 A 
ATOM     17  C   UNL     1       8.250   7.182  18.722  0.00  0.00    +0.000 A 
ATOM     18  C   UNL     1       7.933   5.897  19.149  0.00  0.00    +0.000 A 
ATOM     19 CL   UNL     1       8.675   5.263  20.565  0.00  0.00    +0.000 Cl
ATOM     20  C   UNL     1       7.010   5.124  18.443  0.00  0.00    +0.000 A 
ENDBRANCH  13  14
BRANCH  13  21
ATOM     21  C   UNL     1       4.989   5.108  15.119  0.00  0.00    +0.000 C 
BRANCH  21  23
ATOM     22  N   UNL     1       6.340   3.654  13.392  0.00  0.00    +0.000 NA
ATOM     23  C   UNL     1       5.733   4.279  14.158  0.00  0.00    +0.000 C 
ENDBRANCH  21  23
ENDBRANCH  13  21
ENDBRANCH   1  13
TORSDOF 5
ENDMDL
MODEL 9
REMARK VINA RESULT:      -7.0      1.171      1.503
REMARK  Name = 
REMARK  5 active torsions:
REMARK  status: ('A' for Active; 'I' for Inactive)
REMARK    1  A    between atoms: C_2  and  C_3
REMARK    2  A    between atoms: C_3  and  C_4
REMARK    3  A    between atoms: C_4  and  C_5
REMARK    4  A    between atoms: C_4  and  C_12
REMARK    5  A    between atoms: C_16  and  O_17
REMARK                            x       y       z     vdW  Elec       q    Type
REMARK                         _______ _______ _______ _____ _____    ______ ____
ROOT
ATOM      1  C   UNL     1       4.252   6.698  17.533  0.00  0.00    +0.000 A 
ATOM      2  C   UNL     1       4.252   7.103  16.112  0.00  0.00    +0.000 A 
ATOM      3  N   UNL     1       5.260   6.706  15.390  0.00  0.00    +0.000 NA
ATOM      4  C   UNL     1       6.021   6.003  16.283  0.00  0.00    +0.000 A 
ATOM      5  C   UNL     1       7.171   5.341  16.101  0.00  0.00    +0.000 A 
ATOM      6  N   UNL     1       7.721   4.704  17.182  0.00  0.00    +0.000 N 
ATOM      7  C   UNL     1       7.087   4.754  18.400  0.00  0.00    +0.000 A 
ATOM      8  N   UNL     1       5.965   5.365  18.669  0.00  0.00    +0.000 NA
ATOM      9  C   UNL     1       5.396   6.010  17.592  0.00  0.00    +0.000 A 
ATOM     10  H   UNL     1       8.578   4.195  17.020  0.00  0.00    +0.000 HD
ENDROOT
BRANCH   5  11
ATOM     11  O   UNL     1       7.811   5.264  14.896  0.00  0.00    +0.000 OA
ATOM     12  H   UNL     1       7.736   4.323  14.635  0.00  0.00    +0.000 HD
ENDBRANCH   5  11
BRANCH   1  13
ATOM     13  C   UNL     1       3.194   6.962  18.553  0.00  0.00    +0.000 C 
BRANCH  13  14
ATOM     14  C   UNL     1       2.548   5.673  19.083  0.00  0.00    +0.000 A 
ATOM     15  C   UNL     1       1.885   5.589  20.319  0.00  0.00    +0.000 A 
ATOM     16  C   UNL     1       1.273   4.402  20.734  0.00  0.00    +0.000 A 
ATOM     17  C   UNL     1       1.325   3.267  19.931  0.00  0.00    +0.000 A 
ATOM     18  C   UNL     1       2.008   3.317  18.721  0.00  0.00    +0.000 A 
ATOM     19 CL   UNL     1       2.081   1.916  17.726  0.00  0.00    +0.000 Cl
ATOM     20  C   UNL     1       2.626   4.498  18.305  0.00  0.00    +0.000 A 
ENDBRANCH  13  14
BRANCH  13  21
ATOM     21  C   UNL     1       2.240   8.074  18.061  0.00  0.00    +0.000 C 
BRANCH  21  23
ATOM     22  N   UNL     1       1.053   9.349  20.033  0.00  0.00    +0.000 NA
ATOM     23  C   UNL     1       1.585   8.804  19.157  0.00  0.00    +0.000 C 
ENDBRANCH  21  23
ENDBRANCH  13  21
ENDBRANCH   1  13
TORSDOF 5
ENDMDL
