MODEL 1
REMARK VINA RESULT:      -7.8      0.000      0.000
REMARK  Name = 
REMARK  7 active torsions:
REMARK  status: ('A' for Active; 'I' for Inactive)
REMARK    1  A    between atoms: C_1  and  O_2
REMARK    2  A    between atoms: O_2  and  C_3
REMARK    3  A    between atoms: C_6  and  C_7
REMARK    4  A    between atoms: C_7  and  N_8
REMARK    5  A    between atoms: N_8  and  C_9
REMARK    6  A    between atoms: C_9  and  C_10
REMARK    7  A    between atoms: C_19  and  C_20
REMARK                            x       y       z     vdW  Elec       q    Type
REMARK                         _______ _______ _______ _____ _____    ______ ____
ROOT
ATOM      1  N   UNL     1       3.016   6.649  18.492  0.00  0.00    +0.000 N 
ATOM      2  C   UNL     1       4.271   6.213  17.928  0.00  0.00    +0.000 C 
ATOM      3  N   UNL     1       4.772   6.787  16.896  0.00  0.00    +0.000 NA
ATOM      4  C   UNL     1       6.054   6.292  16.466  0.00  0.00    +0.000 C 
ATOM      5  C   UNL     1       6.688   5.522  17.634  0.00  0.00    +0.000 C 
ATOM      6  S   UNL     1       5.294   4.920  18.652  0.00  0.00    +0.000 S 
ENDROOT
BRANCH   5   7
ATOM      7  C   UNL     1       7.637   6.373  18.490  0.00  0.00    +0.000 C 
ATOM      8 BR   UNL     1       7.881   8.150  17.732  0.00  0.00    +0.000 Br
ENDBRANCH   5   7
BRANCH   1   9
ATOM      9  C   UNL     1       2.278   7.752  17.853  0.00  0.00    +0.000 C 
BRANCH   9  13
ATOM     10  C   UNL     1       0.726  10.491  20.865  0.00  0.00    +0.000 A 
ATOM     11  C   UNL     1       0.820  10.881  19.514  0.00  0.00    +0.000 A 
ATOM     12  C   UNL     1       1.280   9.983  18.546  0.00  0.00    +0.000 A 
ATOM     13  C   UNL     1       1.669   8.675  18.900  0.00  0.00    +0.000 A 
ATOM     14  C   UNL     1       1.494   8.262  20.229  0.00  0.00    +0.000 A 
ATOM     15  C   UNL     1       1.029   9.160  21.197  0.00  0.00    +0.000 A 
BRANCH  10  17
ATOM     16  C   UNL     1      -0.765  11.262  22.640  0.00  0.00    +0.000 C 
ATOM     17  O   UNL     1       0.381  11.344  21.865  0.00  0.00    +0.000 OA
ENDBRANCH  10  17
ENDBRANCH   9  13
ENDBRANCH   1   9
BRANCH   1  18
ATOM     18  C   UNL     1       2.655   6.177  19.836  0.00  0.00    +0.000 C 
BRANCH  18  19
ATOM     19  C   UNL     1       2.036   4.785  19.883  0.00  0.00    +0.000 A 
ATOM     20  C   UNL     1       1.950   4.010  21.065  0.00  0.00    +0.000 A 
ATOM     21  C   UNL     1       1.426   2.709  21.029  0.00  0.00    +0.000 A 
ATOM     22  C   UNL     1       0.964   2.174  19.826  0.00  0.00    +0.000 A 
ATOM     23  C   UNL     1       1.007   2.933  18.663  0.00  0.00    +0.000 A 
ATOM     24  C   UNL     1       1.553   4.230  18.686  0.00  0.00    +0.000 A 
ENDBRANCH  18  19
ENDBRANCH   1  18
TORSDOF 6
ENDMDL
MODEL 2
REMARK VINA RESULT:      -7.8      0.807      1.271
REMARK  Name = 
REMARK  7 active torsions:
REMARK  status: ('A' for Active; 'I' for Inactive)
REMARK    1  A    between atoms: C_1  and  O_2
REMARK    2  A    between atoms: O_2  and  C_3
REMARK    3  A    between atoms: C_6  and  C_7
REMARK    4  A    between atoms: C_7  and  N_8
REMARK    5  A    between atoms: N_8  and  C_9
REMARK    6  A    between atoms: C_9  and  C_10
REMARK    7  A    between atoms: C_19  and  C_20
REMARK                            x       y       z     vdW  Elec       q    Type
REMARK                         _______ _______ _______ _____ _____    ______ ____
ROOT
ATOM      1  N   UNL     1       3.287   6.485  18.363  0.00  0.00    +0.000 N 
ATOM      2  C   UNL     1       4.612   6.114  17.928  0.00  0.00    +0.000 C 
ATOM      3  N   UNL     1       5.133   6.621  16.871  0.00  0.00    +0.000 NA
ATOM      4  C   UNL     1       6.481   6.209  16.579  0.00  0.00    +0.000 C 
ATOM      5  C   UNL     1       7.097   5.632  17.862  0.00  0.00    +0.000 C 
ATOM      6  S   UNL     1       5.692   5.011  18.854  0.00  0.00    +0.000 S 
ENDROOT
BRANCH   5   7
ATOM      7  C   UNL     1       7.903   6.658  18.673  0.00  0.00    +0.000 C 
ATOM      8 BR   UNL     1       7.983   8.379  17.768  0.00  0.00    +0.000 Br
ENDBRANCH   5   7
BRANCH   1   9
ATOM      9  C   UNL     1       2.501   7.438  17.560  0.00  0.00    +0.000 C 
BRANCH   9  13
ATOM     10  C   UNL     1       0.846  10.657  19.983  0.00  0.00    +0.000 A 
ATOM     11  C   UNL     1       0.961   9.351  20.500  0.00  0.00    +0.000 A 
ATOM     12  C   UNL     1       1.532   8.332  19.731  0.00  0.00    +0.000 A 
ATOM     13  C   UNL     1       1.993   8.584  18.423  0.00  0.00    +0.000 A 
ATOM     14  C   UNL     1       1.955   9.902  17.943  0.00  0.00    +0.000 A 
ATOM     15  C   UNL     1       1.388  10.923  18.715  0.00  0.00    +0.000 A 
BRANCH  10  17
ATOM     16  C   UNL     1      -0.322  12.803  20.057  0.00  0.00    +0.000 C 
ATOM     17  O   UNL     1       0.214  11.666  20.641  0.00  0.00    +0.000 OA
ENDBRANCH  10  17
ENDBRANCH   9  13
ENDBRANCH   1   9
BRANCH   1  18
ATOM     18  C   UNL     1       2.875   6.125  19.727  0.00  0.00    +0.000 C 
BRANCH  18  19
ATOM     19  C   UNL     1       2.157   4.786  19.849  0.00  0.00    +0.000 A 
ATOM     20  C   UNL     1       1.971   4.112  21.080  0.00  0.00    +0.000 A 
ATOM     21  C   UNL     1       1.359   2.850  21.117  0.00  0.00    +0.000 A 
ATOM     22  C   UNL     1       0.907   2.257  19.938  0.00  0.00    +0.000 A 
ATOM     23  C   UNL     1       1.048   2.920  18.725  0.00  0.00    +0.000 A 
ATOM     24  C   UNL     1       1.683   4.175  18.676  0.00  0.00    +0.000 A 
ENDBRANCH  18  19
ENDBRANCH   1  18
TORSDOF 6
ENDMDL
MODEL 3
REMARK VINA RESULT:      -7.7      1.678      2.214
REMARK  Name = 
REMARK  7 active torsions:
REMARK  status: ('A' for Active; 'I' for Inactive)
REMARK    1  A    between atoms: C_1  and  O_2
REMARK    2  A    between atoms: O_2  and  C_3
REMARK    3  A    between atoms: C_6  and  C_7
REMARK    4  A    between atoms: C_7  and  N_8
REMARK    5  A    between atoms: N_8  and  C_9
REMARK    6  A    between atoms: C_9  and  C_10
REMARK    7  A    between atoms: C_19  and  C_20
REMARK                            x       y       z     vdW  Elec       q    Type
REMARK                         _______ _______ _______ _____ _____    ______ ____
ROOT
ATOM      1  N   UNL     1       3.133   6.174  18.407  0.00  0.00    +0.000 N 
ATOM      2  C   UNL     1       4.344   6.273  17.629  0.00  0.00    +0.000 C 
ATOM      3  N   UNL     1       5.269   7.105  17.940  0.00  0.00    +0.000 NA
ATOM      4  C   UNL     1       6.449   7.066  17.116  0.00  0.00    +0.000 C 
ATOM      5  C   UNL     1       6.472   5.722  16.373  0.00  0.00    +0.000 C 
ATOM      6  S   UNL     1       4.727   5.196  16.237  0.00  0.00    +0.000 S 
ENDROOT
BRANCH   5   7
ATOM      7  C   UNL     1       7.296   4.639  17.086  0.00  0.00    +0.000 C 
ATOM      8 BR   UNL     1       7.904   5.240  18.835  0.00  0.00    +0.000 Br
ENDBRANCH   5   7
BRANCH   1   9
ATOM      9  C   UNL     1       2.937   7.068  19.561  0.00  0.00    +0.000 C 
BRANCH   9  13
ATOM     10  C   UNL     1      -0.021  10.118  18.598  0.00  0.00    +0.000 A 
ATOM     11  C   UNL     1       0.201   9.724  19.933  0.00  0.00    +0.000 A 
ATOM     12  C   UNL     1       1.182   8.775  20.238  0.00  0.00    +0.000 A 
ATOM     13  C   UNL     1       1.959   8.185  19.221  0.00  0.00    +0.000 A 
ATOM     14  C   UNL     1       1.795   8.640  17.904  0.00  0.00    +0.000 A 
ATOM     15  C   UNL     1       0.817   9.595  17.599  0.00  0.00    +0.000 A 
BRANCH  10  17
ATOM     16  C   UNL     1      -1.844  11.670  19.087  0.00  0.00    +0.000 C 
ATOM     17  O   UNL     1      -1.020  10.961  18.226  0.00  0.00    +0.000 OA
ENDBRANCH  10  17
ENDBRANCH   9  13
ENDBRANCH   1   9
BRANCH   1  18
ATOM     18  C   UNL     1       2.266   5.005  18.200  0.00  0.00    +0.000 C 
BRANCH  18  19
ATOM     19  C   UNL     1       2.201   4.038  19.376  0.00  0.00    +0.000 A 
ATOM     20  C   UNL     1       1.033   3.827  20.148  0.00  0.00    +0.000 A 
ATOM     21  C   UNL     1       1.056   2.971  21.259  0.00  0.00    +0.000 A 
ATOM     22  C   UNL     1       2.231   2.300  21.601  0.00  0.00    +0.000 A 
ATOM     23  C   UNL     1       3.378   2.467  20.834  0.00  0.00    +0.000 A 
ATOM     24  C   UNL     1       3.369   3.342  19.732  0.00  0.00    +0.000 A 
ENDBRANCH  18  19
ENDBRANCH   1  18
TORSDOF 6
ENDMDL
MODEL 4
REMARK VINA RESULT:      -7.7      1.641      2.142
REMARK  Name = 
REMARK  7 active torsions:
REMARK  status: ('A' for Active; 'I' for Inactive)
REMARK    1  A    between atoms: C_1  and  O_2
REMARK    2  A    between atoms: O_2  and  C_3
REMARK    3  A    between atoms: C_6  and  C_7
REMARK    4  A    between atoms: C_7  and  N_8
REMARK    5  A    between atoms: N_8  and  C_9
REMARK    6  A    between atoms: C_9  and  C_10
REMARK    7  A    between atoms: C_19  and  C_20
REMARK                            x       y       z     vdW  Elec       q    Type
REMARK                         _______ _______ _______ _____ _____    ______ ____
ROOT
ATOM      1  N   UNL     1       3.175   6.139  18.381  0.00  0.00    +0.000 N 
ATOM      2  C   UNL     1       4.377   6.234  17.588  0.00  0.00    +0.000 C 
ATOM      3  N   UNL     1       5.309   7.062  17.888  0.00  0.00    +0.000 NA
ATOM      4  C   UNL     1       6.478   7.019  17.049  0.00  0.00    +0.000 C 
ATOM      5  C   UNL     1       6.487   5.676  16.305  0.00  0.00    +0.000 C 
ATOM      6  S   UNL     1       4.737   5.157  16.191  0.00  0.00    +0.000 S 
ENDROOT
BRANCH   5   7
ATOM      7  C   UNL     1       7.315   4.589  17.006  0.00  0.00    +0.000 C 
ATOM      8 BR   UNL     1       7.907   5.168  18.768  0.00  0.00    +0.000 Br
ENDBRANCH   5   7
BRANCH   1   9
ATOM      9  C   UNL     1       2.996   7.033  19.538  0.00  0.00    +0.000 C 
BRANCH   9  13
ATOM     10  C   UNL     1       0.203  10.262  18.675  0.00  0.00    +0.000 A 
ATOM     11  C   UNL     1       0.954   9.663  17.644  0.00  0.00    +0.000 A 
ATOM     12  C   UNL     1       1.818   8.599  17.923  0.00  0.00    +0.000 A 
ATOM     13  C   UNL     1       1.965   8.111  19.236  0.00  0.00    +0.000 A 
ATOM     14  C   UNL     1       1.154   8.652  20.245  0.00  0.00    +0.000 A 
ATOM     15  C   UNL     1       0.285   9.714  19.966  0.00  0.00    +0.000 A 
BRANCH  10  17
ATOM     16  C   UNL     1      -1.837  11.368  17.909  0.00  0.00    +0.000 C 
ATOM     17  O   UNL     1      -0.577  11.359  18.487  0.00  0.00    +0.000 OA
ENDBRANCH  10  17
ENDBRANCH   9  13
ENDBRANCH   1   9
BRANCH   1  18
ATOM     18  C   UNL     1       2.301   4.973  18.184  0.00  0.00    +0.000 C 
BRANCH  18  19
ATOM     19  C   UNL     1       2.225   4.020  19.370  0.00  0.00    +0.000 A 
ATOM     20  C   UNL     1       1.052   3.823  20.137  0.00  0.00    +0.000 A 
ATOM     21  C   UNL     1       1.065   2.979  21.258  0.00  0.00    +0.000 A 
ATOM     22  C   UNL     1       2.235   2.307  21.615  0.00  0.00    +0.000 A 
ATOM     23  C   UNL     1       3.387   2.460  20.853  0.00  0.00    +0.000 A 
ATOM     24  C   UNL     1       3.388   3.323  19.741  0.00  0.00    +0.000 A 
ENDBRANCH  18  19
ENDBRANCH   1  18
TORSDOF 6
ENDMDL
MODEL 5
REMARK VINA RESULT:      -7.7      0.363      1.045
REMARK  Name = 
REMARK  7 active torsions:
REMARK  status: ('A' for Active; 'I' for Inactive)
REMARK    1  A    between atoms: C_1  and  O_2
REMARK    2  A    between atoms: O_2  and  C_3
REMARK    3  A    between atoms: C_6  and  C_7
REMARK    4  A    between atoms: C_7  and  N_8
REMARK    5  A    between atoms: N_8  and  C_9
REMARK    6  A    between atoms: C_9  and  C_10
REMARK    7  A    between atoms: C_19  and  C_20
REMARK                            x       y       z     vdW  Elec       q    Type
REMARK                         _______ _______ _______ _____ _____    ______ ____
ROOT
ATOM      1  N   UNL     1       3.233   6.575  18.506  0.00  0.00    +0.000 N 
ATOM      2  C   UNL     1       4.522   6.251  17.944  0.00  0.00    +0.000 C 
ATOM      3  N   UNL     1       5.002   6.911  16.954  0.00  0.00    +0.000 NA
ATOM      4  C   UNL     1       6.320   6.523  16.524  0.00  0.00    +0.000 C 
ATOM      5  C   UNL     1       6.984   5.734  17.662  0.00  0.00    +0.000 C 
ATOM      6  S   UNL     1       5.616   4.991  18.619  0.00  0.00    +0.000 S 
ENDROOT
BRANCH   5   7
ATOM      7  C   UNL     1       7.861   6.599  18.580  0.00  0.00    +0.000 C 
ATOM      8 BR   UNL     1       8.064   8.404  17.881  0.00  0.00    +0.000 Br
ENDBRANCH   5   7
BRANCH   1   9
ATOM      9  C   UNL     1       2.434   7.660  17.911  0.00  0.00    +0.000 C 
BRANCH   9  13
ATOM     10  C   UNL     1       0.768  10.209  21.026  0.00  0.00    +0.000 A 
ATOM     11  C   UNL     1       0.823  10.647  19.688  0.00  0.00    +0.000 A 
ATOM     12  C   UNL     1       1.321   9.807  18.687  0.00  0.00    +0.000 A 
ATOM     13  C   UNL     1       1.787   8.513  18.993  0.00  0.00    +0.000 A 
ATOM     14  C   UNL     1       1.653   8.048  20.310  0.00  0.00    +0.000 A 
ATOM     15  C   UNL     1       1.149   8.887  21.312  0.00  0.00    +0.000 A 
BRANCH  10  17
ATOM     16  C   UNL     1      -0.431  12.123  21.958  0.00  0.00    +0.000 C 
ATOM     17  O   UNL     1       0.387  11.008  22.057  0.00  0.00    +0.000 OA
ENDBRANCH  10  17
ENDBRANCH   9  13
ENDBRANCH   1   9
BRANCH   1  18
ATOM     18  C   UNL     1       2.882   6.009  19.816  0.00  0.00    +0.000 C 
BRANCH  18  19
ATOM     19  C   UNL     1       2.188   4.652  19.764  0.00  0.00    +0.000 A 
ATOM     20  C   UNL     1       1.811   4.016  18.557  0.00  0.00    +0.000 A 
ATOM     21  C   UNL     1       1.118   2.797  18.580  0.00  0.00    +0.000 A 
ATOM     22  C   UNL     1       0.810   2.189  19.797  0.00  0.00    +0.000 A 
ATOM     23  C   UNL     1       1.204   2.780  20.991  0.00  0.00    +0.000 A 
ATOM     24  C   UNL     1       1.880   4.015  20.978  0.00  0.00    +0.000 A 
ENDBRANCH  18  19
ENDBRANCH   1  18
TORSDOF 6
ENDMDL
MODEL 6
REMARK VINA RESULT:      -7.7      0.767      1.580
REMARK  Name = 
REMARK  7 active torsions:
REMARK  status: ('A' for Active; 'I' for Inactive)
REMARK    1  A    between atoms: C_1  and  O_2
REMARK    2  A    between atoms: O_2  and  C_3
REMARK    3  A    between atoms: C_6  and  C_7
REMARK    4  A    between atoms: C_7  and  N_8
REMARK    5  A    between atoms: N_8  and  C_9
REMARK    6  A    between atoms: C_9  and  C_10
REMARK    7  A    between atoms: C_19  and  C_20
REMARK                            x       y       z     vdW  Elec       q    Type
REMARK                         _______ _______ _______ _____ _____    ______ ____
ROOT
ATOM      1  N   UNL     1       3.393   6.466  18.327  0.00  0.00    +0.000 N 
ATOM      2  C   UNL     1       4.733   6.166  17.883  0.00  0.00    +0.000 C 
ATOM      3  N   UNL     1       5.237   6.739  16.852  0.00  0.00    +0.000 NA
ATOM      4  C   UNL     1       6.600   6.392  16.547  0.00  0.00    +0.000 C 
ATOM      5  C   UNL     1       7.234   5.782  17.807  0.00  0.00    +0.000 C 
ATOM      6  S   UNL     1       5.851   5.064  18.763  0.00  0.00    +0.000 S 
ENDROOT
BRANCH   5   7
ATOM      7  C   UNL     1       7.998   6.800  18.666  0.00  0.00    +0.000 C 
ATOM      8 BR   UNL     1       8.076   8.545  17.806  0.00  0.00    +0.000 Br
ENDBRANCH   5   7
BRANCH   1   9
ATOM      9  C   UNL     1       2.573   7.423  17.564  0.00  0.00    +0.000 C 
BRANCH   9  13
ATOM     10  C   UNL     1       0.822  10.491  20.113  0.00  0.00    +0.000 A 
ATOM     11  C   UNL     1       0.971   9.168  20.575  0.00  0.00    +0.000 A 
ATOM     12  C   UNL     1       1.572   8.198  19.766  0.00  0.00    +0.000 A 
ATOM     13  C   UNL     1       2.031   8.518  18.472  0.00  0.00    +0.000 A 
ATOM     14  C   UNL     1       1.959   9.854  18.048  0.00  0.00    +0.000 A 
ATOM     15  C   UNL     1       1.361  10.826  18.860  0.00  0.00    +0.000 A 
BRANCH  10  17
ATOM     16  C   UNL     1       0.519  12.790  20.884  0.00  0.00    +0.000 C 
ATOM     17  O   UNL     1       0.161  11.453  20.809  0.00  0.00    +0.000 OA
ENDBRANCH  10  17
ENDBRANCH   9  13
ENDBRANCH   1   9
BRANCH   1  18
ATOM     18  C   UNL     1       2.990   6.031  19.672  0.00  0.00    +0.000 C 
BRANCH  18  19
ATOM     19  C   UNL     1       2.253   4.698  19.721  0.00  0.00    +0.000 A 
ATOM     20  C   UNL     1       1.831   3.998  18.565  0.00  0.00    +0.000 A 
ATOM     21  C   UNL     1       1.098   2.807  18.679  0.00  0.00    +0.000 A 
ATOM     22  C   UNL     1       0.797   2.289  19.939  0.00  0.00    +0.000 A 
ATOM     23  C   UNL     1       1.234   2.943  21.085  0.00  0.00    +0.000 A 
ATOM     24  C   UNL     1       1.949   4.151  20.979  0.00  0.00    +0.000 A 
ENDBRANCH  18  19
ENDBRANCH   1  18
TORSDOF 6
ENDMDL
MODEL 7
REMARK VINA RESULT:      -7.7      2.024      4.538
REMARK  Name = 
REMARK  7 active torsions:
REMARK  status: ('A' for Active; 'I' for Inactive)
REMARK    1  A    between atoms: C_1  and  O_2
REMARK    2  A    between atoms: O_2  and  C_3
REMARK    3  A    between atoms: C_6  and  C_7
REMARK    4  A    between atoms: C_7  and  N_8
REMARK    5  A    between atoms: N_8  and  C_9
REMARK    6  A    between atoms: C_9  and  C_10
REMARK    7  A    between atoms: C_19  and  C_20
REMARK                            x       y       z     vdW  Elec       q    Type
REMARK                         _______ _______ _______ _____ _____    ______ ____
ROOT
ATOM      1  N   UNL     1       3.103   5.955  19.119  0.00  0.00    +0.000 N 
ATOM      2  C   UNL     1       2.411   4.746  19.497  0.00  0.00    +0.000 C 
ATOM      3  N   UNL     1       1.185   4.552  19.174  0.00  0.00    +0.000 NA
ATOM      4  C   UNL     1       0.629   3.283  19.564  0.00  0.00    +0.000 C 
ATOM      5  C   UNL     1       1.789   2.318  19.853  0.00  0.00    +0.000 C 
ATOM      6  S   UNL     1       3.201   3.369  20.346  0.00  0.00    +0.000 S 
ENDROOT
BRANCH   5   7
ATOM      7  C   UNL     1       2.176   1.444  18.652  0.00  0.00    +0.000 C 
ATOM      8 BR   UNL     1       3.962   1.871  18.004  0.00  0.00    +0.000 Br
ENDBRANCH   5   7
BRANCH   1   9
ATOM      9  C   UNL     1       2.380   7.004  18.380  0.00  0.00    +0.000 C 
BRANCH   9  13
ATOM     10  C   UNL     1       0.613   9.916  21.094  0.00  0.00    +0.000 A 
ATOM     11  C   UNL     1       1.079   8.675  21.572  0.00  0.00    +0.000 A 
ATOM     12  C   UNL     1       1.683   7.762  20.701  0.00  0.00    +0.000 A 
ATOM     13  C   UNL     1       1.829   8.057  19.331  0.00  0.00    +0.000 A 
ATOM     14  C   UNL     1       1.442   9.326  18.875  0.00  0.00    +0.000 A 
ATOM     15  C   UNL     1       0.842  10.242  19.747  0.00  0.00    +0.000 A 
BRANCH  10  17
ATOM     16  C   UNL     1      -0.821  10.491  22.988  0.00  0.00    +0.000 C 
ATOM     17  O   UNL     1      -0.068  10.803  21.867  0.00  0.00    +0.000 OA
ENDBRANCH  10  17
ENDBRANCH   9  13
ENDBRANCH   1   9
BRANCH   1  18
ATOM     18  C   UNL     1       4.568   5.984  19.233  0.00  0.00    +0.000 C 
BRANCH  18  19
ATOM     19  C   UNL     1       5.318   5.532  17.986  0.00  0.00    +0.000 A 
ATOM     20  C   UNL     1       4.776   5.606  16.681  0.00  0.00    +0.000 A 
ATOM     21  C   UNL     1       5.492   5.113  15.580  0.00  0.00    +0.000 A 
ATOM     22  C   UNL     1       6.761   4.562  15.762  0.00  0.00    +0.000 A 
ATOM     23  C   UNL     1       7.325   4.513  17.031  0.00  0.00    +0.000 A 
ATOM     24  C   UNL     1       6.603   4.984  18.143  0.00  0.00    +0.000 A 
ENDBRANCH  18  19
ENDBRANCH   1  18
TORSDOF 6
ENDMDL
MODEL 8
REMARK VINA RESULT:      -7.6      1.946      4.398
REMARK  Name = 
REMARK  7 active torsions:
REMARK  status: ('A' for Active; 'I' for Inactive)
REMARK    1  A    between atoms: C_1  and  O_2
REMARK    2  A    between atoms: O_2  and  C_3
REMARK    3  A    between atoms: C_6  and  C_7
REMARK    4  A    between atoms: C_7  and  N_8
REMARK    5  A    between atoms: N_8  and  C_9
REMARK    6  A    between atoms: C_9  and  C_10
REMARK    7  A    between atoms: C_19  and  C_20
REMARK                            x       y       z     vdW  Elec       q    Type
REMARK                         _______ _______ _______ _____ _____    ______ ____
ROOT
ATOM      1  N   UNL     1       3.171   6.075  19.040  0.00  0.00    +0.000 N 
ATOM      2  C   UNL     1       2.515   4.846  19.419  0.00  0.00    +0.000 C 
ATOM      3  N   UNL     1       1.293   4.619  19.102  0.00  0.00    +0.000 NA
ATOM      4  C   UNL     1       0.775   3.334  19.492  0.00  0.00    +0.000 C 
ATOM      5  C   UNL     1       1.963   2.401  19.773  0.00  0.00    +0.000 C 
ATOM      6  S   UNL     1       3.348   3.491  20.261  0.00  0.00    +0.000 S 
ENDROOT
BRANCH   5   7
ATOM      7  C   UNL     1       2.368   1.540  18.568  0.00  0.00    +0.000 C 
ATOM      8 BR   UNL     1       3.891   2.303  17.625  0.00  0.00    +0.000 Br
ENDBRANCH   5   7
BRANCH   1   9
ATOM      9  C   UNL     1       2.415   7.104  18.306  0.00  0.00    +0.000 C 
BRANCH   9  13
ATOM     10  C   UNL     1       0.815  10.082  21.053  0.00  0.00    +0.000 A 
ATOM     11  C   UNL     1       0.837  10.320  19.664  0.00  0.00    +0.000 A 
ATOM     12  C   UNL     1       1.314   9.342  18.785  0.00  0.00    +0.000 A 
ATOM     13  C   UNL     1       1.791   8.107  19.266  0.00  0.00    +0.000 A 
ATOM     14  C   UNL     1       1.688   7.840  20.640  0.00  0.00    +0.000 A 
ATOM     15  C   UNL     1       1.206   8.816  21.520  0.00  0.00    +0.000 A 
BRANCH  10  17
ATOM     16  C   UNL     1      -0.140  12.243  21.678  0.00  0.00    +0.000 C 
ATOM     17  O   UNL     1       0.456  11.024  21.964  0.00  0.00    +0.000 OA
ENDBRANCH  10  17
ENDBRANCH   9  13
ENDBRANCH   1   9
BRANCH   1  18
ATOM     18  C   UNL     1       4.636   6.144  19.146  0.00  0.00    +0.000 C 
BRANCH  18  19
ATOM     19  C   UNL     1       5.392   5.677  17.908  0.00  0.00    +0.000 A 
ATOM     20  C   UNL     1       4.916   5.862  16.589  0.00  0.00    +0.000 A 
ATOM     21  C   UNL     1       5.629   5.351  15.494  0.00  0.00    +0.000 A 
ATOM     22  C   UNL     1       6.830   4.671  15.697  0.00  0.00    +0.000 A 
ATOM     23  C   UNL     1       7.332   4.511  16.983  0.00  0.00    +0.000 A 
ATOM     24  C   UNL     1       6.611   5.000  18.088  0.00  0.00    +0.000 A 
ENDBRANCH  18  19
ENDBRANCH   1  18
TORSDOF 6
ENDMDL
MODEL 9
REMARK VINA RESULT:      -7.6      1.957      4.447
REMARK  Name = 
REMARK  7 active torsions:
REMARK  status: ('A' for Active; 'I' for Inactive)
REMARK    1  A    between atoms: C_1  and  O_2
REMARK    2  A    between atoms: O_2  and  C_3
REMARK    3  A    between atoms: C_6  and  C_7
REMARK    4  A    between atoms: C_7  and  N_8
REMARK    5  A    between atoms: N_8  and  C_9
REMARK    6  A    between atoms: C_9  and  C_10
REMARK    7  A    between atoms: C_19  and  C_20
REMARK                            x       y       z     vdW  Elec       q    Type
REMARK                         _______ _______ _______ _____ _____    ______ ____
ROOT
ATOM      1  N   UNL     1       3.187   6.044  19.035  0.00  0.00    +0.000 N 
ATOM      2  C   UNL     1       2.520   4.830  19.440  0.00  0.00    +0.000 C 
ATOM      3  N   UNL     1       1.291   4.614  19.141  0.00  0.00    +0.000 NA
ATOM      4  C   UNL     1       0.761   3.341  19.557  0.00  0.00    +0.000 C 
ATOM      5  C   UNL     1       1.940   2.398  19.838  0.00  0.00    +0.000 C 
ATOM      6  S   UNL     1       3.345   3.476  20.293  0.00  0.00    +0.000 S 
ENDROOT
BRANCH   5   7
ATOM      7  C   UNL     1       2.320   1.513  18.641  0.00  0.00    +0.000 C 
ATOM      8 BR   UNL     1       3.818   2.261  17.648  0.00  0.00    +0.000 Br
ENDBRANCH   5   7
BRANCH   1   9
ATOM      9  C   UNL     1       2.436   7.072  18.295  0.00  0.00    +0.000 C 
BRANCH   9  13
ATOM     10  C   UNL     1       0.530   9.891  21.014  0.00  0.00    +0.000 A 
ATOM     11  C   UNL     1       1.057   8.674  21.489  0.00  0.00    +0.000 A 
ATOM     12  C   UNL     1       1.704   7.793  20.617  0.00  0.00    +0.000 A 
ATOM     13  C   UNL     1       1.834   8.096  19.247  0.00  0.00    +0.000 A 
ATOM     14  C   UNL     1       1.385   9.345  18.793  0.00  0.00    +0.000 A 
ATOM     15  C   UNL     1       0.741  10.229  19.667  0.00  0.00    +0.000 A 
BRANCH  10  17
ATOM     16  C   UNL     1      -0.748  10.444  23.022  0.00  0.00    +0.000 C 
ATOM     17  O   UNL     1      -0.193  10.743  21.787  0.00  0.00    +0.000 OA
ENDBRANCH  10  17
ENDBRANCH   9  13
ENDBRANCH   1   9
BRANCH   1  18
ATOM     18  C   UNL     1       4.653   6.096  19.123  0.00  0.00    +0.000 C 
BRANCH  18  19
ATOM     19  C   UNL     1       5.389   5.596  17.886  0.00  0.00    +0.000 A 
ATOM     20  C   UNL     1       6.610   4.882  17.941  0.00  0.00    +0.000 A 
ATOM     21  C   UNL     1       7.271   4.506  16.763  0.00  0.00    +0.000 A 
ATOM     22  C   UNL     1       6.717   4.816  15.520  0.00  0.00    +0.000 A 
ATOM     23  C   UNL     1       5.501   5.484  15.446  0.00  0.00    +0.000 A 
ATOM     24  C   UNL     1       4.843   5.886  16.624  0.00  0.00    +0.000 A 
ENDBRANCH  18  19
ENDBRANCH   1  18
TORSDOF 6
ENDMDL
