MODEL 1
REMARK VINA RESULT:      -8.1      0.000      0.000
REMARK  Name = 
REMARK  2 active torsions:
REMARK  status: ('A' for Active; 'I' for Inactive)
REMARK    1  A    between atoms: C_7  and  C_8
REMARK    2  A    between atoms: C_11  and  O_12
REMARK                            x       y       z     vdW  Elec       q    Type
REMARK                         _______ _______ _______ _____ _____    ______ ____
ROOT
ATOM      1  O   UNL     1       0.834   2.358  22.708  0.00  0.00    +0.000 OA
ATOM      2  C   UNL     1       1.583   2.578  21.756  0.00  0.00    +0.000 C 
ATOM      3  C   UNL     1       1.101   3.288  20.515  0.00  0.00    +0.000 C 
ATOM      4  C   UNL     1       2.170   3.643  19.523  0.00  0.00    +0.000 A 
ATOM      5  C   UNL     1       1.847   4.426  18.412  0.00  0.00    +0.000 A 
ATOM      6  C   UNL     1       2.818   4.731  17.456  0.00  0.00    +0.000 A 
ATOM      7  C   UNL     1       4.142   4.271  17.574  0.00  0.00    +0.000 A 
ATOM      8  C   UNL     1       4.452   3.490  18.701  0.00  0.00    +0.000 A 
ATOM      9  C   UNL     1       3.479   3.178  19.661  0.00  0.00    +0.000 A 
ATOM     10  C   UNL     1       3.858   2.365  20.836  0.00  0.00    +0.000 C 
ATOM     11  O   UNL     1       4.988   1.912  20.971  0.00  0.00    +0.000 OA
ATOM     12  N   UNL     1       2.883   2.152  21.781  0.00  0.00    +0.000 N 
ATOM     13  H   UNL     1       3.171   1.645  22.607  0.00  0.00    +0.000 HD
ENDROOT
BRANCH   7  14
ATOM     14  C   UNL     1       5.161   4.593  16.548  0.00  0.00    +0.000 A 
ATOM     15  C   UNL     1       5.139   3.981  15.279  0.00  0.00    +0.000 A 
ATOM     16  C   UNL     1       6.112   4.255  14.316  0.00  0.00    +0.000 A 
ATOM     17  C   UNL     1       7.118   5.165  14.604  0.00  0.00    +0.000 A 
ATOM     18  C   UNL     1       7.164   5.801  15.836  0.00  0.00    +0.000 A 
ATOM     19  C   UNL     1       6.197   5.512  16.801  0.00  0.00    +0.000 A 
BRANCH  17  20
ATOM     20  O   UNL     1       8.089   5.462  13.697  0.00  0.00    +0.000 OA
ATOM     21  H   UNL     1       7.783   6.202  13.148  0.00  0.00    +0.000 HD
ENDBRANCH  17  20
ENDBRANCH   7  14
TORSDOF 2
ENDMDL
MODEL 2
REMARK VINA RESULT:      -8.0      0.098      1.107
REMARK  Name = 
REMARK  2 active torsions:
REMARK  status: ('A' for Active; 'I' for Inactive)
REMARK    1  A    between atoms: C_7  and  C_8
REMARK    2  A    between atoms: C_11  and  O_12
REMARK                            x       y       z     vdW  Elec       q    Type
REMARK                         _______ _______ _______ _____ _____    ______ ____
ROOT
ATOM      1  O   UNL     1       0.884   2.472  22.709  0.00  0.00    +0.000 OA
ATOM      2  C   UNL     1       1.634   2.666  21.753  0.00  0.00    +0.000 C 
ATOM      3  C   UNL     1       1.164   3.376  20.508  0.00  0.00    +0.000 C 
ATOM      4  C   UNL     1       2.237   3.698  19.510  0.00  0.00    +0.000 A 
ATOM      5  C   UNL     1       1.929   4.480  18.393  0.00  0.00    +0.000 A 
ATOM      6  C   UNL     1       2.903   4.754  17.431  0.00  0.00    +0.000 A 
ATOM      7  C   UNL     1       4.217   4.264  17.549  0.00  0.00    +0.000 A 
ATOM      8  C   UNL     1       4.512   3.486  18.681  0.00  0.00    +0.000 A 
ATOM      9  C   UNL     1       3.536   3.204  19.647  0.00  0.00    +0.000 A 
ATOM     10  C   UNL     1       3.900   2.392  20.828  0.00  0.00    +0.000 C 
ATOM     11  O   UNL     1       5.020   1.915  20.963  0.00  0.00    +0.000 OA
ATOM     12  N   UNL     1       2.924   2.211  21.778  0.00  0.00    +0.000 N 
ATOM     13  H   UNL     1       3.203   1.703  22.607  0.00  0.00    +0.000 HD
ENDROOT
BRANCH   7  14
ATOM     14  C   UNL     1       5.239   4.553  16.516  0.00  0.00    +0.000 A 
ATOM     15  C   UNL     1       6.328   5.406  16.786  0.00  0.00    +0.000 A 
ATOM     16  C   UNL     1       7.281   5.708  15.811  0.00  0.00    +0.000 A 
ATOM     17  C   UNL     1       7.167   5.144  14.549  0.00  0.00    +0.000 A 
ATOM     18  C   UNL     1       6.119   4.285  14.251  0.00  0.00    +0.000 A 
ATOM     19  C   UNL     1       5.160   3.999  15.226  0.00  0.00    +0.000 A 
BRANCH  17  20
ATOM     20  O   UNL     1       8.071   5.412  13.567  0.00  0.00    +0.000 OA
ATOM     21  H   UNL     1       8.947   5.115  13.864  0.00  0.00    +0.000 HD
ENDBRANCH  17  20
ENDBRANCH   7  14
TORSDOF 2
ENDMDL
MODEL 3
REMARK VINA RESULT:      -7.7      4.202      5.658
REMARK  Name = 
REMARK  2 active torsions:
REMARK  status: ('A' for Active; 'I' for Inactive)
REMARK    1  A    between atoms: C_7  and  C_8
REMARK    2  A    between atoms: C_11  and  O_12
REMARK                            x       y       z     vdW  Elec       q    Type
REMARK                         _______ _______ _______ _____ _____    ______ ____
ROOT
ATOM      1  O   UNL     1       5.170   1.085  20.410  0.00  0.00    +0.000 OA
ATOM      2  C   UNL     1       4.700   2.181  20.107  0.00  0.00    +0.000 C 
ATOM      3  C   UNL     1       3.368   2.648  20.641  0.00  0.00    +0.000 C 
ATOM      4  C   UNL     1       3.015   4.072  20.329  0.00  0.00    +0.000 A 
ATOM      5  C   UNL     1       1.873   4.641  20.899  0.00  0.00    +0.000 A 
ATOM      6  C   UNL     1       1.505   5.952  20.587  0.00  0.00    +0.000 A 
ATOM      7  C   UNL     1       2.262   6.741  19.703  0.00  0.00    +0.000 A 
ATOM      8  C   UNL     1       3.412   6.157  19.144  0.00  0.00    +0.000 A 
ATOM      9  C   UNL     1       3.782   4.840  19.450  0.00  0.00    +0.000 A 
ATOM     10  C   UNL     1       5.008   4.275  18.848  0.00  0.00    +0.000 C 
ATOM     11  O   UNL     1       5.685   4.908  18.047  0.00  0.00    +0.000 OA
ATOM     12  N   UNL     1       5.363   3.007  19.241  0.00  0.00    +0.000 N 
ATOM     13  H   UNL     1       6.233   2.655  18.867  0.00  0.00    +0.000 HD
ENDROOT
BRANCH   7  14
ATOM     14  C   UNL     1       1.856   8.127  19.372  0.00  0.00    +0.000 A 
ATOM     15  C   UNL     1       1.155   8.924  20.299  0.00  0.00    +0.000 A 
ATOM     16  C   UNL     1       0.743  10.221  19.986  0.00  0.00    +0.000 A 
ATOM     17  C   UNL     1       1.043  10.749  18.739  0.00  0.00    +0.000 A 
ATOM     18  C   UNL     1       1.747  10.002  17.806  0.00  0.00    +0.000 A 
ATOM     19  C   UNL     1       2.143   8.700  18.119  0.00  0.00    +0.000 A 
BRANCH  17  20
ATOM     20  O   UNL     1       0.659  12.008  18.390  0.00  0.00    +0.000 OA
ATOM     21  H   UNL     1       0.382  12.480  19.192  0.00  0.00    +0.000 HD
ENDBRANCH  17  20
ENDBRANCH   7  14
TORSDOF 2
ENDMDL
MODEL 4
REMARK VINA RESULT:      -7.6      4.217      5.637
REMARK  Name = 
REMARK  2 active torsions:
REMARK  status: ('A' for Active; 'I' for Inactive)
REMARK    1  A    between atoms: C_7  and  C_8
REMARK    2  A    between atoms: C_11  and  O_12
REMARK                            x       y       z     vdW  Elec       q    Type
REMARK                         _______ _______ _______ _____ _____    ______ ____
ROOT
ATOM      1  O   UNL     1       5.153   1.115  20.407  0.00  0.00    +0.000 OA
ATOM      2  C   UNL     1       4.672   2.207  20.105  0.00  0.00    +0.000 C 
ATOM      3  C   UNL     1       3.356   2.678  20.673  0.00  0.00    +0.000 C 
ATOM      4  C   UNL     1       2.992   4.098  20.355  0.00  0.00    +0.000 A 
ATOM      5  C   UNL     1       1.866   4.672  20.951  0.00  0.00    +0.000 A 
ATOM      6  C   UNL     1       1.487   5.979  20.635  0.00  0.00    +0.000 A 
ATOM      7  C   UNL     1       2.217   6.759  19.720  0.00  0.00    +0.000 A 
ATOM      8  C   UNL     1       3.350   6.170  19.134  0.00  0.00    +0.000 A 
ATOM      9  C   UNL     1       3.731   4.857  19.445  0.00  0.00    +0.000 A 
ATOM     10  C   UNL     1       4.940   4.286  18.813  0.00  0.00    +0.000 C 
ATOM     11  O   UNL     1       5.592   4.910  17.985  0.00  0.00    +0.000 OA
ATOM     12  N   UNL     1       5.308   3.023  19.211  0.00  0.00    +0.000 N 
ATOM     13  H   UNL     1       6.168   2.668  18.815  0.00  0.00    +0.000 HD
ENDROOT
BRANCH   7  14
ATOM     14  C   UNL     1       1.799   8.141  19.385  0.00  0.00    +0.000 A 
ATOM     15  C   UNL     1       2.132   8.724  18.146  0.00  0.00    +0.000 A 
ATOM     16  C   UNL     1       1.769  10.036  17.833  0.00  0.00    +0.000 A 
ATOM     17  C   UNL     1       1.047  10.781  18.754  0.00  0.00    +0.000 A 
ATOM     18  C   UNL     1       0.686  10.235  19.976  0.00  0.00    +0.000 A 
ATOM     19  C   UNL     1       1.065   8.928  20.290  0.00  0.00    +0.000 A 
BRANCH  17  20
ATOM     20  O   UNL     1       0.674  12.064  18.492  0.00  0.00    +0.000 OA
ATOM     21  H   UNL     1       0.259  12.433  19.289  0.00  0.00    +0.000 HD
ENDBRANCH  17  20
ENDBRANCH   7  14
TORSDOF 2
ENDMDL
MODEL 5
REMARK VINA RESULT:      -7.5      4.330      6.558
REMARK  Name = 
REMARK  2 active torsions:
REMARK  status: ('A' for Active; 'I' for Inactive)
REMARK    1  A    between atoms: C_7  and  C_8
REMARK    2  A    between atoms: C_11  and  O_12
REMARK                            x       y       z     vdW  Elec       q    Type
REMARK                         _______ _______ _______ _____ _____    ______ ____
ROOT
ATOM      1  O   UNL     1       3.755   1.186  18.412  0.00  0.00    +0.000 OA
ATOM      2  C   UNL     1       3.431   2.279  18.876  0.00  0.00    +0.000 C 
ATOM      3  C   UNL     1       3.608   3.556  18.094  0.00  0.00    +0.000 C 
ATOM      4  C   UNL     1       3.001   4.779  18.717  0.00  0.00    +0.000 A 
ATOM      5  C   UNL     1       2.985   5.981  18.004  0.00  0.00    +0.000 A 
ATOM      6  C   UNL     1       2.464   7.140  18.584  0.00  0.00    +0.000 A 
ATOM      7  C   UNL     1       1.937   7.141  19.888  0.00  0.00    +0.000 A 
ATOM      8  C   UNL     1       1.953   5.923  20.588  0.00  0.00    +0.000 A 
ATOM      9  C   UNL     1       2.480   4.759  20.012  0.00  0.00    +0.000 A 
ATOM     10  C   UNL     1       2.463   3.497  20.784  0.00  0.00    +0.000 C 
ATOM     11  O   UNL     1       2.045   3.451  21.935  0.00  0.00    +0.000 OA
ATOM     12  N   UNL     1       2.923   2.373  20.143  0.00  0.00    +0.000 N 
ATOM     13  H   UNL     1       2.851   1.508  20.661  0.00  0.00    +0.000 HD
ENDROOT
BRANCH   7  14
ATOM     14  C   UNL     1       1.395   8.379  20.496  0.00  0.00    +0.000 A 
ATOM     15  C   UNL     1       1.213   8.489  21.888  0.00  0.00    +0.000 A 
ATOM     16  C   UNL     1       0.676   9.641  22.468  0.00  0.00    +0.000 A 
ATOM     17  C   UNL     1       0.327  10.712  21.659  0.00  0.00    +0.000 A 
ATOM     18  C   UNL     1       0.508  10.647  20.285  0.00  0.00    +0.000 A 
ATOM     19  C   UNL     1       1.031   9.488  19.710  0.00  0.00    +0.000 A 
BRANCH  17  20
ATOM     20  O   UNL     1      -0.202  11.853  22.180  0.00  0.00    +0.000 OA
ATOM     21  H   UNL     1      -0.708  11.623  22.977  0.00  0.00    +0.000 HD
ENDBRANCH  17  20
ENDBRANCH   7  14
TORSDOF 2
ENDMDL
MODEL 6
REMARK VINA RESULT:      -7.5      4.249      4.914
REMARK  Name = 
REMARK  2 active torsions:
REMARK  status: ('A' for Active; 'I' for Inactive)
REMARK    1  A    between atoms: C_7  and  C_8
REMARK    2  A    between atoms: C_11  and  O_12
REMARK                            x       y       z     vdW  Elec       q    Type
REMARK                         _______ _______ _______ _____ _____    ______ ____
ROOT
ATOM      1  O   UNL     1      -0.387   9.969  21.425  0.00  0.00    +0.000 OA
ATOM      2  C   UNL     1       0.419   9.398  20.690  0.00  0.00    +0.000 C 
ATOM      3  C   UNL     1       1.084   8.106  21.094  0.00  0.00    +0.000 C 
ATOM      4  C   UNL     1       1.897   7.441  20.023  0.00  0.00    +0.000 A 
ATOM      5  C   UNL     1       2.433   6.171  20.252  0.00  0.00    +0.000 A 
ATOM      6  C   UNL     1       3.229   5.553  19.284  0.00  0.00    +0.000 A 
ATOM      7  C   UNL     1       3.514   6.176  18.055  0.00  0.00    +0.000 A 
ATOM      8  C   UNL     1       2.961   7.450  17.837  0.00  0.00    +0.000 A 
ATOM      9  C   UNL     1       2.166   8.075  18.808  0.00  0.00    +0.000 A 
ATOM     10  C   UNL     1       1.595   9.409  18.527  0.00  0.00    +0.000 C 
ATOM     11  O   UNL     1       1.838  10.008  17.486  0.00  0.00    +0.000 OA
ATOM     12  N   UNL     1       0.764   9.941  19.483  0.00  0.00    +0.000 N 
ATOM     13  H   UNL     1       0.335  10.827  19.252  0.00  0.00    +0.000 HD
ENDROOT
BRANCH   7  14
ATOM     14  C   UNL     1       4.367   5.516  17.040  0.00  0.00    +0.000 A 
ATOM     15  C   UNL     1       5.103   6.268  16.104  0.00  0.00    +0.000 A 
ATOM     16  C   UNL     1       5.887   5.654  15.124  0.00  0.00    +0.000 A 
ATOM     17  C   UNL     1       5.959   4.270  15.078  0.00  0.00    +0.000 A 
ATOM     18  C   UNL     1       5.262   3.495  15.993  0.00  0.00    +0.000 A 
ATOM     19  C   UNL     1       4.468   4.114  16.961  0.00  0.00    +0.000 A 
BRANCH  17  20
ATOM     20  O   UNL     1       6.708   3.629  14.139  0.00  0.00    +0.000 OA
ATOM     21  H   UNL     1       7.625   3.939  14.211  0.00  0.00    +0.000 HD
ENDBRANCH  17  20
ENDBRANCH   7  14
TORSDOF 2
ENDMDL
MODEL 7
REMARK VINA RESULT:      -7.5      4.354      6.559
REMARK  Name = 
REMARK  2 active torsions:
REMARK  status: ('A' for Active; 'I' for Inactive)
REMARK    1  A    between atoms: C_7  and  C_8
REMARK    2  A    between atoms: C_11  and  O_12
REMARK                            x       y       z     vdW  Elec       q    Type
REMARK                         _______ _______ _______ _____ _____    ______ ____
ROOT
ATOM      1  O   UNL     1       3.707   1.265  18.225  0.00  0.00    +0.000 OA
ATOM      2  C   UNL     1       3.375   2.345  18.712  0.00  0.00    +0.000 C 
ATOM      3  C   UNL     1       3.626   3.649  17.995  0.00  0.00    +0.000 C 
ATOM      4  C   UNL     1       3.004   4.859  18.628  0.00  0.00    +0.000 A 
ATOM      5  C   UNL     1       3.057   6.088  17.966  0.00  0.00    +0.000 A 
ATOM      6  C   UNL     1       2.521   7.234  18.558  0.00  0.00    +0.000 A 
ATOM      7  C   UNL     1       1.912   7.195  19.826  0.00  0.00    +0.000 A 
ATOM      8  C   UNL     1       1.860   5.949  20.475  0.00  0.00    +0.000 A 
ATOM      9  C   UNL     1       2.401   4.798  19.886  0.00  0.00    +0.000 A 
ATOM     10  C   UNL     1       2.309   3.507  20.603  0.00  0.00    +0.000 C 
ATOM     11  O   UNL     1       1.818   3.425  21.722  0.00  0.00    +0.000 OA
ATOM     12  N   UNL     1       2.789   2.400  19.946  0.00  0.00    +0.000 N 
ATOM     13  H   UNL     1       2.668   1.517  20.423  0.00  0.00    +0.000 HD
ENDROOT
BRANCH   7  14
ATOM     14  C   UNL     1       1.356   8.419  20.448  0.00  0.00    +0.000 A 
ATOM     15  C   UNL     1       1.031   9.549  19.673  0.00  0.00    +0.000 A 
ATOM     16  C   UNL     1       0.534  10.718  20.254  0.00  0.00    +0.000 A 
ATOM     17  C   UNL     1       0.337  10.766  21.626  0.00  0.00    +0.000 A 
ATOM     18  C   UNL     1       0.629   9.667  22.420  0.00  0.00    +0.000 A 
ATOM     19  C   UNL     1       1.140   8.507  21.836  0.00  0.00    +0.000 A 
BRANCH  17  20
ATOM     20  O   UNL     1      -0.143  11.885  22.235  0.00  0.00    +0.000 OA
ATOM     21  H   UNL     1       0.325  12.657  21.877  0.00  0.00    +0.000 HD
ENDBRANCH  17  20
ENDBRANCH   7  14
TORSDOF 2
ENDMDL
MODEL 8
REMARK VINA RESULT:      -7.4      5.074      6.606
REMARK  Name = 
REMARK  2 active torsions:
REMARK  status: ('A' for Active; 'I' for Inactive)
REMARK    1  A    between atoms: C_7  and  C_8
REMARK    2  A    between atoms: C_11  and  O_12
REMARK                            x       y       z     vdW  Elec       q    Type
REMARK                         _______ _______ _______ _____ _____    ______ ____
ROOT
ATOM      1  O   UNL     1      -0.600  12.589  20.157  0.00  0.00    +0.000 OA
ATOM      2  C   UNL     1      -0.109  11.460  20.142  0.00  0.00    +0.000 C 
ATOM      3  C   UNL     1       0.399  10.833  18.867  0.00  0.00    +0.000 C 
ATOM      4  C   UNL     1       1.132   9.535  19.038  0.00  0.00    +0.000 A 
ATOM      5  C   UNL     1       1.764   8.950  17.938  0.00  0.00    +0.000 A 
ATOM      6  C   UNL     1       2.415   7.720  18.068  0.00  0.00    +0.000 A 
ATOM      7  C   UNL     1       2.461   7.035  19.295  0.00  0.00    +0.000 A 
ATOM      8  C   UNL     1       1.826   7.641  20.393  0.00  0.00    +0.000 A 
ATOM      9  C   UNL     1       1.168   8.872  20.266  0.00  0.00    +0.000 A 
ATOM     10  C   UNL     1       0.527   9.476  21.454  0.00  0.00    +0.000 C 
ATOM     11  O   UNL     1       0.510   8.906  22.538  0.00  0.00    +0.000 OA
ATOM     12  N   UNL     1      -0.038  10.718  21.288  0.00  0.00    +0.000 N 
ATOM     13  H   UNL     1      -0.421  11.143  22.121  0.00  0.00    +0.000 HD
ENDROOT
BRANCH   7  14
ATOM     14  C   UNL     1       3.145   5.727  19.419  0.00  0.00    +0.000 A 
ATOM     15  C   UNL     1       4.437   5.526  18.894  0.00  0.00    +0.000 A 
ATOM     16  C   UNL     1       5.078   4.288  18.979  0.00  0.00    +0.000 A 
ATOM     17  C   UNL     1       4.439   3.231  19.610  0.00  0.00    +0.000 A 
ATOM     18  C   UNL     1       3.174   3.395  20.154  0.00  0.00    +0.000 A 
ATOM     19  C   UNL     1       2.531   4.631  20.053  0.00  0.00    +0.000 A 
BRANCH  17  20
ATOM     20  O   UNL     1       5.025   2.007  19.714  0.00  0.00    +0.000 OA
ATOM     21  H   UNL     1       5.172   1.814  20.655  0.00  0.00    +0.000 HD
ENDBRANCH  17  20
ENDBRANCH   7  14
TORSDOF 2
ENDMDL
MODEL 9
REMARK VINA RESULT:      -7.4      4.255      4.864
REMARK  Name = 
REMARK  2 active torsions:
REMARK  status: ('A' for Active; 'I' for Inactive)
REMARK    1  A    between atoms: C_7  and  C_8
REMARK    2  A    between atoms: C_11  and  O_12
REMARK                            x       y       z     vdW  Elec       q    Type
REMARK                         _______ _______ _______ _____ _____    ______ ____
ROOT
ATOM      1  O   UNL     1      -0.349  10.007  21.458  0.00  0.00    +0.000 OA
ATOM      2  C   UNL     1       0.447   9.426  20.721  0.00  0.00    +0.000 C 
ATOM      3  C   UNL     1       1.056   8.099  21.101  0.00  0.00    +0.000 C 
ATOM      4  C   UNL     1       1.862   7.431  20.025  0.00  0.00    +0.000 A 
ATOM      5  C   UNL     1       2.345   6.136  20.229  0.00  0.00    +0.000 A 
ATOM      6  C   UNL     1       3.133   5.515  19.257  0.00  0.00    +0.000 A 
ATOM      7  C   UNL     1       3.462   6.158  18.050  0.00  0.00    +0.000 A 
ATOM      8  C   UNL     1       2.961   7.457  17.857  0.00  0.00    +0.000 A 
ATOM      9  C   UNL     1       2.174   8.086  18.832  0.00  0.00    +0.000 A 
ATOM     10  C   UNL     1       1.659   9.449  18.577  0.00  0.00    +0.000 C 
ATOM     11  O   UNL     1       1.942  10.065  17.557  0.00  0.00    +0.000 OA
ATOM     12  N   UNL     1       0.832   9.987  19.534  0.00  0.00    +0.000 N 
ATOM     13  H   UNL     1       0.441  10.894  19.321  0.00  0.00    +0.000 HD
ENDROOT
BRANCH   7  14
ATOM     14  C   UNL     1       4.306   5.492  17.031  0.00  0.00    +0.000 A 
ATOM     15  C   UNL     1       4.470   4.093  17.019  0.00  0.00    +0.000 A 
ATOM     16  C   UNL     1       5.288   3.459  16.080  0.00  0.00    +0.000 A 
ATOM     17  C   UNL     1       5.943   4.220  15.123  0.00  0.00    +0.000 A 
ATOM     18  C   UNL     1       5.792   5.598  15.092  0.00  0.00    +0.000 A 
ATOM     19  C   UNL     1       4.986   6.228  16.042  0.00  0.00    +0.000 A 
BRANCH  17  20
ATOM     20  O   UNL     1       6.751   3.645  14.191  0.00  0.00    +0.000 OA
ATOM     21  H   UNL     1       6.474   2.722  14.069  0.00  0.00    +0.000 HD
ENDBRANCH  17  20
ENDBRANCH   7  14
TORSDOF 2
ENDMDL
