MODEL 1
REMARK VINA RESULT:      -8.0      0.000      0.000
REMARK  Name = 
REMARK  7 active torsions:
REMARK  status: ('A' for Active; 'I' for Inactive)
REMARK    1  A    between atoms: C_2  and  C_3
REMARK    2  A    between atoms: C_4  and  C_5
REMARK    3  A    between atoms: N_12  and  C_13
REMARK    4  A    between atoms: C_13  and  C_14
REMARK    5  A    between atoms: C_17  and  O_18
REMARK    6  A    between atoms: C_19  and  O_20
REMARK    7  A    between atoms: C_21  and  O_22
REMARK                            x       y       z     vdW  Elec       q    Type
REMARK                         _______ _______ _______ _____ _____    ______ ____
ROOT
ATOM      1  C   UNL     1       4.832   6.658  17.140  0.00  0.00    +0.000 C 
ENDROOT
BRANCH   1   2
ATOM      2  C   UNL     1       4.140   5.708  18.148  0.00  0.00    +0.000 C 
ATOM      3  N   UNL     1       2.827   5.250  17.624  0.00  0.00    +0.000 NA
ATOM      4  C   UNL     1       2.186   4.278  18.517  0.00  0.00    +0.000 C 
ATOM      5  C   UNL     1       3.056   3.054  18.846  0.00  0.00    +0.000 C 
ATOM      6  C   UNL     1       4.400   3.521  19.423  0.00  0.00    +0.000 C 
ATOM      7  C   UNL     1       5.080   4.520  18.473  0.00  0.00    +0.000 C 
ATOM      8  H   UNL     1       2.921   4.862  16.690  0.00  0.00    +0.000 HD
BRANCH   5   9
ATOM      9  O   UNL     1       2.340   2.209  19.752  0.00  0.00    +0.000 OA
ATOM     10  H   UNL     1       2.646   2.404  20.655  0.00  0.00    +0.000 HD
ENDBRANCH   5   9
BRANCH   6  11
ATOM     11  O   UNL     1       5.252   2.390  19.636  0.00  0.00    +0.000 OA
ATOM     12  H   UNL     1       5.668   2.518  20.513  0.00  0.00    +0.000 HD
ENDBRANCH   6  11
BRANCH   7  13
ATOM     13  O   UNL     1       5.483   3.822  17.279  0.00  0.00    +0.000 OA
ATOM     14  H   UNL     1       5.243   2.886  17.372  0.00  0.00    +0.000 HD
ENDBRANCH   7  13
ENDBRANCH   1   2
BRANCH   1  17
ATOM     15  O   UNL     1       7.579   6.200  16.527  0.00  0.00    +0.000 OA
ATOM     16  C   UNL     1       7.266   7.080  17.322  0.00  0.00    +0.000 C 
ATOM     17  N   UNL     1       5.973   7.360  17.698  0.00  0.00    +0.000 N 
ATOM     18  H   UNL     1       5.798   8.009  18.451  0.00  0.00    +0.000 HD
BRANCH  16  19
ATOM     19  C   UNL     1       8.252   7.980  17.965  0.00  0.00    +0.000 C 
ATOM     20  C   UNL     1       8.107   9.314  17.915  0.00  0.00    +0.000 C 
BRANCH  20  21
ATOM     21  C   UNL     1       9.027  10.256  18.573  0.00  0.00    +0.000 A 
ATOM     22  C   UNL     1       9.133  10.348  19.972  0.00  0.00    +0.000 A 
ATOM     23  C   UNL     1      10.014  11.255  20.569  0.00  0.00    +0.000 A 
ATOM     24  C   UNL     1      10.820  12.071  19.776  0.00  0.00    +0.000 A 
ATOM     25  C   UNL     1      10.742  11.966  18.388  0.00  0.00    +0.000 A 
ATOM     26 BR   UNL     1      11.845  13.064  17.313  0.00  0.00    +0.000 Br
ATOM     27  C   UNL     1       9.859  11.064  17.786  0.00  0.00    +0.000 A 
ENDBRANCH  20  21
ENDBRANCH  16  19
ENDBRANCH   1  17
TORSDOF 7
ENDMDL
MODEL 2
REMARK VINA RESULT:      -7.9      1.196      1.455
REMARK  Name = 
REMARK  7 active torsions:
REMARK  status: ('A' for Active; 'I' for Inactive)
REMARK    1  A    between atoms: C_2  and  C_3
REMARK    2  A    between atoms: C_4  and  C_5
REMARK    3  A    between atoms: N_12  and  C_13
REMARK    4  A    between atoms: C_13  and  C_14
REMARK    5  A    between atoms: C_17  and  O_18
REMARK    6  A    between atoms: C_19  and  O_20
REMARK    7  A    between atoms: C_21  and  O_22
REMARK                            x       y       z     vdW  Elec       q    Type
REMARK                         _______ _______ _______ _____ _____    ______ ____
ROOT
ATOM      1  C   UNL     1       6.705   5.027  18.129  0.00  0.00    +0.000 C 
ENDROOT
BRANCH   1   2
ATOM      2  C   UNL     1       5.398   5.038  18.958  0.00  0.00    +0.000 C 
ATOM      3  N   UNL     1       4.404   5.968  18.362  0.00  0.00    +0.000 NA
ATOM      4  C   UNL     1       3.122   5.935  19.075  0.00  0.00    +0.000 C 
ATOM      5  C   UNL     1       2.499   4.534  19.190  0.00  0.00    +0.000 C 
ATOM      6  C   UNL     1       3.510   3.578  19.840  0.00  0.00    +0.000 C 
ATOM      7  C   UNL     1       4.843   3.596  19.076  0.00  0.00    +0.000 C 
ATOM      8  H   UNL     1       4.264   5.771  17.375  0.00  0.00    +0.000 HD
BRANCH   5   9
ATOM      9  O   UNL     1       1.283   4.629  19.936  0.00  0.00    +0.000 OA
ATOM     10  H   UNL     1       1.289   3.933  20.617  0.00  0.00    +0.000 HD
ENDBRANCH   5   9
BRANCH   6  11
ATOM     11  O   UNL     1       2.974   2.250  19.857  0.00  0.00    +0.000 OA
ATOM     12  H   UNL     1       2.083   2.316  20.257  0.00  0.00    +0.000 HD
ENDBRANCH   6  11
BRANCH   7  13
ATOM     13  O   UNL     1       4.643   2.999  17.780  0.00  0.00    +0.000 OA
ATOM     14  H   UNL     1       5.369   3.275  17.197  0.00  0.00    +0.000 HD
ENDBRANCH   7  13
ENDBRANCH   1   2
BRANCH   1  17
ATOM     15  O   UNL     1       6.811   7.606  16.917  0.00  0.00    +0.000 OA
ATOM     16  C   UNL     1       7.573   7.328  17.837  0.00  0.00    +0.000 C 
ATOM     17  N   UNL     1       7.613   6.106  18.468  0.00  0.00    +0.000 N 
ATOM     18  H   UNL     1       8.349   5.906  19.128  0.00  0.00    +0.000 HD
BRANCH  16  19
ATOM     19  C   UNL     1       8.540   8.295  18.409  0.00  0.00    +0.000 C 
ATOM     20  C   UNL     1       8.437   9.608  18.157  0.00  0.00    +0.000 C 
BRANCH  20  21
ATOM     21  C   UNL     1       9.337  10.620  18.734  0.00  0.00    +0.000 A 
ATOM     22  C   UNL     1       9.465  10.807  20.121  0.00  0.00    +0.000 A 
ATOM     23  C   UNL     1      10.328  11.778  20.640  0.00  0.00    +0.000 A 
ATOM     24  C   UNL     1      11.092  12.564  19.780  0.00  0.00    +0.000 A 
ATOM     25  C   UNL     1      10.993  12.366  18.404  0.00  0.00    +0.000 A 
ATOM     26 BR   UNL     1      12.041  13.425  17.238  0.00  0.00    +0.000 Br
ATOM     27  C   UNL     1      10.129  11.400  17.880  0.00  0.00    +0.000 A 
ENDBRANCH  20  21
ENDBRANCH  16  19
ENDBRANCH   1  17
TORSDOF 7
ENDMDL
MODEL 3
REMARK VINA RESULT:      -7.9      0.940      1.053
REMARK  Name = 
REMARK  7 active torsions:
REMARK  status: ('A' for Active; 'I' for Inactive)
REMARK    1  A    between atoms: C_2  and  C_3
REMARK    2  A    between atoms: C_4  and  C_5
REMARK    3  A    between atoms: N_12  and  C_13
REMARK    4  A    between atoms: C_13  and  C_14
REMARK    5  A    between atoms: C_17  and  O_18
REMARK    6  A    between atoms: C_19  and  O_20
REMARK    7  A    between atoms: C_21  and  O_22
REMARK                            x       y       z     vdW  Elec       q    Type
REMARK                         _______ _______ _______ _____ _____    ______ ____
ROOT
ATOM      1  C   UNL     1       5.909   6.437  16.681  0.00  0.00    +0.000 C 
ENDROOT
BRANCH   1   2
ATOM      2  C   UNL     1       5.102   5.862  17.870  0.00  0.00    +0.000 C 
ATOM      3  N   UNL     1       3.643   5.925  17.596  0.00  0.00    +0.000 NA
ATOM      4  C   UNL     1       2.854   5.306  18.667  0.00  0.00    +0.000 C 
ATOM      5  C   UNL     1       3.247   3.854  18.982  0.00  0.00    +0.000 C 
ATOM      6  C   UNL     1       4.748   3.789  19.302  0.00  0.00    +0.000 C 
ATOM      7  C   UNL     1       5.572   4.415  18.167  0.00  0.00    +0.000 C 
ATOM      8  H   UNL     1       3.419   5.498  16.701  0.00  0.00    +0.000 HD
BRANCH   5   9
ATOM      9  O   UNL     1       2.440   3.381  20.063  0.00  0.00    +0.000 OA
ATOM     10  H   UNL     1       3.023   2.953  20.715  0.00  0.00    +0.000 HD
ENDBRANCH   5   9
BRANCH   6  11
ATOM     11  O   UNL     1       5.140   2.425  19.497  0.00  0.00    +0.000 OA
ATOM     12  H   UNL     1       5.445   2.097  18.628  0.00  0.00    +0.000 HD
ENDBRANCH   6  11
BRANCH   7  13
ATOM     13  O   UNL     1       5.469   3.575  17.001  0.00  0.00    +0.000 OA
ATOM     14  H   UNL     1       4.767   3.925  16.429  0.00  0.00    +0.000 HD
ENDBRANCH   7  13
ENDBRANCH   1   2
BRANCH   1  17
ATOM     15  O   UNL     1       8.133   6.679  18.449  0.00  0.00    +0.000 OA
ATOM     16  C   UNL     1       7.706   7.667  17.860  0.00  0.00    +0.000 C 
ATOM     17  N   UNL     1       6.628   7.655  17.006  0.00  0.00    +0.000 N 
ATOM     18  H   UNL     1       6.255   8.524  16.656  0.00  0.00    +0.000 HD
BRANCH  16  19
ATOM     19  C   UNL     1       8.326   9.009  17.973  0.00  0.00    +0.000 C 
ATOM     20  C   UNL     1       8.945   9.392  19.099  0.00  0.00    +0.000 C 
BRANCH  20  21
ATOM     21  C   UNL     1       9.619  10.692  19.254  0.00  0.00    +0.000 A 
ATOM     22  C   UNL     1       9.815  11.291  20.510  0.00  0.00    +0.000 A 
ATOM     23  C   UNL     1      10.457  12.529  20.625  0.00  0.00    +0.000 A 
ATOM     24  C   UNL     1      10.931  13.177  19.487  0.00  0.00    +0.000 A 
ATOM     25  C   UNL     1      10.766  12.577  18.239  0.00  0.00    +0.000 A 
ATOM     26 BR   UNL     1      11.423  13.453  16.696  0.00  0.00    +0.000 Br
ATOM     27  C   UNL     1      10.122  11.343  18.119  0.00  0.00    +0.000 A 
ENDBRANCH  20  21
ENDBRANCH  16  19
ENDBRANCH   1  17
TORSDOF 7
ENDMDL
MODEL 4
REMARK VINA RESULT:      -7.6      1.393      1.738
REMARK  Name = 
REMARK  7 active torsions:
REMARK  status: ('A' for Active; 'I' for Inactive)
REMARK    1  A    between atoms: C_2  and  C_3
REMARK    2  A    between atoms: C_4  and  C_5
REMARK    3  A    between atoms: N_12  and  C_13
REMARK    4  A    between atoms: C_13  and  C_14
REMARK    5  A    between atoms: C_17  and  O_18
REMARK    6  A    between atoms: C_19  and  O_20
REMARK    7  A    between atoms: C_21  and  O_22
REMARK                            x       y       z     vdW  Elec       q    Type
REMARK                         _______ _______ _______ _____ _____    ______ ____
ROOT
ATOM      1  C   UNL     1       5.755   6.228  16.684  0.00  0.00    +0.000 C 
ENDROOT
BRANCH   1   2
ATOM      2  C   UNL     1       4.955   5.678  17.890  0.00  0.00    +0.000 C 
ATOM      3  N   UNL     1       3.495   5.728  17.620  0.00  0.00    +0.000 NA
ATOM      4  C   UNL     1       2.713   5.131  18.709  0.00  0.00    +0.000 C 
ATOM      5  C   UNL     1       3.115   3.689  19.059  0.00  0.00    +0.000 C 
ATOM      6  C   UNL     1       4.617   3.639  19.374  0.00  0.00    +0.000 C 
ATOM      7  C   UNL     1       5.434   4.242  18.221  0.00  0.00    +0.000 C 
ATOM      8  H   UNL     1       3.270   5.278  16.737  0.00  0.00    +0.000 HD
BRANCH   5   9
ATOM      9  O   UNL     1       2.314   3.239  20.155  0.00  0.00    +0.000 OA
ATOM     10  H   UNL     1       1.433   3.644  20.074  0.00  0.00    +0.000 HD
ENDBRANCH   5   9
BRANCH   6  11
ATOM     11  O   UNL     1       5.017   2.283  19.601  0.00  0.00    +0.000 OA
ATOM     12  H   UNL     1       5.028   2.156  20.571  0.00  0.00    +0.000 HD
ENDBRANCH   6  11
BRANCH   7  13
ATOM     13  O   UNL     1       5.331   3.373  17.076  0.00  0.00    +0.000 OA
ATOM     14  H   UNL     1       5.039   3.899  16.314  0.00  0.00    +0.000 HD
ENDBRANCH   7  13
ENDBRANCH   1   2
BRANCH   1  17
ATOM     15  O   UNL     1       8.073   6.601  18.302  0.00  0.00    +0.000 OA
ATOM     16  C   UNL     1       7.555   7.561  17.741  0.00  0.00    +0.000 C 
ATOM     17  N   UNL     1       6.425   7.485  16.960  0.00  0.00    +0.000 N 
ATOM     18  H   UNL     1       5.982   8.331  16.634  0.00  0.00    +0.000 HD
BRANCH  16  19
ATOM     19  C   UNL     1       8.105   8.936  17.812  0.00  0.00    +0.000 C 
ATOM     20  C   UNL     1       8.880   9.319  18.838  0.00  0.00    +0.000 C 
BRANCH  20  21
ATOM     21  C   UNL     1       9.493  10.654  18.939  0.00  0.00    +0.000 A 
ATOM     22  C   UNL     1      10.256  11.210  17.898  0.00  0.00    +0.000 A 
ATOM     23  C   UNL     1      10.827  12.480  18.024  0.00  0.00    +0.000 A 
ATOM     24  C   UNL     1      10.627  13.224  19.186  0.00  0.00    +0.000 A 
ATOM     25  C   UNL     1       9.848  12.692  20.212  0.00  0.00    +0.000 A 
ATOM     26 BR   UNL     1       9.566  13.707  21.783  0.00  0.00    +0.000 Br
ATOM     27  C   UNL     1       9.278  11.421  20.092  0.00  0.00    +0.000 A 
ENDBRANCH  20  21
ENDBRANCH  16  19
ENDBRANCH   1  17
TORSDOF 7
ENDMDL
MODEL 5
REMARK VINA RESULT:      -7.6      1.531      1.730
REMARK  Name = 
REMARK  7 active torsions:
REMARK  status: ('A' for Active; 'I' for Inactive)
REMARK    1  A    between atoms: C_2  and  C_3
REMARK    2  A    between atoms: C_4  and  C_5
REMARK    3  A    between atoms: N_12  and  C_13
REMARK    4  A    between atoms: C_13  and  C_14
REMARK    5  A    between atoms: C_17  and  O_18
REMARK    6  A    between atoms: C_19  and  O_20
REMARK    7  A    between atoms: C_21  and  O_22
REMARK                            x       y       z     vdW  Elec       q    Type
REMARK                         _______ _______ _______ _____ _____    ______ ____
ROOT
ATOM      1  C   UNL     1       6.077   5.933  16.461  0.00  0.00    +0.000 C 
ENDROOT
BRANCH   1   2
ATOM      2  C   UNL     1       4.627   5.655  16.928  0.00  0.00    +0.000 C 
ATOM      3  N   UNL     1       4.274   4.226  16.724  0.00  0.00    +0.000 NA
ATOM      4  C   UNL     1       2.937   3.910  17.239  0.00  0.00    +0.000 C 
ATOM      5  C   UNL     1       2.726   4.277  18.717  0.00  0.00    +0.000 C 
ATOM      6  C   UNL     1       3.055   5.762  18.926  0.00  0.00    +0.000 C 
ATOM      7  C   UNL     1       4.465   6.084  18.408  0.00  0.00    +0.000 C 
ATOM      8  H   UNL     1       4.968   3.613  17.144  0.00  0.00    +0.000 HD
BRANCH   5   9
ATOM      9  O   UNL     1       1.381   3.961  19.084  0.00  0.00    +0.000 OA
ATOM     10  H   UNL     1       0.869   4.789  19.106  0.00  0.00    +0.000 HD
ENDBRANCH   5   9
BRANCH   6  11
ATOM     11  O   UNL     1       2.958   6.086  20.318  0.00  0.00    +0.000 OA
ATOM     12  H   UNL     1       2.031   5.911  20.579  0.00  0.00    +0.000 HD
ENDBRANCH   6  11
BRANCH   7  13
ATOM     13  O   UNL     1       5.430   5.433  19.257  0.00  0.00    +0.000 OA
ATOM     14  H   UNL     1       5.703   6.056  19.950  0.00  0.00    +0.000 HD
ENDBRANCH   7  13
ENDBRANCH   1   2
BRANCH   1  17
ATOM     15  O   UNL     1       8.110   6.452  18.392  0.00  0.00    +0.000 OA
ATOM     16  C   UNL     1       7.577   7.382  17.797  0.00  0.00    +0.000 C 
ATOM     17  N   UNL     1       6.574   7.235  16.868  0.00  0.00    +0.000 N 
ATOM     18  H   UNL     1       6.094   8.048  16.512  0.00  0.00    +0.000 HD
BRANCH  16  19
ATOM     19  C   UNL     1       7.970   8.799  17.987  0.00  0.00    +0.000 C 
ATOM     20  C   UNL     1       8.925   9.140  18.867  0.00  0.00    +0.000 C 
BRANCH  20  21
ATOM     21  C   UNL     1       9.391  10.522  19.065  0.00  0.00    +0.000 A 
ATOM     22  C   UNL     1       9.253  11.192  20.293  0.00  0.00    +0.000 A 
ATOM     23  C   UNL     1       9.704  12.507  20.450  0.00  0.00    +0.000 A 
ATOM     24  C   UNL     1      10.318  13.166  19.387  0.00  0.00    +0.000 A 
ATOM     25  C   UNL     1      10.484  12.499  18.173  0.00  0.00    +0.000 A 
ATOM     26 BR   UNL     1      11.330  13.391  16.735  0.00  0.00    +0.000 Br
ATOM     27  C   UNL     1      10.032  11.187  18.010  0.00  0.00    +0.000 A 
ENDBRANCH  20  21
ENDBRANCH  16  19
ENDBRANCH   1  17
TORSDOF 7
ENDMDL
MODEL 6
REMARK VINA RESULT:      -7.6      1.962      2.377
REMARK  Name = 
REMARK  7 active torsions:
REMARK  status: ('A' for Active; 'I' for Inactive)
REMARK    1  A    between atoms: C_2  and  C_3
REMARK    2  A    between atoms: C_4  and  C_5
REMARK    3  A    between atoms: N_12  and  C_13
REMARK    4  A    between atoms: C_13  and  C_14
REMARK    5  A    between atoms: C_17  and  O_18
REMARK    6  A    between atoms: C_19  and  O_20
REMARK    7  A    between atoms: C_21  and  O_22
REMARK                            x       y       z     vdW  Elec       q    Type
REMARK                         _______ _______ _______ _____ _____    ______ ____
ROOT
ATOM      1  C   UNL     1       6.644   5.733  16.689  0.00  0.00    +0.000 C 
ENDROOT
BRANCH   1   2
ATOM      2  C   UNL     1       5.137   5.502  16.959  0.00  0.00    +0.000 C 
ATOM      3  N   UNL     1       4.776   4.077  16.740  0.00  0.00    +0.000 NA
ATOM      4  C   UNL     1       3.373   3.807  17.073  0.00  0.00    +0.000 C 
ATOM      5  C   UNL     1       2.972   4.218  18.499  0.00  0.00    +0.000 C 
ATOM      6  C   UNL     1       3.310   5.700  18.718  0.00  0.00    +0.000 C 
ATOM      7  C   UNL     1       4.787   5.974  18.392  0.00  0.00    +0.000 C 
ATOM      8  H   UNL     1       5.389   3.459  17.265  0.00  0.00    +0.000 HD
BRANCH   5   9
ATOM      9  O   UNL     1       1.581   3.945  18.685  0.00  0.00    +0.000 OA
ATOM     10  H   UNL     1       1.077   4.734  18.417  0.00  0.00    +0.000 HD
ENDBRANCH   5   9
BRANCH   6  11
ATOM     11  O   UNL     1       3.033   6.062  20.076  0.00  0.00    +0.000 OA
ATOM     12  H   UNL     1       3.724   6.703  20.339  0.00  0.00    +0.000 HD
ENDBRANCH   6  11
BRANCH   7  13
ATOM     13  O   UNL     1       5.608   5.322  19.380  0.00  0.00    +0.000 OA
ATOM     14  H   UNL     1       5.539   5.815  20.214  0.00  0.00    +0.000 HD
ENDBRANCH   7  13
ENDBRANCH   1   2
BRANCH   1  17
ATOM     15  O   UNL     1       8.190   6.684  18.889  0.00  0.00    +0.000 OA
ATOM     16  C   UNL     1       7.833   7.459  18.008  0.00  0.00    +0.000 C 
ATOM     17  N   UNL     1       7.069   7.101  16.922  0.00  0.00    +0.000 N 
ATOM     18  H   UNL     1       6.707   7.813  16.306  0.00  0.00    +0.000 HD
BRANCH  16  19
ATOM     19  C   UNL     1       8.211   8.892  17.988  0.00  0.00    +0.000 C 
ATOM     20  C   UNL     1       9.044   9.401  18.909  0.00  0.00    +0.000 C 
BRANCH  20  21
ATOM     21  C   UNL     1       9.491  10.804  18.913  0.00  0.00    +0.000 A 
ATOM     22  C   UNL     1      10.011  11.429  17.766  0.00  0.00    +0.000 A 
ATOM     23  C   UNL     1      10.430  12.763  17.801  0.00  0.00    +0.000 A 
ATOM     24  C   UNL     1      10.318  13.499  18.979  0.00  0.00    +0.000 A 
ATOM     25  C   UNL     1       9.778  12.896  20.114  0.00  0.00    +0.000 A 
ATOM     26 BR   UNL     1       9.613  13.901  21.708  0.00  0.00    +0.000 Br
ATOM     27  C   UNL     1       9.361  11.562  20.085  0.00  0.00    +0.000 A 
ENDBRANCH  20  21
ENDBRANCH  16  19
ENDBRANCH   1  17
TORSDOF 7
ENDMDL
MODEL 7
REMARK VINA RESULT:      -7.5      1.997      2.288
REMARK  Name = 
REMARK  7 active torsions:
REMARK  status: ('A' for Active; 'I' for Inactive)
REMARK    1  A    between atoms: C_2  and  C_3
REMARK    2  A    between atoms: C_4  and  C_5
REMARK    3  A    between atoms: N_12  and  C_13
REMARK    4  A    between atoms: C_13  and  C_14
REMARK    5  A    between atoms: C_17  and  O_18
REMARK    6  A    between atoms: C_19  and  O_20
REMARK    7  A    between atoms: C_21  and  O_22
REMARK                            x       y       z     vdW  Elec       q    Type
REMARK                         _______ _______ _______ _____ _____    ______ ____
ROOT
ATOM      1  C   UNL     1       6.654   5.463  16.779  0.00  0.00    +0.000 C 
ENDROOT
BRANCH   1   2
ATOM      2  C   UNL     1       5.162   5.225  17.118  0.00  0.00    +0.000 C 
ATOM      3  N   UNL     1       4.754   3.842  16.755  0.00  0.00    +0.000 NA
ATOM      4  C   UNL     1       3.369   3.556  17.146  0.00  0.00    +0.000 C 
ATOM      5  C   UNL     1       3.071   3.798  18.635  0.00  0.00    +0.000 C 
ATOM      6  C   UNL     1       3.456   5.237  19.006  0.00  0.00    +0.000 C 
ATOM      7  C   UNL     1       4.915   5.526  18.618  0.00  0.00    +0.000 C 
ATOM      8  H   UNL     1       5.385   3.156  17.161  0.00  0.00    +0.000 HD
BRANCH   5   9
ATOM      9  O   UNL     1       1.688   3.526  18.879  0.00  0.00    +0.000 OA
ATOM     10  H   UNL     1       1.419   2.783  18.310  0.00  0.00    +0.000 HD
ENDBRANCH   5   9
BRANCH   6  11
ATOM     11  O   UNL     1       3.275   5.436  20.413  0.00  0.00    +0.000 OA
ATOM     12  H   UNL     1       3.936   6.104  20.686  0.00  0.00    +0.000 HD
ENDBRANCH   6  11
BRANCH   7  13
ATOM     13  O   UNL     1       5.782   4.746  19.464  0.00  0.00    +0.000 OA
ATOM     14  H   UNL     1       5.650   5.027  20.385  0.00  0.00    +0.000 HD
ENDBRANCH   7  13
ENDBRANCH   1   2
BRANCH   1  17
ATOM     15  O   UNL     1       8.110   6.830  18.814  0.00  0.00    +0.000 OA
ATOM     16  C   UNL     1       7.753   7.430  17.806  0.00  0.00    +0.000 C 
ATOM     17  N   UNL     1       7.029   6.865  16.783  0.00  0.00    +0.000 N 
ATOM     18  H   UNL     1       6.662   7.448  16.046  0.00  0.00    +0.000 HD
BRANCH  16  19
ATOM     19  C   UNL     1       8.086   8.852  17.548  0.00  0.00    +0.000 C 
ATOM     20  C   UNL     1       8.817   9.560  18.422  0.00  0.00    +0.000 C 
BRANCH  20  21
ATOM     21  C   UNL     1       9.219  10.959  18.199  0.00  0.00    +0.000 A 
ATOM     22  C   UNL     1      10.563  11.336  18.033  0.00  0.00    +0.000 A 
ATOM     23  C   UNL     1      10.914  12.675  17.825  0.00  0.00    +0.000 A 
ATOM     24  C   UNL     1       9.924  13.653  17.757  0.00  0.00    +0.000 A 
ATOM     25  C   UNL     1       8.587  13.284  17.892  0.00  0.00    +0.000 A 
ATOM     26 BR   UNL     1       7.244  14.613  17.788  0.00  0.00    +0.000 Br
ATOM     27  C   UNL     1       8.231  11.949  18.105  0.00  0.00    +0.000 A 
ENDBRANCH  20  21
ENDBRANCH  16  19
ENDBRANCH   1  17
TORSDOF 7
ENDMDL
MODEL 8
REMARK VINA RESULT:      -7.5      4.992      7.335
REMARK  Name = 
REMARK  7 active torsions:
REMARK  status: ('A' for Active; 'I' for Inactive)
REMARK    1  A    between atoms: C_2  and  C_3
REMARK    2  A    between atoms: C_4  and  C_5
REMARK    3  A    between atoms: N_12  and  C_13
REMARK    4  A    between atoms: C_13  and  C_14
REMARK    5  A    between atoms: C_17  and  O_18
REMARK    6  A    between atoms: C_19  and  O_20
REMARK    7  A    between atoms: C_21  and  O_22
REMARK                            x       y       z     vdW  Elec       q    Type
REMARK                         _______ _______ _______ _____ _____    ______ ____
ROOT
ATOM      1  C   UNL     1       4.571   4.549  19.648  0.00  0.00    +0.000 C 
ENDROOT
BRANCH   1   2
ATOM      2  C   UNL     1       5.593   5.120  18.635  0.00  0.00    +0.000 C 
ATOM      3  N   UNL     1       6.523   4.058  18.171  0.00  0.00    +0.000 NA
ATOM      4  C   UNL     1       7.448   4.547  17.142  0.00  0.00    +0.000 C 
ATOM      5  C   UNL     1       6.759   5.183  15.924  0.00  0.00    +0.000 C 
ATOM      6  C   UNL     1       5.824   6.306  16.396  0.00  0.00    +0.000 C 
ATOM      7  C   UNL     1       4.840   5.785  17.455  0.00  0.00    +0.000 C 
ATOM      8  H   UNL     1       6.014   3.247  17.831  0.00  0.00    +0.000 HD
BRANCH   5   9
ATOM      9  O   UNL     1       7.762   5.655  15.020  0.00  0.00    +0.000 OA
ATOM     10  H   UNL     1       7.709   5.127  14.204  0.00  0.00    +0.000 HD
ENDBRANCH   5   9
BRANCH   6  11
ATOM     11  O   UNL     1       5.104   6.835  15.276  0.00  0.00    +0.000 OA
ATOM     12  H   UNL     1       5.775   7.124  14.626  0.00  0.00    +0.000 HD
ENDBRANCH   6  11
BRANCH   7  13
ATOM     13  O   UNL     1       3.926   4.866  16.825  0.00  0.00    +0.000 OA
ATOM     14  H   UNL     1       3.184   5.372  16.456  0.00  0.00    +0.000 HD
ENDBRANCH   7  13
ENDBRANCH   1   2
BRANCH   1  17
ATOM     15  O   UNL     1       1.733   4.275  19.562  0.00  0.00    +0.000 OA
ATOM     16  C   UNL     1       2.239   5.291  20.028  0.00  0.00    +0.000 C 
ATOM     17  N   UNL     1       3.592   5.525  20.092  0.00  0.00    +0.000 N 
ATOM     18  H   UNL     1       3.933   6.432  20.371  0.00  0.00    +0.000 HD
BRANCH  16  19
ATOM     19  C   UNL     1       1.444   6.396  20.615  0.00  0.00    +0.000 C 
ATOM     20  C   UNL     1       1.762   7.678  20.380  0.00  0.00    +0.000 C 
BRANCH  20  21
ATOM     21  C   UNL     1       0.984   8.816  20.895  0.00  0.00    +0.000 A 
ATOM     22  C   UNL     1       0.612   8.921  22.246  0.00  0.00    +0.000 A 
ATOM     23  C   UNL     1      -0.130  10.014  22.706  0.00  0.00    +0.000 A 
ATOM     24  C   UNL     1      -0.495  11.031  21.825  0.00  0.00    +0.000 A 
ATOM     25  C   UNL     1      -0.106  10.949  20.488  0.00  0.00    +0.000 A 
ATOM     26 BR   UNL     1      -0.591  12.336  19.296  0.00  0.00    +0.000 Br
ATOM     27  C   UNL     1       0.632   9.857  20.023  0.00  0.00    +0.000 A 
ENDBRANCH  20  21
ENDBRANCH  16  19
ENDBRANCH   1  17
TORSDOF 7
ENDMDL
MODEL 9
REMARK VINA RESULT:      -7.4      1.381      1.910
REMARK  Name = 
REMARK  7 active torsions:
REMARK  status: ('A' for Active; 'I' for Inactive)
REMARK    1  A    between atoms: C_2  and  C_3
REMARK    2  A    between atoms: C_4  and  C_5
REMARK    3  A    between atoms: N_12  and  C_13
REMARK    4  A    between atoms: C_13  and  C_14
REMARK    5  A    between atoms: C_17  and  O_18
REMARK    6  A    between atoms: C_19  and  O_20
REMARK    7  A    between atoms: C_21  and  O_22
REMARK                            x       y       z     vdW  Elec       q    Type
REMARK                         _______ _______ _______ _____ _____    ______ ____
ROOT
ATOM      1  C   UNL     1       6.564   5.040  18.917  0.00  0.00    +0.000 C 
ENDROOT
BRANCH   1   2
ATOM      2  C   UNL     1       5.041   4.854  18.714  0.00  0.00    +0.000 C 
ATOM      3  N   UNL     1       4.740   4.462  17.313  0.00  0.00    +0.000 NA
ATOM      4  C   UNL     1       3.312   4.192  17.111  0.00  0.00    +0.000 C 
ATOM      5  C   UNL     1       2.727   3.140  18.068  0.00  0.00    +0.000 C 
ATOM      6  C   UNL     1       3.003   3.560  19.519  0.00  0.00    +0.000 C 
ATOM      7  C   UNL     1       4.503   3.818  19.733  0.00  0.00    +0.000 C 
ATOM      8  H   UNL     1       5.295   3.658  17.030  0.00  0.00    +0.000 HD
BRANCH   5   9
ATOM      9  O   UNL     1       1.329   2.999  17.800  0.00  0.00    +0.000 OA
ATOM     10  H   UNL     1       0.934   3.888  17.768  0.00  0.00    +0.000 HD
ENDBRANCH   5   9
BRANCH   6  11
ATOM     11  O   UNL     1       2.550   2.535  20.411  0.00  0.00    +0.000 OA
ATOM     12  H   UNL     1       1.878   2.019  19.922  0.00  0.00    +0.000 HD
ENDBRANCH   6  11
BRANCH   7  13
ATOM     13  O   UNL     1       5.207   2.564  19.635  0.00  0.00    +0.000 OA
ATOM     14  H   UNL     1       6.127   2.704  19.913  0.00  0.00    +0.000 HD
ENDBRANCH   7  13
ENDBRANCH   1   2
BRANCH   1  17
ATOM     15  O   UNL     1       7.390   6.088  16.396  0.00  0.00    +0.000 OA
ATOM     16  C   UNL     1       7.381   6.809  17.388  0.00  0.00    +0.000 C 
ATOM     17  N   UNL     1       7.022   6.390  18.648  0.00  0.00    +0.000 N 
ATOM     18  H   UNL     1       7.159   7.002  19.439  0.00  0.00    +0.000 HD
BRANCH  16  19
ATOM     19  C   UNL     1       7.734   8.248  17.348  0.00  0.00    +0.000 C 
ATOM     20  C   UNL     1       8.485   8.804  18.311  0.00  0.00    +0.000 C 
BRANCH  20  21
ATOM     21  C   UNL     1       8.906  10.215  18.300  0.00  0.00    +0.000 A 
ATOM     22  C   UNL     1       8.139  11.222  17.690  0.00  0.00    +0.000 A 
ATOM     23  C   UNL     1       8.568  12.554  17.694  0.00  0.00    +0.000 A 
ATOM     24  C   UNL     1       9.760  12.902  18.326  0.00  0.00    +0.000 A 
ATOM     25  C   UNL     1      10.513  11.914  18.958  0.00  0.00    +0.000 A 
ATOM     26 BR   UNL     1      12.124  12.390  19.827  0.00  0.00    +0.000 Br
ATOM     27  C   UNL     1      10.092  10.581  18.953  0.00  0.00    +0.000 A 
ENDBRANCH  20  21
ENDBRANCH  16  19
ENDBRANCH   1  17
TORSDOF 7
ENDMDL
