MODEL 1
REMARK VINA RESULT:      -9.0      0.000      0.000
REMARK  Name = 
REMARK  6 active torsions:
REMARK  status: ('A' for Active; 'I' for Inactive)
REMARK    1  A    between atoms: C_1  and  C_2
REMARK    2  A    between atoms: C_2  and  C_3
REMARK    3  A    between atoms: C_2  and  C_4
REMARK    4  A    between atoms: C_7  and  S_8
REMARK    5  A    between atoms: S_8  and  C_11
REMARK    6  A    between atoms: C_19  and  C_20
REMARK                            x       y       z     vdW  Elec       q    Type
REMARK                         _______ _______ _______ _____ _____    ______ ____
ROOT
ATOM      1  C   UNL     1       4.420   5.248  18.828  0.00  0.00    +0.000 A 
ATOM      2  S   UNL     1       4.846   3.639  19.237  0.00  0.00    +0.000 S 
ATOM      3  C   UNL     1       3.438   3.397  20.132  0.00  0.00    +0.000 A 
ATOM      4  N   UNL     1       3.239   2.224  20.764  0.00  0.00    +0.000 NA
ATOM      5  C   UNL     1       2.076   2.147  21.438  0.00  0.00    +0.000 A 
ATOM      6  C   UNL     1       1.125   3.146  21.495  0.00  0.00    +0.000 A 
ATOM      7  C   UNL     1       1.369   4.336  20.814  0.00  0.00    +0.000 A 
ATOM      8  C   UNL     1       2.589   4.495  20.109  0.00  0.00    +0.000 A 
ATOM      9  C   UNL     1       3.166   5.596  19.341  0.00  0.00    +0.000 A 
ENDROOT
BRANCH   9  10
ATOM     10  C   UNL     1       2.542   6.918  19.144  0.00  0.00    +0.000 A 
ATOM     11  C   UNL     1       2.057   7.645  20.245  0.00  0.00    +0.000 A 
ATOM     12  C   UNL     1       1.360   8.848  20.070  0.00  0.00    +0.000 A 
ATOM     13  C   UNL     1       1.196   9.374  18.793  0.00  0.00    +0.000 A 
ATOM     14 CL   UNL     1       0.340  10.848  18.572  0.00  0.00    +0.000 Cl
ATOM     15  C   UNL     1       1.705   8.697  17.694  0.00  0.00    +0.000 A 
ATOM     16  C   UNL     1       2.340   7.461  17.868  0.00  0.00    +0.000 A 
ENDBRANCH   9  10
BRANCH   1  17
ATOM     17  S   UNL     1       5.658   6.121  17.874  0.00  0.00    +0.000 S 
ATOM     18  O   UNL     1       6.883   5.962  18.628  0.00  0.00    +0.000 OA
ATOM     19  O   UNL     1       5.088   7.426  17.619  0.00  0.00    +0.000 OA
BRANCH  17  23
ATOM     20  C   UNL     1       6.219   4.133  13.793  0.00  0.00    +0.000 A 
ATOM     21  C   UNL     1       7.286   4.815  14.401  0.00  0.00    +0.000 A 
ATOM     22  C   UNL     1       7.124   5.434  15.644  0.00  0.00    +0.000 A 
ATOM     23  C   UNL     1       5.889   5.352  16.290  0.00  0.00    +0.000 A 
ATOM     24  C   UNL     1       4.809   4.701  15.690  0.00  0.00    +0.000 A 
ATOM     25  C   UNL     1       4.978   4.090  14.450  0.00  0.00    +0.000 A 
BRANCH  20  27
ATOM     26  C   UNL     1       5.067   3.147  11.778  0.00  0.00    +0.000 C 
ATOM     27  C   UNL     1       6.411   3.463  12.443  0.00  0.00    +0.000 C 
ATOM     28  C   UNL     1       7.289   4.312  11.521  0.00  0.00    +0.000 C 
ENDBRANCH  20  27
ENDBRANCH  17  23
ENDBRANCH   1  17
TORSDOF 4
ENDMDL
MODEL 2
REMARK VINA RESULT:      -8.8      0.122      1.296
REMARK  Name = 
REMARK  6 active torsions:
REMARK  status: ('A' for Active; 'I' for Inactive)
REMARK    1  A    between atoms: C_1  and  C_2
REMARK    2  A    between atoms: C_2  and  C_3
REMARK    3  A    between atoms: C_2  and  C_4
REMARK    4  A    between atoms: C_7  and  S_8
REMARK    5  A    between atoms: S_8  and  C_11
REMARK    6  A    between atoms: C_19  and  C_20
REMARK                            x       y       z     vdW  Elec       q    Type
REMARK                         _______ _______ _______ _____ _____    ______ ____
ROOT
ATOM      1  C   UNL     1       4.394   5.218  18.887  0.00  0.00    +0.000 A 
ATOM      2  S   UNL     1       4.876   3.628  19.305  0.00  0.00    +0.000 S 
ATOM      3  C   UNL     1       3.481   3.346  20.212  0.00  0.00    +0.000 A 
ATOM      4  N   UNL     1       3.325   2.172  20.854  0.00  0.00    +0.000 NA
ATOM      5  C   UNL     1       2.170   2.063  21.536  0.00  0.00    +0.000 A 
ATOM      6  C   UNL     1       1.187   3.031  21.592  0.00  0.00    +0.000 A 
ATOM      7  C   UNL     1       1.387   4.222  20.899  0.00  0.00    +0.000 A 
ATOM      8  C   UNL     1       2.597   4.416  20.186  0.00  0.00    +0.000 A 
ATOM      9  C   UNL     1       3.132   5.529  19.406  0.00  0.00    +0.000 A 
ENDROOT
BRANCH   9  10
ATOM     10  C   UNL     1       2.464   6.828  19.202  0.00  0.00    +0.000 A 
ATOM     11  C   UNL     1       2.311   7.351  17.906  0.00  0.00    +0.000 A 
ATOM     12  C   UNL     1       1.782   8.632  17.699  0.00  0.00    +0.000 A 
ATOM     13  C   UNL     1       1.337   9.381  18.783  0.00  0.00    +0.000 A 
ATOM     14 CL   UNL     1       0.691  10.955  18.534  0.00  0.00    +0.000 Cl
ATOM     15  C   UNL     1       1.438   8.868  20.068  0.00  0.00    +0.000 A 
ATOM     16  C   UNL     1       2.029   7.617  20.276  0.00  0.00    +0.000 A 
ENDBRANCH   9  10
BRANCH   1  17
ATOM     17  S   UNL     1       5.597   6.124  17.918  0.00  0.00    +0.000 S 
ATOM     18  O   UNL     1       6.833   6.003  18.660  0.00  0.00    +0.000 OA
ATOM     19  O   UNL     1       4.987   7.411  17.666  0.00  0.00    +0.000 OA
BRANCH  17  23
ATOM     20  C   UNL     1       6.241   4.157  13.840  0.00  0.00    +0.000 A 
ATOM     21  C   UNL     1       4.997   4.058  14.485  0.00  0.00    +0.000 A 
ATOM     22  C   UNL     1       4.791   4.647  15.736  0.00  0.00    +0.000 A 
ATOM     23  C   UNL     1       5.834   5.357  16.335  0.00  0.00    +0.000 A 
ATOM     24  C   UNL     1       7.085   5.445  15.721  0.00  0.00    +0.000 A 
ATOM     25  C   UNL     1       7.283   4.851  14.476  0.00  0.00    +0.000 A 
BRANCH  20  27
ATOM     26  C   UNL     1       5.114   3.169  11.812  0.00  0.00    +0.000 C 
ATOM     27  C   UNL     1       6.449   3.513  12.480  0.00  0.00    +0.000 C 
ATOM     28  C   UNL     1       7.303   4.399  11.569  0.00  0.00    +0.000 C 
ENDBRANCH  20  27
ENDBRANCH  17  23
ENDBRANCH   1  17
TORSDOF 4
ENDMDL
MODEL 3
REMARK VINA RESULT:      -8.5      3.087      7.187
REMARK  Name = 
REMARK  6 active torsions:
REMARK  status: ('A' for Active; 'I' for Inactive)
REMARK    1  A    between atoms: C_1  and  C_2
REMARK    2  A    between atoms: C_2  and  C_3
REMARK    3  A    between atoms: C_2  and  C_4
REMARK    4  A    between atoms: C_7  and  S_8
REMARK    5  A    between atoms: S_8  and  C_11
REMARK    6  A    between atoms: C_19  and  C_20
REMARK                            x       y       z     vdW  Elec       q    Type
REMARK                         _______ _______ _______ _____ _____    ______ ____
ROOT
ATOM      1  C   UNL     1       5.434   4.415  16.716  0.00  0.00    +0.000 A 
ATOM      2  S   UNL     1       4.955   3.305  15.502  0.00  0.00    +0.000 S 
ATOM      3  C   UNL     1       6.011   3.958  14.360  0.00  0.00    +0.000 A 
ATOM      4  N   UNL     1       6.039   3.458  13.109  0.00  0.00    +0.000 NA
ATOM      5  C   UNL     1       6.926   4.056  12.293  0.00  0.00    +0.000 A 
ATOM      6  C   UNL     1       7.774   5.082  12.658  0.00  0.00    +0.000 A 
ATOM      7  C   UNL     1       7.720   5.555  13.967  0.00  0.00    +0.000 A 
ATOM      8  C   UNL     1       6.784   4.992  14.871  0.00  0.00    +0.000 A 
ATOM      9  C   UNL     1       6.446   5.270  16.264  0.00  0.00    +0.000 A 
ENDROOT
BRANCH   9  10
ATOM     10  C   UNL     1       7.054   6.324  17.096  0.00  0.00    +0.000 A 
ATOM     11  C   UNL     1       6.932   7.676  16.730  0.00  0.00    +0.000 A 
ATOM     12  C   UNL     1       7.596   8.684  17.441  0.00  0.00    +0.000 A 
ATOM     13  C   UNL     1       8.340   8.359  18.571  0.00  0.00    +0.000 A 
ATOM     14 CL   UNL     1       9.160   9.591  19.446  0.00  0.00    +0.000 Cl
ATOM     15  C   UNL     1       8.440   7.036  18.978  0.00  0.00    +0.000 A 
ATOM     16  C   UNL     1       7.831   6.026  18.225  0.00  0.00    +0.000 A 
ENDBRANCH   9  10
BRANCH   1  17
ATOM     17  S   UNL     1       4.536   4.257  18.257  0.00  0.00    +0.000 S 
ATOM     18  O   UNL     1       5.564   4.144  19.271  0.00  0.00    +0.000 OA
ATOM     19  O   UNL     1       3.576   3.200  18.029  0.00  0.00    +0.000 OA
BRANCH  17  23
ATOM     20  C   UNL     1       2.130   8.057  19.088  0.00  0.00    +0.000 A 
ATOM     21  C   UNL     1       2.177   7.026  20.041  0.00  0.00    +0.000 A 
ATOM     22  C   UNL     1       2.902   5.856  19.795  0.00  0.00    +0.000 A 
ATOM     23  C   UNL     1       3.600   5.728  18.592  0.00  0.00    +0.000 A 
ATOM     24  C   UNL     1       3.544   6.731  17.622  0.00  0.00    +0.000 A 
ATOM     25  C   UNL     1       2.816   7.891  17.874  0.00  0.00    +0.000 A 
BRANCH  20  27
ATOM     26  C   UNL     1       0.546   9.775  18.141  0.00  0.00    +0.000 C 
ATOM     27  C   UNL     1       1.340   9.323  19.371  0.00  0.00    +0.000 C 
ATOM     28  C   UNL     1       0.418   9.145  20.580  0.00  0.00    +0.000 C 
ENDBRANCH  20  27
ENDBRANCH  17  23
ENDBRANCH   1  17
TORSDOF 4
ENDMDL
MODEL 4
REMARK VINA RESULT:      -8.3      3.094      7.083
REMARK  Name = 
REMARK  6 active torsions:
REMARK  status: ('A' for Active; 'I' for Inactive)
REMARK    1  A    between atoms: C_1  and  C_2
REMARK    2  A    between atoms: C_2  and  C_3
REMARK    3  A    between atoms: C_2  and  C_4
REMARK    4  A    between atoms: C_7  and  S_8
REMARK    5  A    between atoms: S_8  and  C_11
REMARK    6  A    between atoms: C_19  and  C_20
REMARK                            x       y       z     vdW  Elec       q    Type
REMARK                         _______ _______ _______ _____ _____    ______ ____
ROOT
ATOM      1  C   UNL     1       5.051   4.958  17.269  0.00  0.00    +0.000 A 
ATOM      2  S   UNL     1       4.421   3.778  16.199  0.00  0.00    +0.000 S 
ATOM      3  C   UNL     1       5.539   4.145  14.991  0.00  0.00    +0.000 A 
ATOM      4  N   UNL     1       5.488   3.496  13.811  0.00  0.00    +0.000 NA
ATOM      5  C   UNL     1       6.435   3.870  12.931  0.00  0.00    +0.000 A 
ATOM      6  C   UNL     1       7.412   4.816  13.171  0.00  0.00    +0.000 A 
ATOM      7  C   UNL     1       7.433   5.449  14.412  0.00  0.00    +0.000 A 
ATOM      8  C   UNL     1       6.444   5.126  15.373  0.00  0.00    +0.000 A 
ATOM      9  C   UNL     1       6.159   5.614  16.720  0.00  0.00    +0.000 A 
ENDROOT
BRANCH   9  10
ATOM     10  C   UNL     1       6.907   6.676  17.419  0.00  0.00    +0.000 A 
ATOM     11  C   UNL     1       6.779   8.017  17.014  0.00  0.00    +0.000 A 
ATOM     12  C   UNL     1       7.565   9.025  17.588  0.00  0.00    +0.000 A 
ATOM     13  C   UNL     1       8.442   8.717  18.622  0.00  0.00    +0.000 A 
ATOM     14 CL   UNL     1       9.411   9.949  19.327  0.00  0.00    +0.000 Cl
ATOM     15  C   UNL     1       8.553   7.407  19.068  0.00  0.00    +0.000 A 
ATOM     16  C   UNL     1       7.817   6.392  18.446  0.00  0.00    +0.000 A 
ENDBRANCH   9  10
BRANCH   1  17
ATOM     17  S   UNL     1       4.158   5.108  18.814  0.00  0.00    +0.000 S 
ATOM     18  O   UNL     1       5.188   5.256  19.820  0.00  0.00    +0.000 OA
ATOM     19  O   UNL     1       3.238   3.993  18.828  0.00  0.00    +0.000 OA
BRANCH  17  23
ATOM     20  C   UNL     1       1.599   8.898  18.880  0.00  0.00    +0.000 A 
ATOM     21  C   UNL     1       2.379   8.590  17.753  0.00  0.00    +0.000 A 
ATOM     22  C   UNL     1       3.172   7.439  17.725  0.00  0.00    +0.000 A 
ATOM     23  C   UNL     1       3.168   6.582  18.827  0.00  0.00    +0.000 A 
ATOM     24  C   UNL     1       2.419   6.884  19.966  0.00  0.00    +0.000 A 
ATOM     25  C   UNL     1       1.635   8.035  19.987  0.00  0.00    +0.000 A 
BRANCH  20  27
ATOM     26  C   UNL     1       1.570  11.403  18.591  0.00  0.00    +0.000 C 
ATOM     27  C   UNL     1       0.740  10.151  18.895  0.00  0.00    +0.000 C 
ATOM     28  C   UNL     1      -0.439  10.030  17.927  0.00  0.00    +0.000 C 
ENDBRANCH  20  27
ENDBRANCH  17  23
ENDBRANCH   1  17
TORSDOF 4
ENDMDL
MODEL 5
REMARK VINA RESULT:      -8.3      6.453      9.543
REMARK  Name = 
REMARK  6 active torsions:
REMARK  status: ('A' for Active; 'I' for Inactive)
REMARK    1  A    between atoms: C_1  and  C_2
REMARK    2  A    between atoms: C_2  and  C_3
REMARK    3  A    between atoms: C_2  and  C_4
REMARK    4  A    between atoms: C_7  and  S_8
REMARK    5  A    between atoms: S_8  and  C_11
REMARK    6  A    between atoms: C_19  and  C_20
REMARK                            x       y       z     vdW  Elec       q    Type
REMARK                         _______ _______ _______ _____ _____    ______ ____
ROOT
ATOM      1  C   UNL     1      -2.720  12.271  19.789  0.00  0.00    +0.000 A 
ATOM      2  S   UNL     1      -3.370  12.751  21.299  0.00  0.00    +0.000 S 
ATOM      3  C   UNL     1      -4.937  12.294  20.872  0.00  0.00    +0.000 A 
ATOM      4  N   UNL     1      -5.952  12.491  21.736  0.00  0.00    +0.000 NA
ATOM      5  C   UNL     1      -7.151  12.080  21.286  0.00  0.00    +0.000 A 
ATOM      6  C   UNL     1      -7.377  11.482  20.062  0.00  0.00    +0.000 A 
ATOM      7  C   UNL     1      -6.294  11.286  19.208  0.00  0.00    +0.000 A 
ATOM      8  C   UNL     1      -5.007  11.726  19.607  0.00  0.00    +0.000 A 
ATOM      9  C   UNL     1      -3.698  11.712  18.959  0.00  0.00    +0.000 A 
ENDROOT
BRANCH   9  10
ATOM     10  C   UNL     1      -3.424  11.208  17.600  0.00  0.00    +0.000 A 
ATOM     11  C   UNL     1      -4.130  11.721  16.498  0.00  0.00    +0.000 A 
ATOM     12  C   UNL     1      -3.968  11.178  15.216  0.00  0.00    +0.000 A 
ATOM     13  C   UNL     1      -3.047  10.157  15.008  0.00  0.00    +0.000 A 
ATOM     14 CL   UNL     1      -2.846   9.484  13.438  0.00  0.00    +0.000 Cl
ATOM     15  C   UNL     1      -2.307   9.663  16.073  0.00  0.00    +0.000 A 
ATOM     16  C   UNL     1      -2.521  10.162  17.363  0.00  0.00    +0.000 A 
ENDBRANCH   9  10
BRANCH   1  17
ATOM     17  S   UNL     1      -0.971  12.605  19.597  0.00  0.00    +0.000 S 
ATOM     18  O   UNL     1      -0.615  13.382  20.765  0.00  0.00    +0.000 OA
ATOM     19  O   UNL     1      -0.832  13.139  18.260  0.00  0.00    +0.000 OA
BRANCH  17  23
ATOM     20  C   UNL     1       1.455   8.729  19.677  0.00  0.00    +0.000 A 
ATOM     21  C   UNL     1       0.630   9.070  20.761  0.00  0.00    +0.000 A 
ATOM     22  C   UNL     1      -0.109  10.257  20.752  0.00  0.00    +0.000 A 
ATOM     23  C   UNL     1      -0.035  11.097  19.639  0.00  0.00    +0.000 A 
ATOM     24  C   UNL     1       0.799  10.787  18.563  0.00  0.00    +0.000 A 
ATOM     25  C   UNL     1       1.535   9.605  18.582  0.00  0.00    +0.000 A 
BRANCH  20  27
ATOM     26  C   UNL     1       1.554   6.363  20.544  0.00  0.00    +0.000 C 
ATOM     27  C   UNL     1       2.251   7.435  19.700  0.00  0.00    +0.000 C 
ATOM     28  C   UNL     1       2.523   6.923  18.284  0.00  0.00    +0.000 C 
ENDBRANCH  20  27
ENDBRANCH  17  23
ENDBRANCH   1  17
TORSDOF 4
ENDMDL
MODEL 6
REMARK VINA RESULT:      -8.3      6.278      9.353
REMARK  Name = 
REMARK  6 active torsions:
REMARK  status: ('A' for Active; 'I' for Inactive)
REMARK    1  A    between atoms: C_1  and  C_2
REMARK    2  A    between atoms: C_2  and  C_3
REMARK    3  A    between atoms: C_2  and  C_4
REMARK    4  A    between atoms: C_7  and  S_8
REMARK    5  A    between atoms: S_8  and  C_11
REMARK    6  A    between atoms: C_19  and  C_20
REMARK                            x       y       z     vdW  Elec       q    Type
REMARK                         _______ _______ _______ _____ _____    ______ ____
ROOT
ATOM      1  C   UNL     1      -2.222  12.470  19.879  0.00  0.00    +0.000 A 
ATOM      2  S   UNL     1      -2.618  13.122  21.413  0.00  0.00    +0.000 S 
ATOM      3  C   UNL     1      -4.256  12.755  21.249  0.00  0.00    +0.000 A 
ATOM      4  N   UNL     1      -5.121  13.101  22.222  0.00  0.00    +0.000 NA
ATOM      5  C   UNL     1      -6.397  12.748  21.980  0.00  0.00    +0.000 A 
ATOM      6  C   UNL     1      -6.834  12.071  20.858  0.00  0.00    +0.000 A 
ATOM      7  C   UNL     1      -5.899  11.722  19.886  0.00  0.00    +0.000 A 
ATOM      8  C   UNL     1      -4.543  12.092  20.063  0.00  0.00    +0.000 A 
ATOM      9  C   UNL     1      -3.344  11.922  19.246  0.00  0.00    +0.000 A 
ENDROOT
BRANCH   9  10
ATOM     10  C   UNL     1      -3.301  11.288  17.915  0.00  0.00    +0.000 A 
ATOM     11  C   UNL     1      -2.395  10.245  17.656  0.00  0.00    +0.000 A 
ATOM     12  C   UNL     1      -2.258   9.706  16.369  0.00  0.00    +0.000 A 
ATOM     13  C   UNL     1      -3.075  10.158  15.338  0.00  0.00    +0.000 A 
ATOM     14 CL   UNL     1      -2.909   9.503  13.758  0.00  0.00    +0.000 Cl
ATOM     15  C   UNL     1      -4.008  11.157  15.581  0.00  0.00    +0.000 A 
ATOM     16  C   UNL     1      -4.093  11.740  16.851  0.00  0.00    +0.000 A 
ENDBRANCH   9  10
BRANCH   1  17
ATOM     17  S   UNL     1      -0.501  12.650  19.420  0.00  0.00    +0.000 S 
ATOM     18  O   UNL     1       0.072  13.480  20.459  0.00  0.00    +0.000 OA
ATOM     19  O   UNL     1      -0.521  13.072  18.037  0.00  0.00    +0.000 OA
BRANCH  17  23
ATOM     20  C   UNL     1       1.617   8.598  19.548  0.00  0.00    +0.000 A 
ATOM     21  C   UNL     1       1.738   9.425  18.419  0.00  0.00    +0.000 A 
ATOM     22  C   UNL     1       1.087  10.661  18.364  0.00  0.00    +0.000 A 
ATOM     23  C   UNL     1       0.327  11.080  19.458  0.00  0.00    +0.000 A 
ATOM     24  C   UNL     1       0.174  10.261  20.579  0.00  0.00    +0.000 A 
ATOM     25  C   UNL     1       0.822   9.029  20.623  0.00  0.00    +0.000 A 
BRANCH  20  27
ATOM     26  C   UNL     1       1.636   6.285  20.552  0.00  0.00    +0.000 C 
ATOM     27  C   UNL     1       2.330   7.258  19.593  0.00  0.00    +0.000 C 
ATOM     28  C   UNL     1       2.458   6.648  18.196  0.00  0.00    +0.000 C 
ENDBRANCH  20  27
ENDBRANCH  17  23
ENDBRANCH   1  17
TORSDOF 4
ENDMDL
MODEL 7
REMARK VINA RESULT:      -8.1      5.555      8.410
REMARK  Name = 
REMARK  6 active torsions:
REMARK  status: ('A' for Active; 'I' for Inactive)
REMARK    1  A    between atoms: C_1  and  C_2
REMARK    2  A    between atoms: C_2  and  C_3
REMARK    3  A    between atoms: C_2  and  C_4
REMARK    4  A    between atoms: C_7  and  S_8
REMARK    5  A    between atoms: S_8  and  C_11
REMARK    6  A    between atoms: C_19  and  C_20
REMARK                            x       y       z     vdW  Elec       q    Type
REMARK                         _______ _______ _______ _____ _____    ______ ____
ROOT
ATOM      1  C   UNL     1      -0.862  11.372  19.566  0.00  0.00    +0.000 A 
ATOM      2  S   UNL     1      -1.269  10.559  18.114  0.00  0.00    +0.000 S 
ATOM      3  C   UNL     1      -2.877  11.065  18.175  0.00  0.00    +0.000 A 
ATOM      4  N   UNL     1      -3.743  10.661  17.224  0.00  0.00    +0.000 NA
ATOM      5  C   UNL     1      -4.993  11.136  17.376  0.00  0.00    +0.000 A 
ATOM      6  C   UNL     1      -5.403  11.982  18.387  0.00  0.00    +0.000 A 
ATOM      7  C   UNL     1      -4.468  12.384  19.338  0.00  0.00    +0.000 A 
ATOM      8  C   UNL     1      -3.140  11.894  19.256  0.00  0.00    +0.000 A 
ATOM      9  C   UNL     1      -1.952  12.079  20.085  0.00  0.00    +0.000 A 
ENDROOT
BRANCH   9  10
ATOM     10  C   UNL     1      -1.892  12.874  21.326  0.00  0.00    +0.000 A 
ATOM     11  C   UNL     1      -1.155  14.070  21.366  0.00  0.00    +0.000 A 
ATOM     12  C   UNL     1      -0.992  14.781  22.563  0.00  0.00    +0.000 A 
ATOM     13  C   UNL     1      -1.619  14.340  23.723  0.00  0.00    +0.000 A 
ATOM     14 CL   UNL     1      -1.419  15.206  25.194  0.00  0.00    +0.000 Cl
ATOM     15  C   UNL     1      -2.388  13.185  23.697  0.00  0.00    +0.000 A 
ATOM     16  C   UNL     1      -2.492  12.441  22.516  0.00  0.00    +0.000 A 
ENDBRANCH   9  10
BRANCH   1  17
ATOM     17  S   UNL     1       0.829  11.125  20.102  0.00  0.00    +0.000 S 
ATOM     18  O   UNL     1       0.750  11.053  21.545  0.00  0.00    +0.000 OA
ATOM     19  O   UNL     1       1.592  12.157  19.435  0.00  0.00    +0.000 OA
BRANCH  17  23
ATOM     20  C   UNL     1       2.451   7.139  18.553  0.00  0.00    +0.000 A 
ATOM     21  C   UNL     1       1.985   7.249  19.874  0.00  0.00    +0.000 A 
ATOM     22  C   UNL     1       1.496   8.464  20.361  0.00  0.00    +0.000 A 
ATOM     23  C   UNL     1       1.455   9.572  19.512  0.00  0.00    +0.000 A 
ATOM     24  C   UNL     1       1.938   9.490  18.204  0.00  0.00    +0.000 A 
ATOM     25  C   UNL     1       2.428   8.276  17.728  0.00  0.00    +0.000 A 
BRANCH  20  27
ATOM     26  C   UNL     1       4.116   5.280  18.916  0.00  0.00    +0.000 C 
ATOM     27  C   UNL     1       2.979   5.811  18.037  0.00  0.00    +0.000 C 
ATOM     28  C   UNL     1       1.857   4.778  17.912  0.00  0.00    +0.000 C 
ENDBRANCH  20  27
ENDBRANCH  17  23
ENDBRANCH   1  17
TORSDOF 4
ENDMDL
MODEL 8
REMARK VINA RESULT:      -8.1      5.604      8.432
REMARK  Name = 
REMARK  6 active torsions:
REMARK  status: ('A' for Active; 'I' for Inactive)
REMARK    1  A    between atoms: C_1  and  C_2
REMARK    2  A    between atoms: C_2  and  C_3
REMARK    3  A    between atoms: C_2  and  C_4
REMARK    4  A    between atoms: C_7  and  S_8
REMARK    5  A    between atoms: S_8  and  C_11
REMARK    6  A    between atoms: C_19  and  C_20
REMARK                            x       y       z     vdW  Elec       q    Type
REMARK                         _______ _______ _______ _____ _____    ______ ____
ROOT
ATOM      1  C   UNL     1      -0.870  11.400  19.572  0.00  0.00    +0.000 A 
ATOM      2  S   UNL     1      -1.236  10.637  18.083  0.00  0.00    +0.000 S 
ATOM      3  C   UNL     1      -2.854  11.110  18.134  0.00  0.00    +0.000 A 
ATOM      4  N   UNL     1      -3.696  10.728  17.153  0.00  0.00    +0.000 NA
ATOM      5  C   UNL     1      -4.957  11.173  17.301  0.00  0.00    +0.000 A 
ATOM      6  C   UNL     1      -5.401  11.971  18.337  0.00  0.00    +0.000 A 
ATOM      7  C   UNL     1      -4.490  12.352  19.320  0.00  0.00    +0.000 A 
ATOM      8  C   UNL     1      -3.153  11.891  19.242  0.00  0.00    +0.000 A 
ATOM      9  C   UNL     1      -1.983  12.065  20.100  0.00  0.00    +0.000 A 
ENDROOT
BRANCH   9  10
ATOM     10  C   UNL     1      -1.960  12.812  21.371  0.00  0.00    +0.000 A 
ATOM     11  C   UNL     1      -2.614  12.301  22.506  0.00  0.00    +0.000 A 
ATOM     12  C   UNL     1      -2.702  13.045  23.689  0.00  0.00    +0.000 A 
ATOM     13  C   UNL     1      -2.078  14.285  23.776  0.00  0.00    +0.000 A 
ATOM     14 CL   UNL     1      -2.185  15.204  25.225  0.00  0.00    +0.000 Cl
ATOM     15  C   UNL     1      -1.388  14.791  22.683  0.00  0.00    +0.000 A 
ATOM     16  C   UNL     1      -1.361  14.074  21.481  0.00  0.00    +0.000 A 
ENDBRANCH   9  10
BRANCH   1  17
ATOM     17  S   UNL     1       0.816  11.164  20.129  0.00  0.00    +0.000 S 
ATOM     18  O   UNL     1       0.720  11.095  21.572  0.00  0.00    +0.000 OA
ATOM     19  O   UNL     1       1.580  12.199  19.469  0.00  0.00    +0.000 OA
BRANCH  17  23
ATOM     20  C   UNL     1       2.460   7.154  18.668  0.00  0.00    +0.000 A 
ATOM     21  C   UNL     1       2.412   8.258  17.801  0.00  0.00    +0.000 A 
ATOM     22  C   UNL     1       1.903   9.486  18.233  0.00  0.00    +0.000 A 
ATOM     23  C   UNL     1       1.458   9.613  19.551  0.00  0.00    +0.000 A 
ATOM     24  C   UNL     1       1.474   8.520  20.420  0.00  0.00    +0.000 A 
ATOM     25  C   UNL     1       1.979   7.299  19.980  0.00  0.00    +0.000 A 
BRANCH  20  27
ATOM     26  C   UNL     1       4.019   5.240  19.185  0.00  0.00    +0.000 C 
ATOM     27  C   UNL     1       3.018   5.826  18.185  0.00  0.00    +0.000 C 
ATOM     28  C   UNL     1       1.897   4.828  17.886  0.00  0.00    +0.000 C 
ENDBRANCH  20  27
ENDBRANCH  17  23
ENDBRANCH   1  17
TORSDOF 4
ENDMDL
MODEL 9
REMARK VINA RESULT:      -8.1      5.463      8.252
REMARK  Name = 
REMARK  6 active torsions:
REMARK  status: ('A' for Active; 'I' for Inactive)
REMARK    1  A    between atoms: C_1  and  C_2
REMARK    2  A    between atoms: C_2  and  C_3
REMARK    3  A    between atoms: C_2  and  C_4
REMARK    4  A    between atoms: C_7  and  S_8
REMARK    5  A    between atoms: S_8  and  C_11
REMARK    6  A    between atoms: C_19  and  C_20
REMARK                            x       y       z     vdW  Elec       q    Type
REMARK                         _______ _______ _______ _____ _____    ______ ____
ROOT
ATOM      1  C   UNL     1      -0.774  11.298  19.475  0.00  0.00    +0.000 A 
ATOM      2  S   UNL     1      -1.200  10.477  18.033  0.00  0.00    +0.000 S 
ATOM      3  C   UNL     1      -2.802  10.997  18.102  0.00  0.00    +0.000 A 
ATOM      4  N   UNL     1      -3.680  10.594  17.162  0.00  0.00    +0.000 NA
ATOM      5  C   UNL     1      -4.924  11.081  17.320  0.00  0.00    +0.000 A 
ATOM      6  C   UNL     1      -5.319  11.938  18.328  0.00  0.00    +0.000 A 
ATOM      7  C   UNL     1      -4.373  12.339  19.268  0.00  0.00    +0.000 A 
ATOM      8  C   UNL     1      -3.050  11.837  19.179  0.00  0.00    +0.000 A 
ATOM      9  C   UNL     1      -1.854  12.018  19.998  0.00  0.00    +0.000 A 
ENDROOT
BRANCH   9  10
ATOM     10  C   UNL     1      -1.777  12.822  21.232  0.00  0.00    +0.000 A 
ATOM     11  C   UNL     1      -1.093  14.050  21.236  0.00  0.00    +0.000 A 
ATOM     12  C   UNL     1      -0.911  14.775  22.422  0.00  0.00    +0.000 A 
ATOM     13  C   UNL     1      -1.469  14.313  23.609  0.00  0.00    +0.000 A 
ATOM     14 CL   UNL     1      -1.246  15.196  25.067  0.00  0.00    +0.000 Cl
ATOM     15  C   UNL     1      -2.187  13.125  23.621  0.00  0.00    +0.000 A 
ATOM     16  C   UNL     1      -2.308  12.370  22.448  0.00  0.00    +0.000 A 
ENDBRANCH   9  10
BRANCH   1  17
ATOM     17  S   UNL     1       0.919  11.041  20.000  0.00  0.00    +0.000 S 
ATOM     18  O   UNL     1       0.864  11.071  21.446  0.00  0.00    +0.000 OA
ATOM     19  O   UNL     1       1.697  12.001  19.250  0.00  0.00    +0.000 OA
BRANCH  17  23
ATOM     20  C   UNL     1       2.384   6.887  18.769  0.00  0.00    +0.000 A 
ATOM     21  C   UNL     1       2.395   7.944  17.845  0.00  0.00    +0.000 A 
ATOM     22  C   UNL     1       1.940   9.216  18.206  0.00  0.00    +0.000 A 
ATOM     23  C   UNL     1       1.491   9.433  19.511  0.00  0.00    +0.000 A 
ATOM     24  C   UNL     1       1.449   8.388  20.436  0.00  0.00    +0.000 A 
ATOM     25  C   UNL     1       1.900   7.123  20.066  0.00  0.00    +0.000 A 
BRANCH  20  27
ATOM     26  C   UNL     1       1.749   4.649  17.795  0.00  0.00    +0.000 C 
ATOM     27  C   UNL     1       2.882   5.511  18.361  0.00  0.00    +0.000 C 
ATOM     28  C   UNL     1       4.041   5.610  17.366  0.00  0.00    +0.000 C 
ENDBRANCH  20  27
ENDBRANCH  17  23
ENDBRANCH   1  17
TORSDOF 4
ENDMDL
