MODEL 1
REMARK VINA RESULT:      -6.8      0.000      0.000
REMARK  Name = 
REMARK  5 active torsions:
REMARK  status: ('A' for Active; 'I' for Inactive)
REMARK    1  A    between atoms: C_1  and  C_2
REMARK    2  A    between atoms: C_2  and  C_3
REMARK    3  A    between atoms: C_3  and  N_4
REMARK    4  A    between atoms: C_8  and  C_9
REMARK    5  A    between atoms: N_17  and  C_18
REMARK                            x       y       z     vdW  Elec       q    Type
REMARK                         _______ _______ _______ _____ _____    ______ ____
ROOT
ATOM      1  C   UNL     1       4.897   5.641  18.661  0.00  0.00    +0.000 C 
ATOM      2  O   UNL     1       5.165   5.180  19.771  0.00  0.00    +0.000 OA
ATOM      3  N   UNL     1       3.709   6.372  18.476  0.00  0.00    +0.000 N 
ATOM      4  C   UNL     1       3.384   7.220  17.328  0.00  0.00    +0.000 C 
ATOM      5  C   UNL     1       2.688   8.543  17.719  0.00  0.00    +0.000 C 
ATOM      6  N   UNL     1       1.625   8.406  18.731  0.00  0.00    +0.000 NA
ATOM      7  C   UNL     1       1.150   9.734  19.173  0.00  0.00    +0.000 C 
ATOM      8  C   UNL     1       0.367   9.805  20.517  0.00  0.00    +0.000 C 
ATOM      9  N   UNL     1       0.588   8.764  21.536  0.00  0.00    +0.000 NA
ATOM     10  C   UNL     1       1.555   9.155  22.560  0.00  0.00    +0.000 C 
ATOM     11  C   UNL     1       0.957   7.481  20.912  0.00  0.00    +0.000 C 
ATOM     12  C   UNL     1       2.109   7.622  19.890  0.00  0.00    +0.000 C 
ATOM     13  C   UNL     1       2.628   6.239  19.453  0.00  0.00    +0.000 C 
ENDROOT
BRANCH   1  18
ATOM     14  N   UNL     1       6.984   6.055  17.290  0.00  0.00    +0.000 N 
ATOM     15  N   UNL     1       7.553   5.698  16.111  0.00  0.00    +0.000 NA
ATOM     16  C   UNL     1       6.773   4.732  15.649  0.00  0.00    +0.000 A 
ATOM     17  C   UNL     1       5.685   4.495  16.492  0.00  0.00    +0.000 A 
ATOM     18  C   UNL     1       5.775   5.426  17.520  0.00  0.00    +0.000 A 
BRANCH  14  19
ATOM     19  C   UNL     1       7.724   6.991  18.119  0.00  0.00    +0.000 C 
BRANCH  19  21
ATOM     20  C   UNL     1       8.580   9.341  18.407  0.00  0.00    +0.000 C 
ATOM     21  C   UNL     1       7.772   8.398  17.527  0.00  0.00    +0.000 C 
ENDBRANCH  19  21
ENDBRANCH  14  19
ENDBRANCH   1  18
TORSDOF 3
ENDMDL
MODEL 2
REMARK VINA RESULT:      -6.1      0.925      1.128
REMARK  Name = 
REMARK  5 active torsions:
REMARK  status: ('A' for Active; 'I' for Inactive)
REMARK    1  A    between atoms: C_1  and  C_2
REMARK    2  A    between atoms: C_2  and  C_3
REMARK    3  A    between atoms: C_3  and  N_4
REMARK    4  A    between atoms: C_8  and  C_9
REMARK    5  A    between atoms: N_17  and  C_18
REMARK                            x       y       z     vdW  Elec       q    Type
REMARK                         _______ _______ _______ _____ _____    ______ ____
ROOT
ATOM      1  C   UNL     1       4.194   5.828  18.545  0.00  0.00    +0.000 C 
ATOM      2  O   UNL     1       4.489   5.270  19.602  0.00  0.00    +0.000 OA
ATOM      3  N   UNL     1       3.091   6.700  18.499  0.00  0.00    +0.000 N 
ATOM      4  C   UNL     1       2.782   7.650  17.430  0.00  0.00    +0.000 C 
ATOM      5  C   UNL     1       2.281   9.017  17.948  0.00  0.00    +0.000 C 
ATOM      6  N   UNL     1       1.289   8.939  19.035  0.00  0.00    +0.000 NA
ATOM      7  C   UNL     1       1.010  10.281  19.586  0.00  0.00    +0.000 C 
ATOM      8  C   UNL     1       0.345  10.356  20.992  0.00  0.00    +0.000 C 
ATOM      9  N   UNL     1       0.518   9.233  21.932  0.00  0.00    +0.000 NA
ATOM     10  C   UNL     1       1.599   9.446  22.891  0.00  0.00    +0.000 C 
ATOM     11  C   UNL     1       0.683   7.960  21.210  0.00  0.00    +0.000 C 
ATOM     12  C   UNL     1       1.763   8.033  20.106  0.00  0.00    +0.000 C 
ATOM     13  C   UNL     1       2.079   6.630  19.553  0.00  0.00    +0.000 C 
ENDROOT
BRANCH   1  18
ATOM     14  N   UNL     1       5.993   6.358  16.845  0.00  0.00    +0.000 N 
ATOM     15  N   UNL     1       6.469   5.924  15.652  0.00  0.00    +0.000 NA
ATOM     16  C   UNL     1       5.821   4.789  15.432  0.00  0.00    +0.000 A 
ATOM     17  C   UNL     1       4.903   4.512  16.447  0.00  0.00    +0.000 A 
ATOM     18  C   UNL     1       4.951   5.587  17.325  0.00  0.00    +0.000 A 
BRANCH  14  19
ATOM     19  C   UNL     1       6.651   7.512  17.434  0.00  0.00    +0.000 C 
BRANCH  19  21
ATOM     20  C   UNL     1       7.875   5.981  19.013  0.00  0.00    +0.000 C 
ATOM     21  C   UNL     1       7.997   7.167  18.067  0.00  0.00    +0.000 C 
ENDBRANCH  19  21
ENDBRANCH  14  19
ENDBRANCH   1  18
TORSDOF 3
ENDMDL
MODEL 3
REMARK VINA RESULT:      -6.0      2.499      3.330
REMARK  Name = 
REMARK  5 active torsions:
REMARK  status: ('A' for Active; 'I' for Inactive)
REMARK    1  A    between atoms: C_1  and  C_2
REMARK    2  A    between atoms: C_2  and  C_3
REMARK    3  A    between atoms: C_3  and  N_4
REMARK    4  A    between atoms: C_8  and  C_9
REMARK    5  A    between atoms: N_17  and  C_18
REMARK                            x       y       z     vdW  Elec       q    Type
REMARK                         _______ _______ _______ _____ _____    ______ ____
ROOT
ATOM      1  C   UNL     1       5.093   3.571  16.204  0.00  0.00    +0.000 C 
ATOM      2  O   UNL     1       5.127   2.359  16.416  0.00  0.00    +0.000 OA
ATOM      3  N   UNL     1       4.092   4.358  16.803  0.00  0.00    +0.000 N 
ATOM      4  C   UNL     1       4.077   5.819  16.894  0.00  0.00    +0.000 C 
ATOM      5  C   UNL     1       3.590   6.345  18.263  0.00  0.00    +0.000 C 
ATOM      6  N   UNL     1       2.398   5.661  18.798  0.00  0.00    +0.000 NA
ATOM      7  C   UNL     1       2.120   6.102  20.181  0.00  0.00    +0.000 C 
ATOM      8  C   UNL     1       1.196   5.198  21.049  0.00  0.00    +0.000 C 
ATOM      9  N   UNL     1       1.091   3.761  20.735  0.00  0.00    +0.000 NA
ATOM     10  C   UNL     1       1.973   2.927  21.549  0.00  0.00    +0.000 C 
ATOM     11  C   UNL     1       1.298   3.517  19.297  0.00  0.00    +0.000 C 
ATOM     12  C   UNL     1       2.578   4.192  18.753  0.00  0.00    +0.000 C 
ATOM     13  C   UNL     1       2.888   3.710  17.323  0.00  0.00    +0.000 C 
ENDROOT
BRANCH   1  18
ATOM     14  N   UNL     1       7.086   5.050  15.707  0.00  0.00    +0.000 N 
ATOM     15  N   UNL     1       7.787   5.548  14.658  0.00  0.00    +0.000 NA
ATOM     16  C   UNL     1       7.292   4.919  13.603  0.00  0.00    +0.000 A 
ATOM     17  C   UNL     1       6.250   4.057  13.954  0.00  0.00    +0.000 A 
ATOM     18  C   UNL     1       6.056   4.213  15.321  0.00  0.00    +0.000 A 
BRANCH  14  19
ATOM     19  C   UNL     1       7.531   5.435  17.036  0.00  0.00    +0.000 C 
BRANCH  19  21
ATOM     20  C   UNL     1       8.193   7.345  18.535  0.00  0.00    +0.000 C 
ATOM     21  C   UNL     1       7.429   6.938  17.282  0.00  0.00    +0.000 C 
ENDBRANCH  19  21
ENDBRANCH  14  19
ENDBRANCH   1  18
TORSDOF 3
ENDMDL
MODEL 4
REMARK VINA RESULT:      -5.9      3.499      7.231
REMARK  Name = 
REMARK  5 active torsions:
REMARK  status: ('A' for Active; 'I' for Inactive)
REMARK    1  A    between atoms: C_1  and  C_2
REMARK    2  A    between atoms: C_2  and  C_3
REMARK    3  A    between atoms: C_3  and  N_4
REMARK    4  A    between atoms: C_8  and  C_9
REMARK    5  A    between atoms: N_17  and  C_18
REMARK                            x       y       z     vdW  Elec       q    Type
REMARK                         _______ _______ _______ _____ _____    ______ ____
ROOT
ATOM      1  C   UNL     1       0.356   9.310  20.419  0.00  0.00    +0.000 C 
ATOM      2  O   UNL     1      -0.365   8.891  21.324  0.00  0.00    +0.000 OA
ATOM      3  N   UNL     1       1.393   8.501  19.919  0.00  0.00    +0.000 N 
ATOM      4  C   UNL     1       2.140   8.716  18.679  0.00  0.00    +0.000 C 
ATOM      5  C   UNL     1       2.402   7.417  17.886  0.00  0.00    +0.000 C 
ATOM      6  N   UNL     1       2.845   6.273  18.704  0.00  0.00    +0.000 NA
ATOM      7  C   UNL     1       2.891   5.038  17.893  0.00  0.00    +0.000 C 
ATOM      8  C   UNL     1       2.906   3.680  18.656  0.00  0.00    +0.000 C 
ATOM      9  N   UNL     1       2.333   3.608  20.012  0.00  0.00    +0.000 NA
ATOM     10  C   UNL     1       0.953   3.129  20.031  0.00  0.00    +0.000 C 
ATOM     11  C   UNL     1       2.462   4.899  20.710  0.00  0.00    +0.000 C 
ATOM     12  C   UNL     1       1.948   6.089  19.868  0.00  0.00    +0.000 C 
ATOM     13  C   UNL     1       1.867   7.371  20.719  0.00  0.00    +0.000 C 
ENDROOT
BRANCH   1  18
ATOM     14  N   UNL     1      -0.730  11.007  18.887  0.00  0.00    +0.000 N 
ATOM     15  N   UNL     1      -0.628  12.310  18.525  0.00  0.00    +0.000 NA
ATOM     16  C   UNL     1       0.255  12.819  19.372  0.00  0.00    +0.000 A 
ATOM     17  C   UNL     1       0.755  11.849  20.244  0.00  0.00    +0.000 A 
ATOM     18  C   UNL     1       0.177  10.644  19.865  0.00  0.00    +0.000 A 
BRANCH  14  19
ATOM     19  C   UNL     1      -1.765  10.223  18.235  0.00  0.00    +0.000 C 
BRANCH  19  21
ATOM     20  C   UNL     1      -2.699   9.939  15.915  0.00  0.00    +0.000 C 
ATOM     21  C   UNL     1      -2.367  10.929  17.022  0.00  0.00    +0.000 C 
ENDBRANCH  19  21
ENDBRANCH  14  19
ENDBRANCH   1  18
TORSDOF 3
ENDMDL
MODEL 5
REMARK VINA RESULT:      -5.7      2.428      7.427
REMARK  Name = 
REMARK  5 active torsions:
REMARK  status: ('A' for Active; 'I' for Inactive)
REMARK    1  A    between atoms: C_1  and  C_2
REMARK    2  A    between atoms: C_2  and  C_3
REMARK    3  A    between atoms: C_3  and  N_4
REMARK    4  A    between atoms: C_8  and  C_9
REMARK    5  A    between atoms: N_17  and  C_18
REMARK                            x       y       z     vdW  Elec       q    Type
REMARK                         _______ _______ _______ _____ _____    ______ ____
ROOT
ATOM      1  C   UNL     1       1.901   9.601  18.318  0.00  0.00    +0.000 C 
ATOM      2  O   UNL     1       2.511  10.366  17.571  0.00  0.00    +0.000 OA
ATOM      3  N   UNL     1       2.245   8.237  18.353  0.00  0.00    +0.000 N 
ATOM      4  C   UNL     1       1.835   7.266  19.368  0.00  0.00    +0.000 C 
ATOM      5  C   UNL     1       2.965   6.299  19.787  0.00  0.00    +0.000 C 
ATOM      6  N   UNL     1       3.757   5.755  18.669  0.00  0.00    +0.000 NA
ATOM      7  C   UNL     1       4.920   4.995  19.173  0.00  0.00    +0.000 C 
ATOM      8  C   UNL     1       6.088   4.726  18.179  0.00  0.00    +0.000 C 
ATOM      9  N   UNL     1       6.286   5.637  17.036  0.00  0.00    +0.000 NA
ATOM     10  C   UNL     1       7.291   6.667  17.288  0.00  0.00    +0.000 C 
ATOM     11  C   UNL     1       5.008   6.228  16.602  0.00  0.00    +0.000 C 
ATOM     12  C   UNL     1       4.206   6.844  17.771  0.00  0.00    +0.000 C 
ATOM     13  C   UNL     1       3.012   7.664  17.246  0.00  0.00    +0.000 C 
ENDROOT
BRANCH   1  18
ATOM     14  N   UNL     1      -0.507  10.237  18.763  0.00  0.00    +0.000 N 
ATOM     15  N   UNL     1      -1.293  10.749  19.743  0.00  0.00    +0.000 NA
ATOM     16  C   UNL     1      -0.509  10.782  20.810  0.00  0.00    +0.000 A 
ATOM     17  C   UNL     1       0.784  10.342  20.518  0.00  0.00    +0.000 A 
ATOM     18  C   UNL     1       0.808  10.071  19.155  0.00  0.00    +0.000 A 
BRANCH  14  19
ATOM     19  C   UNL     1      -1.154   9.921  17.501  0.00  0.00    +0.000 C 
BRANCH  19  21
ATOM     20  C   UNL     1      -3.309  10.177  16.227  0.00  0.00    +0.000 C 
ATOM     21  C   UNL     1      -2.678   9.949  17.592  0.00  0.00    +0.000 C 
ENDBRANCH  19  21
ENDBRANCH  14  19
ENDBRANCH   1  18
TORSDOF 3
ENDMDL
MODEL 6
REMARK VINA RESULT:      -5.6      1.486      3.001
REMARK  Name = 
REMARK  5 active torsions:
REMARK  status: ('A' for Active; 'I' for Inactive)
REMARK    1  A    between atoms: C_1  and  C_2
REMARK    2  A    between atoms: C_2  and  C_3
REMARK    3  A    between atoms: C_3  and  N_4
REMARK    4  A    between atoms: C_8  and  C_9
REMARK    5  A    between atoms: N_17  and  C_18
REMARK                            x       y       z     vdW  Elec       q    Type
REMARK                         _______ _______ _______ _____ _____    ______ ____
ROOT
ATOM      1  C   UNL     1       4.504   5.511  18.989  0.00  0.00    +0.000 C 
ATOM      2  O   UNL     1       4.703   5.070  20.121  0.00  0.00    +0.000 OA
ATOM      3  N   UNL     1       3.398   6.346  18.747  0.00  0.00    +0.000 N 
ATOM      4  C   UNL     1       3.181   7.175  17.561  0.00  0.00    +0.000 C 
ATOM      5  C   UNL     1       2.611   8.574  17.884  0.00  0.00    +0.000 C 
ATOM      6  N   UNL     1       1.519   8.582  18.875  0.00  0.00    +0.000 NA
ATOM      7  C   UNL     1       1.168   9.967  19.255  0.00  0.00    +0.000 C 
ATOM      8  C   UNL     1       0.368  10.167  20.576  0.00  0.00    +0.000 C 
ATOM      9  N   UNL     1       0.466   9.151  21.639  0.00  0.00    +0.000 NA
ATOM     10  C   UNL     1       1.445   9.487  22.670  0.00  0.00    +0.000 C 
ATOM     11  C   UNL     1       0.719   7.815  21.072  0.00  0.00    +0.000 C 
ATOM     12  C   UNL     1       1.900   7.802  20.075  0.00  0.00    +0.000 C 
ATOM     13  C   UNL     1       2.289   6.359  19.702  0.00  0.00    +0.000 C 
ENDROOT
BRANCH   1  18
ATOM     14  N   UNL     1       5.123   4.225  16.898  0.00  0.00    +0.000 N 
ATOM     15  N   UNL     1       6.149   4.075  16.024  0.00  0.00    +0.000 NA
ATOM     16  C   UNL     1       7.012   5.022  16.364  0.00  0.00    +0.000 A 
ATOM     17  C   UNL     1       6.574   5.749  17.473  0.00  0.00    +0.000 A 
ATOM     18  C   UNL     1       5.379   5.166  17.878  0.00  0.00    +0.000 A 
BRANCH  14  19
ATOM     19  C   UNL     1       3.935   3.423  16.660  0.00  0.00    +0.000 C 
BRANCH  19  21
ATOM     20  C   UNL     1       2.209   2.371  18.160  0.00  0.00    +0.000 C 
ATOM     21  C   UNL     1       3.679   2.401  17.765  0.00  0.00    +0.000 C 
ENDBRANCH  19  21
ENDBRANCH  14  19
ENDBRANCH   1  18
TORSDOF 3
ENDMDL
MODEL 7
REMARK VINA RESULT:      -5.5      2.434      3.823
REMARK  Name = 
REMARK  5 active torsions:
REMARK  status: ('A' for Active; 'I' for Inactive)
REMARK    1  A    between atoms: C_1  and  C_2
REMARK    2  A    between atoms: C_2  and  C_3
REMARK    3  A    between atoms: C_3  and  N_4
REMARK    4  A    between atoms: C_8  and  C_9
REMARK    5  A    between atoms: N_17  and  C_18
REMARK                            x       y       z     vdW  Elec       q    Type
REMARK                         _______ _______ _______ _____ _____    ______ ____
ROOT
ATOM      1  C   UNL     1       2.580   5.645  18.602  0.00  0.00    +0.000 C 
ATOM      2  O   UNL     1       2.387   5.639  17.386  0.00  0.00    +0.000 OA
ATOM      3  N   UNL     1       2.345   6.819  19.341  0.00  0.00    +0.000 N 
ATOM      4  C   UNL     1       2.242   6.919  20.798  0.00  0.00    +0.000 C 
ATOM      5  C   UNL     1       1.112   7.860  21.271  0.00  0.00    +0.000 C 
ATOM      6  N   UNL     1       1.024   9.137  20.538  0.00  0.00    +0.000 NA
ATOM      7  C   UNL     1      -0.189   9.883  20.932  0.00  0.00    +0.000 C 
ATOM      8  C   UNL     1      -0.679  11.011  19.977  0.00  0.00    +0.000 C 
ATOM      9  N   UNL     1      -0.326  10.950  18.547  0.00  0.00    +0.000 NA
ATOM     10  C   UNL     1      -1.378  10.364  17.718  0.00  0.00    +0.000 C 
ATOM     11  C   UNL     1       0.960  10.259  18.348  0.00  0.00    +0.000 C 
ATOM     12  C   UNL     1       1.027   8.897  19.076  0.00  0.00    +0.000 C 
ATOM     13  C   UNL     1       2.274   8.103  18.643  0.00  0.00    +0.000 C 
ENDROOT
BRANCH   1  18
ATOM     14  N   UNL     1       4.400   4.126  19.487  0.00  0.00    +0.000 N 
ATOM     15  N   UNL     1       4.558   2.935  20.118  0.00  0.00    +0.000 NA
ATOM     16  C   UNL     1       3.328   2.575  20.454  0.00  0.00    +0.000 A 
ATOM     17  C   UNL     1       2.378   3.496  20.008  0.00  0.00    +0.000 A 
ATOM     18  C   UNL     1       3.074   4.465  19.295  0.00  0.00    +0.000 A 
BRANCH  14  19
ATOM     19  C   UNL     1       5.610   4.855  19.149  0.00  0.00    +0.000 C 
BRANCH  19  21
ATOM     20  C   UNL     1       7.587   4.649  17.604  0.00  0.00    +0.000 C 
ATOM     21  C   UNL     1       6.069   4.609  17.714  0.00  0.00    +0.000 C 
ENDBRANCH  19  21
ENDBRANCH  14  19
ENDBRANCH   1  18
TORSDOF 3
ENDMDL
MODEL 8
REMARK VINA RESULT:      -5.5      2.243      3.705
REMARK  Name = 
REMARK  5 active torsions:
REMARK  status: ('A' for Active; 'I' for Inactive)
REMARK    1  A    between atoms: C_1  and  C_2
REMARK    2  A    between atoms: C_2  and  C_3
REMARK    3  A    between atoms: C_3  and  N_4
REMARK    4  A    between atoms: C_8  and  C_9
REMARK    5  A    between atoms: N_17  and  C_18
REMARK                            x       y       z     vdW  Elec       q    Type
REMARK                         _______ _______ _______ _____ _____    ______ ____
ROOT
ATOM      1  C   UNL     1       3.144   5.346  19.913  0.00  0.00    +0.000 C 
ATOM      2  O   UNL     1       3.026   4.761  20.990  0.00  0.00    +0.000 OA
ATOM      3  N   UNL     1       2.302   6.432  19.611  0.00  0.00    +0.000 N 
ATOM      4  C   UNL     1       2.492   7.402  18.533  0.00  0.00    +0.000 C 
ATOM      5  C   UNL     1       2.174   8.856  18.950  0.00  0.00    +0.000 C 
ATOM      6  N   UNL     1       0.939   9.015  19.738  0.00  0.00    +0.000 NA
ATOM      7  C   UNL     1       0.816  10.399  20.244  0.00  0.00    +0.000 C 
ATOM      8  C   UNL     1      -0.162  10.644  21.430  0.00  0.00    +0.000 C 
ATOM      9  N   UNL     1      -0.482   9.532  22.343  0.00  0.00    +0.000 NA
ATOM     10  C   UNL     1       0.330   9.531  23.558  0.00  0.00    +0.000 C 
ATOM     11  C   UNL     1      -0.408   8.237  21.646  0.00  0.00    +0.000 C 
ATOM     12  C   UNL     1       0.913   8.053  20.864  0.00  0.00    +0.000 C 
ATOM     13  C   UNL     1       1.058   6.603  20.363  0.00  0.00    +0.000 C 
ENDROOT
BRANCH   1  18
ATOM     14  N   UNL     1       3.874   4.151  17.804  0.00  0.00    +0.000 N 
ATOM     15  N   UNL     1       4.994   3.862  17.097  0.00  0.00    +0.000 NA
ATOM     16  C   UNL     1       5.948   4.565  17.689  0.00  0.00    +0.000 A 
ATOM     17  C   UNL     1       5.464   5.266  18.796  0.00  0.00    +0.000 A 
ATOM     18  C   UNL     1       4.124   4.921  18.924  0.00  0.00    +0.000 A 
BRANCH  14  19
ATOM     19  C   UNL     1       2.616   3.650  17.277  0.00  0.00    +0.000 C 
BRANCH  19  21
ATOM     20  C   UNL     1       1.140   2.362  18.857  0.00  0.00    +0.000 C 
ATOM     21  C   UNL     1       2.252   2.271  17.822  0.00  0.00    +0.000 C 
ENDBRANCH  19  21
ENDBRANCH  14  19
ENDBRANCH   1  18
TORSDOF 3
ENDMDL
MODEL 9
REMARK VINA RESULT:      -5.5      2.285      7.219
REMARK  Name = 
REMARK  5 active torsions:
REMARK  status: ('A' for Active; 'I' for Inactive)
REMARK    1  A    between atoms: C_1  and  C_2
REMARK    2  A    between atoms: C_2  and  C_3
REMARK    3  A    between atoms: C_3  and  N_4
REMARK    4  A    between atoms: C_8  and  C_9
REMARK    5  A    between atoms: N_17  and  C_18
REMARK                            x       y       z     vdW  Elec       q    Type
REMARK                         _______ _______ _______ _____ _____    ______ ____
ROOT
ATOM      1  C   UNL     1       2.621   5.335  17.966  0.00  0.00    +0.000 C 
ATOM      2  O   UNL     1       1.795   4.587  17.445  0.00  0.00    +0.000 OA
ATOM      3  N   UNL     1       3.969   5.275  17.568  0.00  0.00    +0.000 N 
ATOM      4  C   UNL     1       5.005   6.266  17.862  0.00  0.00    +0.000 C 
ATOM      5  C   UNL     1       5.941   6.551  16.666  0.00  0.00    +0.000 C 
ATOM      6  N   UNL     1       6.396   5.352  15.939  0.00  0.00    +0.000 NA
ATOM      7  C   UNL     1       7.128   5.731  14.712  0.00  0.00    +0.000 C 
ATOM      8  C   UNL     1       7.298   4.642  13.613  0.00  0.00    +0.000 C 
ATOM      9  N   UNL     1       6.326   3.536  13.536  0.00  0.00    +0.000 NA
ATOM     10  C   UNL     1       5.266   3.767  12.557  0.00  0.00    +0.000 C 
ATOM     11  C   UNL     1       5.770   3.228  14.866  0.00  0.00    +0.000 C 
ATOM     12  C   UNL     1       5.246   4.482  15.602  0.00  0.00    +0.000 C 
ATOM     13  C   UNL     1       4.454   4.088  16.863  0.00  0.00    +0.000 C 
ENDROOT
BRANCH   1  18
ATOM     14  N   UNL     1       2.023   5.968  20.343  0.00  0.00    +0.000 N 
ATOM     15  N   UNL     1       1.618   7.037  21.074  0.00  0.00    +0.000 NA
ATOM     16  C   UNL     1       1.708   8.060  20.238  0.00  0.00    +0.000 A 
ATOM     17  C   UNL     1       2.122   7.657  18.966  0.00  0.00    +0.000 A 
ATOM     18  C   UNL     1       2.239   6.273  19.012  0.00  0.00    +0.000 A 
BRANCH  14  19
ATOM     19  C   UNL     1       2.193   4.712  21.054  0.00  0.00    +0.000 C 
BRANCH  19  21
ATOM     20  C   UNL     1       1.651   2.411  20.191  0.00  0.00    +0.000 C 
ATOM     21  C   UNL     1       1.085   3.706  20.754  0.00  0.00    +0.000 C 
ENDBRANCH  19  21
ENDBRANCH  14  19
ENDBRANCH   1  18
TORSDOF 3
ENDMDL
