MODEL 1
REMARK VINA RESULT:      -6.9      0.000      0.000
REMARK  Name = 
REMARK  9 active torsions:
REMARK  status: ('A' for Active; 'I' for Inactive)
REMARK    1  A    between atoms: C_1  and  C_2
REMARK    2  A    between atoms: C_2  and  C_3
REMARK    3  A    between atoms: C_3  and  C_5
REMARK    4  A    between atoms: C_6  and  O_7
REMARK    5  A    between atoms: C_11  and  O_12
REMARK    6  A    between atoms: O_12  and  C_13
REMARK    7  A    between atoms: C_13  and  C_14
REMARK    8  A    between atoms: C_14  and  C_15
REMARK    9  A    between atoms: C_15  and  N_16
REMARK                            x       y       z     vdW  Elec       q    Type
REMARK                         _______ _______ _______ _____ _____    ______ ____
ROOT
ATOM      1  C   UNL     1       6.572   5.719  17.388  0.00  0.00    +0.000 A 
ATOM      2  C   UNL     1       7.188   4.664  16.684  0.00  0.00    +0.000 A 
ATOM      3  C   UNL     1       6.732   4.261  15.430  0.00  0.00    +0.000 A 
ATOM      4  C   UNL     1       5.650   4.908  14.855  0.00  0.00    +0.000 A 
ATOM      5  C   UNL     1       5.022   5.949  15.536  0.00  0.00    +0.000 A 
ATOM      6  C   UNL     1       5.444   6.346  16.821  0.00  0.00    +0.000 A 
ENDROOT
BRANCH   1   7
ATOM      7  C   UNL     1       7.153   6.088  18.711  0.00  0.00    +0.000 C 
ATOM      8  O   UNL     1       6.760   5.461  19.701  0.00  0.00    +0.000 OA
BRANCH   7  10
ATOM      9  C   UNL     1       8.020   8.246  17.792  0.00  0.00    +0.000 C 
ATOM     10  C   UNL     1       8.241   7.134  18.815  0.00  0.00    +0.000 C 
ENDBRANCH   7  10
ENDBRANCH   1   7
BRANCH   2  11
ATOM     11  O   UNL     1       8.260   3.959  17.170  0.00  0.00    +0.000 OA
ATOM     12  H   UNL     1       8.676   4.500  17.880  0.00  0.00    +0.000 HD
ENDBRANCH   2  11
BRANCH   6  13
ATOM     13  O   UNL     1       4.765   7.300  17.551  0.00  0.00    +0.000 OA
BRANCH  13  14
ATOM     14  C   UNL     1       3.382   6.997  17.781  0.00  0.00    +0.000 C 
BRANCH  14  15
ATOM     15  C   UNL     1       3.226   5.882  18.809  0.00  0.00    +0.000 C 
BRANCH  15  16
ATOM     16  C   UNL     1       2.208   4.856  18.284  0.00  0.00    +0.000 C 
BRANCH  16  17
ATOM     17  N   UNL     1       2.411   3.481  18.766  0.00  0.00    +0.000 NA
ATOM     18  C   UNL     1       1.164   2.822  19.192  0.00  0.00    +0.000 C 
ATOM     19  C   UNL     1       0.975   3.234  20.637  0.00  0.00    +0.000 C 
ATOM     20  C   UNL     1       2.388   3.183  21.177  0.00  0.00    +0.000 C 
ATOM     21  C   UNL     1       3.276   3.483  19.971  0.00  0.00    +0.000 C 
ENDBRANCH  16  17
ENDBRANCH  15  16
ENDBRANCH  14  15
ENDBRANCH  13  14
ENDBRANCH   6  13
TORSDOF 8
ENDMDL
MODEL 2
REMARK VINA RESULT:      -6.9      1.839      3.380
REMARK  Name = 
REMARK  9 active torsions:
REMARK  status: ('A' for Active; 'I' for Inactive)
REMARK    1  A    between atoms: C_1  and  C_2
REMARK    2  A    between atoms: C_2  and  C_3
REMARK    3  A    between atoms: C_3  and  C_5
REMARK    4  A    between atoms: C_6  and  O_7
REMARK    5  A    between atoms: C_11  and  O_12
REMARK    6  A    between atoms: O_12  and  C_13
REMARK    7  A    between atoms: C_13  and  C_14
REMARK    8  A    between atoms: C_14  and  C_15
REMARK    9  A    between atoms: C_15  and  N_16
REMARK                            x       y       z     vdW  Elec       q    Type
REMARK                         _______ _______ _______ _____ _____    ______ ____
ROOT
ATOM      1  C   UNL     1       5.832   5.750  16.951  0.00  0.00    +0.000 A 
ATOM      2  C   UNL     1       7.089   6.277  17.314  0.00  0.00    +0.000 A 
ATOM      3  C   UNL     1       7.598   6.125  18.603  0.00  0.00    +0.000 A 
ATOM      4  C   UNL     1       6.859   5.440  19.554  0.00  0.00    +0.000 A 
ATOM      5  C   UNL     1       5.612   4.917  19.218  0.00  0.00    +0.000 A 
ATOM      6  C   UNL     1       5.063   5.093  17.932  0.00  0.00    +0.000 A 
ENDROOT
BRANCH   1   7
ATOM      7  C   UNL     1       5.391   5.947  15.540  0.00  0.00    +0.000 C 
ATOM      8  O   UNL     1       5.131   7.100  15.179  0.00  0.00    +0.000 OA
BRANCH   7  10
ATOM      9  C   UNL     1       6.488   3.808  14.849  0.00  0.00    +0.000 C 
ATOM     10  C   UNL     1       5.346   4.784  14.573  0.00  0.00    +0.000 C 
ENDBRANCH   7  10
ENDBRANCH   1   7
BRANCH   2  11
ATOM     11  O   UNL     1       7.892   6.975  16.447  0.00  0.00    +0.000 OA
ATOM     12  H   UNL     1       8.711   7.223  16.933  0.00  0.00    +0.000 HD
ENDBRANCH   2  11
BRANCH   6  13
ATOM     13  O   UNL     1       3.786   4.674  17.619  0.00  0.00    +0.000 OA
BRANCH  13  14
ATOM     14  C   UNL     1       3.644   3.254  17.481  0.00  0.00    +0.000 C 
BRANCH  14  15
ATOM     15  C   UNL     1       2.204   2.818  17.727  0.00  0.00    +0.000 C 
BRANCH  15  16
ATOM     16  C   UNL     1       2.146   1.990  19.021  0.00  0.00    +0.000 C 
BRANCH  16  17
ATOM     17  N   UNL     1       1.236   2.515  20.051  0.00  0.00    +0.000 NA
ATOM     18  C   UNL     1       0.925   3.945  19.881  0.00  0.00    +0.000 C 
ATOM     19  C   UNL     1       2.046   4.679  20.585  0.00  0.00    +0.000 C 
ATOM     20  C   UNL     1       2.270   3.827  21.816  0.00  0.00    +0.000 C 
ATOM     21  C   UNL     1       1.867   2.416  21.390  0.00  0.00    +0.000 C 
ENDBRANCH  16  17
ENDBRANCH  15  16
ENDBRANCH  14  15
ENDBRANCH  13  14
ENDBRANCH   6  13
TORSDOF 8
ENDMDL
MODEL 3
REMARK VINA RESULT:      -6.5      0.861      1.237
REMARK  Name = 
REMARK  9 active torsions:
REMARK  status: ('A' for Active; 'I' for Inactive)
REMARK    1  A    between atoms: C_1  and  C_2
REMARK    2  A    between atoms: C_2  and  C_3
REMARK    3  A    between atoms: C_3  and  C_5
REMARK    4  A    between atoms: C_6  and  O_7
REMARK    5  A    between atoms: C_11  and  O_12
REMARK    6  A    between atoms: O_12  and  C_13
REMARK    7  A    between atoms: C_13  and  C_14
REMARK    8  A    between atoms: C_14  and  C_15
REMARK    9  A    between atoms: C_15  and  N_16
REMARK                            x       y       z     vdW  Elec       q    Type
REMARK                         _______ _______ _______ _____ _____    ______ ____
ROOT
ATOM      1  C   UNL     1       6.588   5.651  17.450  0.00  0.00    +0.000 A 
ATOM      2  C   UNL     1       7.217   4.586  16.772  0.00  0.00    +0.000 A 
ATOM      3  C   UNL     1       6.731   4.108  15.556  0.00  0.00    +0.000 A 
ATOM      4  C   UNL     1       5.606   4.688  14.993  0.00  0.00    +0.000 A 
ATOM      5  C   UNL     1       4.965   5.738  15.650  0.00  0.00    +0.000 A 
ATOM      6  C   UNL     1       5.419   6.210  16.898  0.00  0.00    +0.000 A 
ENDROOT
BRANCH   1   7
ATOM      7  C   UNL     1       7.203   6.103  18.731  0.00  0.00    +0.000 C 
ATOM      8  O   UNL     1       6.891   5.493  19.760  0.00  0.00    +0.000 OA
BRANCH   7  10
ATOM      9  C   UNL     1       7.929   8.245  17.665  0.00  0.00    +0.000 C 
ATOM     10  C   UNL     1       8.232   7.213  18.748  0.00  0.00    +0.000 C 
ENDBRANCH   7  10
ENDBRANCH   1   7
BRANCH   2  11
ATOM     11  O   UNL     1       8.331   3.943  17.249  0.00  0.00    +0.000 OA
ATOM     12  H   UNL     1       8.172   2.974  17.175  0.00  0.00    +0.000 HD
ENDBRANCH   2  11
BRANCH   6  13
ATOM     13  O   UNL     1       4.732   7.173  17.607  0.00  0.00    +0.000 OA
BRANCH  13  14
ATOM     14  C   UNL     1       3.831   6.654  18.594  0.00  0.00    +0.000 C 
BRANCH  14  15
ATOM     15  C   UNL     1       2.414   6.541  18.043  0.00  0.00    +0.000 C 
BRANCH  15  16
ATOM     16  C   UNL     1       2.039   5.054  17.929  0.00  0.00    +0.000 C 
BRANCH  16  17
ATOM     17  N   UNL     1       2.864   4.144  18.737  0.00  0.00    +0.000 NA
ATOM     18  C   UNL     1       3.550   3.113  17.939  0.00  0.00    +0.000 C 
ATOM     19  C   UNL     1       2.547   1.985  17.806  0.00  0.00    +0.000 C 
ATOM     20  C   UNL     1       1.913   1.952  19.180  0.00  0.00    +0.000 C 
ATOM     21  C   UNL     1       2.013   3.389  19.689  0.00  0.00    +0.000 C 
ENDBRANCH  16  17
ENDBRANCH  15  16
ENDBRANCH  14  15
ENDBRANCH  13  14
ENDBRANCH   6  13
TORSDOF 8
ENDMDL
MODEL 4
REMARK VINA RESULT:      -6.4      2.488      5.994
REMARK  Name = 
REMARK  9 active torsions:
REMARK  status: ('A' for Active; 'I' for Inactive)
REMARK    1  A    between atoms: C_1  and  C_2
REMARK    2  A    between atoms: C_2  and  C_3
REMARK    3  A    between atoms: C_3  and  C_5
REMARK    4  A    between atoms: C_6  and  O_7
REMARK    5  A    between atoms: C_11  and  O_12
REMARK    6  A    between atoms: O_12  and  C_13
REMARK    7  A    between atoms: C_13  and  C_14
REMARK    8  A    between atoms: C_14  and  C_15
REMARK    9  A    between atoms: C_15  and  N_16
REMARK                            x       y       z     vdW  Elec       q    Type
REMARK                         _______ _______ _______ _____ _____    ______ ____
ROOT
ATOM      1  C   UNL     1       3.483   3.555  19.942  0.00  0.00    +0.000 A 
ATOM      2  C   UNL     1       2.451   3.590  20.903  0.00  0.00    +0.000 A 
ATOM      3  C   UNL     1       1.734   4.758  21.158  0.00  0.00    +0.000 A 
ATOM      4  C   UNL     1       2.033   5.913  20.454  0.00  0.00    +0.000 A 
ATOM      5  C   UNL     1       3.053   5.901  19.505  0.00  0.00    +0.000 A 
ATOM      6  C   UNL     1       3.816   4.741  19.260  0.00  0.00    +0.000 A 
ENDROOT
BRANCH   1   7
ATOM      7  C   UNL     1       4.172   2.249  19.730  0.00  0.00    +0.000 C 
ATOM      8  O   UNL     1       5.029   1.915  20.555  0.00  0.00    +0.000 OA
BRANCH   7  10
ATOM      9  C   UNL     1       2.673   1.982  17.746  0.00  0.00    +0.000 C 
ATOM     10  C   UNL     1       3.772   1.339  18.589  0.00  0.00    +0.000 C 
ENDBRANCH   7  10
ENDBRANCH   1   7
BRANCH   2  11
ATOM     11  O   UNL     1       2.084   2.502  21.655  0.00  0.00    +0.000 OA
ATOM     12  H   UNL     1       1.555   1.905  21.078  0.00  0.00    +0.000 HD
ENDBRANCH   2  11
BRANCH   6  13
ATOM     13  O   UNL     1       4.896   4.746  18.403  0.00  0.00    +0.000 OA
BRANCH  13  14
ATOM     14  C   UNL     1       6.060   5.407  18.918  0.00  0.00    +0.000 C 
BRANCH  14  15
ATOM     15  C   UNL     1       6.646   6.370  17.892  0.00  0.00    +0.000 C 
BRANCH  15  16
ATOM     16  C   UNL     1       7.289   5.560  16.754  0.00  0.00    +0.000 C 
BRANCH  16  17
ATOM     17  N   UNL     1       6.783   5.874  15.409  0.00  0.00    +0.000 NA
ATOM     18  C   UNL     1       5.314   5.829  15.311  0.00  0.00    +0.000 C 
ATOM     19  C   UNL     1       4.982   4.379  15.029  0.00  0.00    +0.000 C 
ATOM     20  C   UNL     1       6.077   3.977  14.065  0.00  0.00    +0.000 C 
ATOM     21  C   UNL     1       7.264   4.867  14.432  0.00  0.00    +0.000 C 
ENDBRANCH  16  17
ENDBRANCH  15  16
ENDBRANCH  14  15
ENDBRANCH  13  14
ENDBRANCH   6  13
TORSDOF 8
ENDMDL
MODEL 5
REMARK VINA RESULT:      -6.4      1.693      2.669
REMARK  Name = 
REMARK  9 active torsions:
REMARK  status: ('A' for Active; 'I' for Inactive)
REMARK    1  A    between atoms: C_1  and  C_2
REMARK    2  A    between atoms: C_2  and  C_3
REMARK    3  A    between atoms: C_3  and  C_5
REMARK    4  A    between atoms: C_6  and  O_7
REMARK    5  A    between atoms: C_11  and  O_12
REMARK    6  A    between atoms: O_12  and  C_13
REMARK    7  A    between atoms: C_13  and  C_14
REMARK    8  A    between atoms: C_14  and  C_15
REMARK    9  A    between atoms: C_15  and  N_16
REMARK                            x       y       z     vdW  Elec       q    Type
REMARK                         _______ _______ _______ _____ _____    ______ ____
ROOT
ATOM      1  C   UNL     1       5.435   5.236  17.323  0.00  0.00    +0.000 A 
ATOM      2  C   UNL     1       6.722   5.729  17.021  0.00  0.00    +0.000 A 
ATOM      3  C   UNL     1       7.379   5.375  15.843  0.00  0.00    +0.000 A 
ATOM      4  C   UNL     1       6.759   4.524  14.943  0.00  0.00    +0.000 A 
ATOM      5  C   UNL     1       5.490   4.022  15.225  0.00  0.00    +0.000 A 
ATOM      6  C   UNL     1       4.826   4.336  16.428  0.00  0.00    +0.000 A 
ENDROOT
BRANCH   1   7
ATOM      7  C   UNL     1       4.812   5.695  18.598  0.00  0.00    +0.000 C 
ATOM      8  O   UNL     1       5.429   5.477  19.646  0.00  0.00    +0.000 OA
BRANCH   7  10
ATOM      9  C   UNL     1       3.538   7.558  17.520  0.00  0.00    +0.000 C 
ATOM     10  C   UNL     1       3.511   6.469  18.590  0.00  0.00    +0.000 C 
ENDBRANCH   7  10
ENDBRANCH   1   7
BRANCH   2  11
ATOM     11  O   UNL     1       7.420   6.571  17.849  0.00  0.00    +0.000 OA
ATOM     12  H   UNL     1       8.251   6.824  17.387  0.00  0.00    +0.000 HD
ENDBRANCH   2  11
BRANCH   6  13
ATOM     13  O   UNL     1       3.619   3.760  16.767  0.00  0.00    +0.000 OA
BRANCH  13  14
ATOM     14  C   UNL     1       3.722   2.663  17.686  0.00  0.00    +0.000 C 
BRANCH  14  15
ATOM     15  C   UNL     1       2.344   2.153  18.092  0.00  0.00    +0.000 C 
BRANCH  15  16
ATOM     16  C   UNL     1       1.437   3.355  18.404  0.00  0.00    +0.000 C 
BRANCH  16  17
ATOM     17  N   UNL     1       0.798   3.321  19.729  0.00  0.00    +0.000 NA
ATOM     18  C   UNL     1       0.955   4.574  20.486  0.00  0.00    +0.000 C 
ATOM     19  C   UNL     1       2.287   4.441  21.195  0.00  0.00    +0.000 C 
ATOM     20  C   UNL     1       2.284   2.989  21.621  0.00  0.00    +0.000 C 
ATOM     21  C   UNL     1       1.428   2.279  20.574  0.00  0.00    +0.000 C 
ENDBRANCH  16  17
ENDBRANCH  15  16
ENDBRANCH  14  15
ENDBRANCH  13  14
ENDBRANCH   6  13
TORSDOF 8
ENDMDL
MODEL 6
REMARK VINA RESULT:      -6.4      0.834      1.344
REMARK  Name = 
REMARK  9 active torsions:
REMARK  status: ('A' for Active; 'I' for Inactive)
REMARK    1  A    between atoms: C_1  and  C_2
REMARK    2  A    between atoms: C_2  and  C_3
REMARK    3  A    between atoms: C_3  and  C_5
REMARK    4  A    between atoms: C_6  and  O_7
REMARK    5  A    between atoms: C_11  and  O_12
REMARK    6  A    between atoms: O_12  and  C_13
REMARK    7  A    between atoms: C_13  and  C_14
REMARK    8  A    between atoms: C_14  and  C_15
REMARK    9  A    between atoms: C_15  and  N_16
REMARK                            x       y       z     vdW  Elec       q    Type
REMARK                         _______ _______ _______ _____ _____    ______ ____
ROOT
ATOM      1  C   UNL     1       6.544   5.689  17.331  0.00  0.00    +0.000 A 
ATOM      2  C   UNL     1       7.192   4.655  16.624  0.00  0.00    +0.000 A 
ATOM      3  C   UNL     1       6.781   4.278  15.347  0.00  0.00    +0.000 A 
ATOM      4  C   UNL     1       5.714   4.929  14.751  0.00  0.00    +0.000 A 
ATOM      5  C   UNL     1       5.055   5.950  15.435  0.00  0.00    +0.000 A 
ATOM      6  C   UNL     1       5.431   6.320  16.741  0.00  0.00    +0.000 A 
ENDROOT
BRANCH   1   7
ATOM      7  C   UNL     1       7.077   6.031  18.681  0.00  0.00    +0.000 C 
ATOM      8  O   UNL     1       6.622   5.411  19.649  0.00  0.00    +0.000 OA
BRANCH   7  10
ATOM      9  C   UNL     1       8.018   8.196  17.855  0.00  0.00    +0.000 C 
ATOM     10  C   UNL     1       8.192   7.042  18.840  0.00  0.00    +0.000 C 
ENDBRANCH   7  10
ENDBRANCH   1   7
BRANCH   2  11
ATOM     11  O   UNL     1       8.253   3.947  17.130  0.00  0.00    +0.000 OA
ATOM     12  H   UNL     1       8.992   4.013  16.483  0.00  0.00    +0.000 HD
ENDBRANCH   2  11
BRANCH   6  13
ATOM     13  O   UNL     1       4.720   7.252  17.469  0.00  0.00    +0.000 OA
BRANCH  13  14
ATOM     14  C   UNL     1       3.387   6.848  17.809  0.00  0.00    +0.000 C 
BRANCH  14  15
ATOM     15  C   UNL     1       3.289   5.333  17.954  0.00  0.00    +0.000 C 
BRANCH  15  16
ATOM     16  C   UNL     1       2.923   4.992  19.408  0.00  0.00    +0.000 C 
BRANCH  16  17
ATOM     17  N   UNL     1       2.363   3.646  19.605  0.00  0.00    +0.000 NA
ATOM     18  C   UNL     1       3.124   2.832  20.568  0.00  0.00    +0.000 C 
ATOM     19  C   UNL     1       4.226   2.186  19.754  0.00  0.00    +0.000 C 
ATOM     20  C   UNL     1       3.514   1.835  18.466  0.00  0.00    +0.000 C 
ATOM     21  C   UNL     1       2.408   2.881  18.336  0.00  0.00    +0.000 C 
ENDBRANCH  16  17
ENDBRANCH  15  16
ENDBRANCH  14  15
ENDBRANCH  13  14
ENDBRANCH   6  13
TORSDOF 8
ENDMDL
MODEL 7
REMARK VINA RESULT:      -6.3      2.169      5.754
REMARK  Name = 
REMARK  9 active torsions:
REMARK  status: ('A' for Active; 'I' for Inactive)
REMARK    1  A    between atoms: C_1  and  C_2
REMARK    2  A    between atoms: C_2  and  C_3
REMARK    3  A    between atoms: C_3  and  C_5
REMARK    4  A    between atoms: C_6  and  O_7
REMARK    5  A    between atoms: C_11  and  O_12
REMARK    6  A    between atoms: O_12  and  C_13
REMARK    7  A    between atoms: C_13  and  C_14
REMARK    8  A    between atoms: C_14  and  C_15
REMARK    9  A    between atoms: C_15  and  N_16
REMARK                            x       y       z     vdW  Elec       q    Type
REMARK                         _______ _______ _______ _____ _____    ______ ____
ROOT
ATOM      1  C   UNL     1       2.380   4.536  18.698  0.00  0.00    +0.000 A 
ATOM      2  C   UNL     1       1.448   4.207  19.704  0.00  0.00    +0.000 A 
ATOM      3  C   UNL     1       0.877   2.937  19.780  0.00  0.00    +0.000 A 
ATOM      4  C   UNL     1       1.229   1.972  18.852  0.00  0.00    +0.000 A 
ATOM      5  C   UNL     1       2.144   2.278  17.845  0.00  0.00    +0.000 A 
ATOM      6  C   UNL     1       2.702   3.567  17.728  0.00  0.00    +0.000 A 
ENDROOT
BRANCH   1   7
ATOM      7  C   UNL     1       2.949   5.915  18.720  0.00  0.00    +0.000 C 
ATOM      8  O   UNL     1       3.804   6.165  19.576  0.00  0.00    +0.000 OA
BRANCH   7  10
ATOM      9  C   UNL     1       2.415   8.322  18.303  0.00  0.00    +0.000 C 
ATOM     10  C   UNL     1       2.547   6.936  17.678  0.00  0.00    +0.000 C 
ENDBRANCH   7  10
ENDBRANCH   1   7
BRANCH   2  11
ATOM     11  O   UNL     1       1.032   5.094  20.665  0.00  0.00    +0.000 OA
ATOM     12  H   UNL     1       0.149   4.796  20.983  0.00  0.00    +0.000 HD
ENDBRANCH   2  11
BRANCH   6  13
ATOM     13  O   UNL     1       3.523   3.914  16.675  0.00  0.00    +0.000 OA
BRANCH  13  14
ATOM     14  C   UNL     1       4.901   3.558  16.854  0.00  0.00    +0.000 C 
BRANCH  14  15
ATOM     15  C   UNL     1       5.759   4.084  15.709  0.00  0.00    +0.000 C 
BRANCH  15  16
ATOM     16  C   UNL     1       6.823   5.038  16.278  0.00  0.00    +0.000 C 
BRANCH  16  17
ATOM     17  N   UNL     1       6.418   5.763  17.493  0.00  0.00    +0.000 NA
ATOM     18  C   UNL     1       6.297   7.217  17.293  0.00  0.00    +0.000 C 
ATOM     19  C   UNL     1       7.693   7.762  17.509  0.00  0.00    +0.000 C 
ATOM     20  C   UNL     1       8.188   6.934  18.675  0.00  0.00    +0.000 C 
ATOM     21  C   UNL     1       7.446   5.605  18.550  0.00  0.00    +0.000 C 
ENDBRANCH  16  17
ENDBRANCH  15  16
ENDBRANCH  14  15
ENDBRANCH  13  14
ENDBRANCH   6  13
TORSDOF 8
ENDMDL
MODEL 8
REMARK VINA RESULT:      -6.3      2.185      5.361
REMARK  Name = 
REMARK  9 active torsions:
REMARK  status: ('A' for Active; 'I' for Inactive)
REMARK    1  A    between atoms: C_1  and  C_2
REMARK    2  A    between atoms: C_2  and  C_3
REMARK    3  A    between atoms: C_3  and  C_5
REMARK    4  A    between atoms: C_6  and  O_7
REMARK    5  A    between atoms: C_11  and  O_12
REMARK    6  A    between atoms: O_12  and  C_13
REMARK    7  A    between atoms: C_13  and  C_14
REMARK    8  A    between atoms: C_14  and  C_15
REMARK    9  A    between atoms: C_15  and  N_16
REMARK                            x       y       z     vdW  Elec       q    Type
REMARK                         _______ _______ _______ _____ _____    ______ ____
ROOT
ATOM      1  C   UNL     1       3.061   4.988  18.500  0.00  0.00    +0.000 A 
ATOM      2  C   UNL     1       2.189   4.065  17.885  0.00  0.00    +0.000 A 
ATOM      3  C   UNL     1       2.504   2.710  17.803  0.00  0.00    +0.000 A 
ATOM      4  C   UNL     1       3.696   2.250  18.338  0.00  0.00    +0.000 A 
ATOM      5  C   UNL     1       4.574   3.147  18.945  0.00  0.00    +0.000 A 
ATOM      6  C   UNL     1       4.292   4.526  19.003  0.00  0.00    +0.000 A 
ENDROOT
BRANCH   1   7
ATOM      7  C   UNL     1       2.618   6.411  18.555  0.00  0.00    +0.000 C 
ATOM      8  O   UNL     1       2.556   7.031  17.488  0.00  0.00    +0.000 OA
BRANCH   7  10
ATOM      9  C   UNL     1       1.525   5.999  20.766  0.00  0.00    +0.000 C 
ATOM     10  C   UNL     1       2.185   7.038  19.863  0.00  0.00    +0.000 C 
ENDBRANCH   7  10
ENDBRANCH   1   7
BRANCH   2  11
ATOM     11  O   UNL     1       0.990   4.422  17.321  0.00  0.00    +0.000 OA
ATOM     12  H   UNL     1       0.589   5.119  17.889  0.00  0.00    +0.000 HD
ENDBRANCH   2  11
BRANCH   6  13
ATOM     13  O   UNL     1       5.200   5.437  19.503  0.00  0.00    +0.000 OA
BRANCH  13  14
ATOM     14  C   UNL     1       6.573   5.055  19.343  0.00  0.00    +0.000 C 
BRANCH  14  15
ATOM     15  C   UNL     1       7.317   6.036  18.443  0.00  0.00    +0.000 C 
BRANCH  15  16
ATOM     16  C   UNL     1       6.338   6.598  17.399  0.00  0.00    +0.000 C 
BRANCH  16  17
ATOM     17  N   UNL     1       6.606   6.183  16.013  0.00  0.00    +0.000 NA
ATOM     18  C   UNL     1       5.383   5.977  15.218  0.00  0.00    +0.000 C 
ATOM     19  C   UNL     1       4.965   4.549  15.498  0.00  0.00    +0.000 C 
ATOM     20  C   UNL     1       6.293   3.823  15.528  0.00  0.00    +0.000 C 
ATOM     21  C   UNL     1       7.300   4.872  15.996  0.00  0.00    +0.000 C 
ENDBRANCH  16  17
ENDBRANCH  15  16
ENDBRANCH  14  15
ENDBRANCH  13  14
ENDBRANCH   6  13
TORSDOF 8
ENDMDL
MODEL 9
REMARK VINA RESULT:      -6.3      1.796      3.453
REMARK  Name = 
REMARK  9 active torsions:
REMARK  status: ('A' for Active; 'I' for Inactive)
REMARK    1  A    between atoms: C_1  and  C_2
REMARK    2  A    between atoms: C_2  and  C_3
REMARK    3  A    between atoms: C_3  and  C_5
REMARK    4  A    between atoms: C_6  and  O_7
REMARK    5  A    between atoms: C_11  and  O_12
REMARK    6  A    between atoms: O_12  and  C_13
REMARK    7  A    between atoms: C_13  and  C_14
REMARK    8  A    between atoms: C_14  and  C_15
REMARK    9  A    between atoms: C_15  and  N_16
REMARK                            x       y       z     vdW  Elec       q    Type
REMARK                         _______ _______ _______ _____ _____    ______ ____
ROOT
ATOM      1  C   UNL     1       4.609   5.972  18.384  0.00  0.00    +0.000 A 
ATOM      2  C   UNL     1       4.496   6.886  17.315  0.00  0.00    +0.000 A 
ATOM      3  C   UNL     1       3.395   7.732  17.195  0.00  0.00    +0.000 A 
ATOM      4  C   UNL     1       2.386   7.682  18.143  0.00  0.00    +0.000 A 
ATOM      5  C   UNL     1       2.476   6.782  19.203  0.00  0.00    +0.000 A 
ATOM      6  C   UNL     1       3.561   5.892  19.321  0.00  0.00    +0.000 A 
ENDROOT
BRANCH   1   7
ATOM      7  C   UNL     1       5.839   5.129  18.433  0.00  0.00    +0.000 C 
ATOM      8  O   UNL     1       5.925   4.198  17.624  0.00  0.00    +0.000 OA
BRANCH   7  10
ATOM      9  C   UNL     1       7.947   6.437  18.742  0.00  0.00    +0.000 C 
ATOM     10  C   UNL     1       6.967   5.459  19.385  0.00  0.00    +0.000 C 
ENDBRANCH   7  10
ENDBRANCH   1   7
BRANCH   2  11
ATOM     11  O   UNL     1       5.438   7.006  16.324  0.00  0.00    +0.000 OA
ATOM     12  H   UNL     1       5.149   6.446  15.568  0.00  0.00    +0.000 HD
ENDBRANCH   2  11
BRANCH   6  13
ATOM     13  O   UNL     1       3.608   4.924  20.304  0.00  0.00    +0.000 OA
BRANCH  13  14
ATOM     14  C   UNL     1       2.426   4.840  21.111  0.00  0.00    +0.000 C 
BRANCH  14  15
ATOM     15  C   UNL     1       1.962   3.395  21.260  0.00  0.00    +0.000 C 
BRANCH  15  16
ATOM     16  C   UNL     1       2.770   2.508  20.299  0.00  0.00    +0.000 C 
BRANCH  16  17
ATOM     17  N   UNL     1       2.012   1.987  19.151  0.00  0.00    +0.000 NA
ATOM     18  C   UNL     1       2.798   1.935  17.907  0.00  0.00    +0.000 C 
ATOM     19  C   UNL     1       2.659   3.312  17.294  0.00  0.00    +0.000 C 
ATOM     20  C   UNL     1       1.208   3.643  17.566  0.00  0.00    +0.000 C 
ATOM     21  C   UNL     1       0.868   2.881  18.846  0.00  0.00    +0.000 C 
ENDBRANCH  16  17
ENDBRANCH  15  16
ENDBRANCH  14  15
ENDBRANCH  13  14
ENDBRANCH   6  13
TORSDOF 8
ENDMDL
