MODEL 1
REMARK VINA RESULT:      -8.9      0.000      0.000
REMARK  Name = 
REMARK  5 active torsions:
REMARK  status: ('A' for Active; 'I' for Inactive)
REMARK    1  A    between atoms: C_1  and  N_2
REMARK    2  A    between atoms: C_3  and  C_5
REMARK    3  A    between atoms: C_10  and  O_11
REMARK    4  A    between atoms: O_11  and  C_12
REMARK    5  A    between atoms: N_15  and  C_16
REMARK                            x       y       z     vdW  Elec       q    Type
REMARK                         _______ _______ _______ _____ _____    ______ ____
ROOT
ATOM      1  C   UNL     1       4.147   5.149  19.361  0.00  0.00    +0.000 A 
ATOM      2  N   UNL     1       3.605   6.370  19.167  0.00  0.00    +0.000 NA
ATOM      3  C   UNL     1       2.350   6.540  19.619  0.00  0.00    +0.000 A 
ATOM      4  N   UNL     1       1.814   7.810  19.424  0.00  0.00    +0.000 N 
ATOM      5  N   UNL     1       1.614   5.578  20.196  0.00  0.00    +0.000 NA
ATOM      6  C   UNL     1       2.178   4.363  20.301  0.00  0.00    +0.000 A 
ATOM      7  C   UNL     1       3.453   4.076  19.889  0.00  0.00    +0.000 A 
ATOM      8 BR   UNL     1       4.140   2.330  20.014  0.00  0.00    +0.000 Br
ATOM      9  H   UNL     1       2.606   8.351  19.089  0.00  0.00    +0.000 HD
ENDROOT
BRANCH   4  10
ATOM     10  C   UNL     1       1.072   8.583  20.348  0.00  0.00    +0.000 A 
ATOM     11  C   UNL     1       1.174   8.426  21.752  0.00  0.00    +0.000 A 
ATOM     12  C   UNL     1       0.714   9.422  22.623  0.00  0.00    +0.000 A 
ATOM     13  C   UNL     1       0.183  10.557  22.055  0.00  0.00    +0.000 A 
ATOM     14  C   UNL     1       0.001  10.673  20.695  0.00  0.00    +0.000 A 
ATOM     15  C   UNL     1       0.400   9.694  19.821  0.00  0.00    +0.000 A 
ATOM     16  O   UNL     1      -0.465  11.902  20.339  0.00  0.00    +0.000 OA
ATOM     17  C   UNL     1      -0.198  12.607  21.566  0.00  0.00    +0.000 C 
ATOM     18  O   UNL     1      -0.117  11.719  22.702  0.00  0.00    +0.000 OA
ENDBRANCH   4  10
BRANCH   1  19
ATOM     19  O   UNL     1       5.469   4.928  19.005  0.00  0.00    +0.000 OA
BRANCH  19  25
ATOM     20  C   UNL     1       6.859   5.791  17.128  0.00  0.00    +0.000 A 
ATOM     21  C   UNL     1       7.218   5.599  15.777  0.00  0.00    +0.000 A 
ATOM     22  C   UNL     1       6.574   4.644  14.989  0.00  0.00    +0.000 A 
ATOM     23  C   UNL     1       5.577   3.852  15.542  0.00  0.00    +0.000 A 
ATOM     24  C   UNL     1       5.224   4.015  16.882  0.00  0.00    +0.000 A 
ATOM     25  C   UNL     1       5.850   4.985  17.683  0.00  0.00    +0.000 A 
BRANCH  20  28
ATOM     26  C   UNL     1       8.246   9.199  18.006  0.00  0.00    +0.000 C 
ATOM     27  N   UNL     1       7.664   8.072  17.326  0.00  0.00    +0.000 N 
ATOM     28  C   UNL     1       7.624   6.812  17.902  0.00  0.00    +0.000 C 
ATOM     29  O   UNL     1       8.167   6.539  18.966  0.00  0.00    +0.000 OA
ATOM     30  H   UNL     1       7.065   8.268  16.536  0.00  0.00    +0.000 HD
ENDBRANCH  20  28
ENDBRANCH  19  25
ENDBRANCH   1  19
TORSDOF 4
ENDMDL
MODEL 2
REMARK VINA RESULT:      -8.8      0.810      1.428
REMARK  Name = 
REMARK  5 active torsions:
REMARK  status: ('A' for Active; 'I' for Inactive)
REMARK    1  A    between atoms: C_1  and  N_2
REMARK    2  A    between atoms: C_3  and  C_5
REMARK    3  A    between atoms: C_10  and  O_11
REMARK    4  A    between atoms: O_11  and  C_12
REMARK    5  A    between atoms: N_15  and  C_16
REMARK                            x       y       z     vdW  Elec       q    Type
REMARK                         _______ _______ _______ _____ _____    ______ ____
ROOT
ATOM      1  C   UNL     1       4.131   5.120  19.152  0.00  0.00    +0.000 A 
ATOM      2  N   UNL     1       3.692   6.324  18.730  0.00  0.00    +0.000 NA
ATOM      3  C   UNL     1       2.493   6.714  19.196  0.00  0.00    +0.000 A 
ATOM      4  N   UNL     1       2.063   7.965  18.762  0.00  0.00    +0.000 N 
ATOM      5  N   UNL     1       1.714   5.974  20.000  0.00  0.00    +0.000 NA
ATOM      6  C   UNL     1       2.169   4.755  20.334  0.00  0.00    +0.000 A 
ATOM      7  C   UNL     1       3.381   4.258  19.931  0.00  0.00    +0.000 A 
ATOM      8 BR   UNL     1       3.912   2.514  20.391  0.00  0.00    +0.000 Br
ATOM      9  H   UNL     1       2.876   8.339  18.280  0.00  0.00    +0.000 HD
ENDROOT
BRANCH   4  10
ATOM     10  C   UNL     1       1.462   8.985  19.534  0.00  0.00    +0.000 A 
ATOM     11  C   UNL     1       0.525   9.909  19.009  0.00  0.00    +0.000 A 
ATOM     12  C   UNL     1      -0.302  10.656  19.857  0.00  0.00    +0.000 A 
ATOM     13  C   UNL     1      -0.178  10.437  21.210  0.00  0.00    +0.000 A 
ATOM     14  C   UNL     1       0.791   9.607  21.725  0.00  0.00    +0.000 A 
ATOM     15  C   UNL     1       1.646   8.898  20.920  0.00  0.00    +0.000 A 
ATOM     16  O   UNL     1       0.691   9.472  23.076  0.00  0.00    +0.000 OA
ATOM     17  C   UNL     1      -0.635  10.005  23.256  0.00  0.00    +0.000 C 
ATOM     18  O   UNL     1      -1.021  10.889  22.181  0.00  0.00    +0.000 OA
ENDBRANCH   4  10
BRANCH   1  19
ATOM     19  O   UNL     1       5.400   4.693  18.787  0.00  0.00    +0.000 OA
BRANCH  19  25
ATOM     20  C   UNL     1       6.813   5.629  16.964  0.00  0.00    +0.000 A 
ATOM     21  C   UNL     1       7.211   5.475  15.620  0.00  0.00    +0.000 A 
ATOM     22  C   UNL     1       6.614   4.519  14.796  0.00  0.00    +0.000 A 
ATOM     23  C   UNL     1       5.625   3.690  15.308  0.00  0.00    +0.000 A 
ATOM     24  C   UNL     1       5.234   3.817  16.641  0.00  0.00    +0.000 A 
ATOM     25  C   UNL     1       5.813   4.787  17.477  0.00  0.00    +0.000 A 
BRANCH  20  28
ATOM     26  C   UNL     1       8.086   9.054  17.943  0.00  0.00    +0.000 C 
ATOM     27  N   UNL     1       7.552   7.926  17.227  0.00  0.00    +0.000 N 
ATOM     28  C   UNL     1       7.530   6.655  17.778  0.00  0.00    +0.000 C 
ATOM     29  O   UNL     1       8.051   6.376  18.851  0.00  0.00    +0.000 OA
ATOM     30  H   UNL     1       6.969   8.122  16.424  0.00  0.00    +0.000 HD
ENDBRANCH  20  28
ENDBRANCH  19  25
ENDBRANCH   1  19
TORSDOF 4
ENDMDL
MODEL 3
REMARK VINA RESULT:      -8.7      1.071      1.143
REMARK  Name = 
REMARK  5 active torsions:
REMARK  status: ('A' for Active; 'I' for Inactive)
REMARK    1  A    between atoms: C_1  and  N_2
REMARK    2  A    between atoms: C_3  and  C_5
REMARK    3  A    between atoms: C_10  and  O_11
REMARK    4  A    between atoms: O_11  and  C_12
REMARK    5  A    between atoms: N_15  and  C_16
REMARK                            x       y       z     vdW  Elec       q    Type
REMARK                         _______ _______ _______ _____ _____    ______ ____
ROOT
ATOM      1  C   UNL     1       4.064   4.589  18.152  0.00  0.00    +0.000 A 
ATOM      2  N   UNL     1       3.752   5.901  18.092  0.00  0.00    +0.000 NA
ATOM      3  C   UNL     1       2.508   6.232  18.480  0.00  0.00    +0.000 A 
ATOM      4  N   UNL     1       2.209   7.590  18.426  0.00  0.00    +0.000 N 
ATOM      5  N   UNL     1       1.575   5.350  18.871  0.00  0.00    +0.000 NA
ATOM      6  C   UNL     1       1.918   4.051  18.845  0.00  0.00    +0.000 A 
ATOM      7  C   UNL     1       3.159   3.598  18.482  0.00  0.00    +0.000 A 
ATOM      8 BR   UNL     1       3.533   1.757  18.412  0.00  0.00    +0.000 Br
ATOM      9  H   UNL     1       3.106   8.021  18.220  0.00  0.00    +0.000 HD
ENDROOT
BRANCH   4  10
ATOM     10  C   UNL     1       1.528   8.361  19.396  0.00  0.00    +0.000 A 
ATOM     11  C   UNL     1       1.560   8.073  20.783  0.00  0.00    +0.000 A 
ATOM     12  C   UNL     1       1.186   9.036  21.728  0.00  0.00    +0.000 A 
ATOM     13  C   UNL     1       0.809  10.271  21.251  0.00  0.00    +0.000 A 
ATOM     14  C   UNL     1       0.691  10.525  19.904  0.00  0.00    +0.000 A 
ATOM     15  C   UNL     1       1.007   9.585  18.955  0.00  0.00    +0.000 A 
ATOM     16  O   UNL     1       0.383  11.826  19.648  0.00  0.00    +0.000 OA
ATOM     17  C   UNL     1       0.684  12.386  20.941  0.00  0.00    +0.000 C 
ATOM     18  O   UNL     1       0.621  11.399  21.993  0.00  0.00    +0.000 OA
ENDBRANCH   4  10
BRANCH   1  19
ATOM     19  O   UNL     1       5.358   4.185  17.855  0.00  0.00    +0.000 OA
BRANCH  19  25
ATOM     20  C   UNL     1       6.911   5.472  16.396  0.00  0.00    +0.000 A 
ATOM     21  C   UNL     1       7.486   5.550  15.110  0.00  0.00    +0.000 A 
ATOM     22  C   UNL     1       7.073   4.699  14.084  0.00  0.00    +0.000 A 
ATOM     23  C   UNL     1       6.095   3.744  14.331  0.00  0.00    +0.000 A 
ATOM     24  C   UNL     1       5.531   3.641  15.603  0.00  0.00    +0.000 A 
ATOM     25  C   UNL     1       5.923   4.503  16.642  0.00  0.00    +0.000 A 
BRANCH  20  28
ATOM     26  C   UNL     1       8.014   8.750  17.928  0.00  0.00    +0.000 C 
ATOM     27  N   UNL     1       7.637   7.704  17.015  0.00  0.00    +0.000 N 
ATOM     28  C   UNL     1       7.439   6.400  17.440  0.00  0.00    +0.000 C 
ATOM     29  O   UNL     1       7.669   6.020  18.582  0.00  0.00    +0.000 OA
ATOM     30  H   UNL     1       7.277   7.985  16.113  0.00  0.00    +0.000 HD
ENDBRANCH  20  28
ENDBRANCH  19  25
ENDBRANCH   1  19
TORSDOF 4
ENDMDL
MODEL 4
REMARK VINA RESULT:      -8.5      3.378      8.665
REMARK  Name = 
REMARK  5 active torsions:
REMARK  status: ('A' for Active; 'I' for Inactive)
REMARK    1  A    between atoms: C_1  and  N_2
REMARK    2  A    between atoms: C_3  and  C_5
REMARK    3  A    between atoms: C_10  and  O_11
REMARK    4  A    between atoms: O_11  and  C_12
REMARK    5  A    between atoms: N_15  and  C_16
REMARK                            x       y       z     vdW  Elec       q    Type
REMARK                         _______ _______ _______ _____ _____    ______ ____
ROOT
ATOM      1  C   UNL     1       0.787   9.786  19.496  0.00  0.00    +0.000 A 
ATOM      2  N   UNL     1       1.610   9.193  18.606  0.00  0.00    +0.000 NA
ATOM      3  C   UNL     1       2.189   8.048  19.005  0.00  0.00    +0.000 A 
ATOM      4  N   UNL     1       3.022   7.443  18.069  0.00  0.00    +0.000 N 
ATOM      5  N   UNL     1       2.029   7.500  20.220  0.00  0.00    +0.000 NA
ATOM      6  C   UNL     1       1.254   8.168  21.091  0.00  0.00    +0.000 A 
ATOM      7  C   UNL     1       0.603   9.336  20.791  0.00  0.00    +0.000 A 
ATOM      8 BR   UNL     1      -0.411  10.240  22.091  0.00  0.00    +0.000 Br
ATOM      9  H   UNL     1       2.865   7.989  17.226  0.00  0.00    +0.000 HD
ENDROOT
BRANCH   4  10
ATOM     10  C   UNL     1       3.090   6.071  17.735  0.00  0.00    +0.000 A 
ATOM     11  C   UNL     1       4.310   5.372  17.560  0.00  0.00    +0.000 A 
ATOM     12  C   UNL     1       4.348   3.972  17.586  0.00  0.00    +0.000 A 
ATOM     13  C   UNL     1       3.160   3.315  17.809  0.00  0.00    +0.000 A 
ATOM     14  C   UNL     1       1.962   3.987  17.889  0.00  0.00    +0.000 A 
ATOM     15  C   UNL     1       1.888   5.355  17.820  0.00  0.00    +0.000 A 
ATOM     16  O   UNL     1       0.923   3.159  18.189  0.00  0.00    +0.000 OA
ATOM     17  C   UNL     1       1.673   2.010  18.628  0.00  0.00    +0.000 C 
ATOM     18  O   UNL     1       3.011   1.988  18.085  0.00  0.00    +0.000 OA
ENDBRANCH   4  10
BRANCH   1  19
ATOM     19  O   UNL     1       0.083  10.922  19.120  0.00  0.00    +0.000 OA
BRANCH  19  25
ATOM     20  C   UNL     1      -2.305  11.583  18.885  0.00  0.00    +0.000 A 
ATOM     21  C   UNL     1      -3.472  11.430  18.108  0.00  0.00    +0.000 A 
ATOM     22  C   UNL     1      -3.523  10.511  17.058  0.00  0.00    +0.000 A 
ATOM     23  C   UNL     1      -2.404   9.747  16.755  0.00  0.00    +0.000 A 
ATOM     24  C   UNL     1      -1.236   9.901  17.502  0.00  0.00    +0.000 A 
ATOM     25  C   UNL     1      -1.175  10.809  18.573  0.00  0.00    +0.000 A 
BRANCH  20  28
ATOM     26  C   UNL     1      -1.185  14.603  20.868  0.00  0.00    +0.000 C 
ATOM     27  N   UNL     1      -1.248  13.476  19.976  0.00  0.00    +0.000 N 
ATOM     28  C   UNL     1      -2.332  12.612  19.966  0.00  0.00    +0.000 C 
ATOM     29  O   UNL     1      -3.252  12.675  20.772  0.00  0.00    +0.000 OA
ATOM     30  H   UNL     1      -0.611  13.471  19.191  0.00  0.00    +0.000 HD
ENDBRANCH  20  28
ENDBRANCH  19  25
ENDBRANCH   1  19
TORSDOF 4
ENDMDL
MODEL 5
REMARK VINA RESULT:      -8.5      3.786      8.908
REMARK  Name = 
REMARK  5 active torsions:
REMARK  status: ('A' for Active; 'I' for Inactive)
REMARK    1  A    between atoms: C_1  and  N_2
REMARK    2  A    between atoms: C_3  and  C_5
REMARK    3  A    between atoms: C_10  and  O_11
REMARK    4  A    between atoms: O_11  and  C_12
REMARK    5  A    between atoms: N_15  and  C_16
REMARK                            x       y       z     vdW  Elec       q    Type
REMARK                         _______ _______ _______ _____ _____    ______ ____
ROOT
ATOM      1  C   UNL     1       0.170  10.303  20.421  0.00  0.00    +0.000 A 
ATOM      2  N   UNL     1       0.986   9.437  19.785  0.00  0.00    +0.000 NA
ATOM      3  C   UNL     1       1.466   8.422  20.524  0.00  0.00    +0.000 A 
ATOM      4  N   UNL     1       2.293   7.530  19.847  0.00  0.00    +0.000 N 
ATOM      5  N   UNL     1       1.219   8.253  21.832  0.00  0.00    +0.000 NA
ATOM      6  C   UNL     1       0.456   9.183  22.432  0.00  0.00    +0.000 A 
ATOM      7  C   UNL     1      -0.098  10.251  21.777  0.00  0.00    +0.000 A 
ATOM      8 BR   UNL     1      -1.100  11.542  22.707  0.00  0.00    +0.000 Br
ATOM      9  H   UNL     1       2.209   7.822  18.877  0.00  0.00    +0.000 HD
ENDROOT
BRANCH   4  10
ATOM     10  C   UNL     1       2.279   6.118  19.918  0.00  0.00    +0.000 A 
ATOM     11  C   UNL     1       1.314   5.385  20.652  0.00  0.00    +0.000 A 
ATOM     12  C   UNL     1       1.114   4.020  20.415  0.00  0.00    +0.000 A 
ATOM     13  C   UNL     1       1.876   3.434  19.430  0.00  0.00    +0.000 A 
ATOM     14  C   UNL     1       2.875   4.122  18.779  0.00  0.00    +0.000 A 
ATOM     15  C   UNL     1       3.125   5.448  19.024  0.00  0.00    +0.000 A 
ATOM     16  O   UNL     1       3.452   3.383  17.792  0.00  0.00    +0.000 OA
ATOM     17  C   UNL     1       2.465   2.339  17.687  0.00  0.00    +0.000 C 
ATOM     18  O   UNL     1       1.691   2.193  18.897  0.00  0.00    +0.000 OA
ENDBRANCH   4  10
BRANCH   1  19
ATOM     19  O   UNL     1      -0.436  11.321  19.699  0.00  0.00    +0.000 OA
BRANCH  19  25
ATOM     20  C   UNL     1      -2.777  11.676  18.928  0.00  0.00    +0.000 A 
ATOM     21  C   UNL     1      -3.715  11.377  17.919  0.00  0.00    +0.000 A 
ATOM     22  C   UNL     1      -3.420  10.460  16.909  0.00  0.00    +0.000 A 
ATOM     23  C   UNL     1      -2.176   9.843  16.880  0.00  0.00    +0.000 A 
ATOM     24  C   UNL     1      -1.229  10.143  17.860  0.00  0.00    +0.000 A 
ATOM     25  C   UNL     1      -1.519  11.051  18.894  0.00  0.00    +0.000 A 
BRANCH  20  28
ATOM     26  C   UNL     1      -2.603  14.900  20.899  0.00  0.00    +0.000 C 
ATOM     27  N   UNL     1      -2.304  13.771  20.059  0.00  0.00    +0.000 N 
ATOM     28  C   UNL     1      -3.168  12.694  19.949  0.00  0.00    +0.000 C 
ATOM     29  O   UNL     1      -4.182  12.570  20.625  0.00  0.00    +0.000 OA
ATOM     30  H   UNL     1      -1.579  13.891  19.365  0.00  0.00    +0.000 HD
ENDBRANCH  20  28
ENDBRANCH  19  25
ENDBRANCH   1  19
TORSDOF 4
ENDMDL
MODEL 6
REMARK VINA RESULT:      -8.4      1.746      2.317
REMARK  Name = 
REMARK  5 active torsions:
REMARK  status: ('A' for Active; 'I' for Inactive)
REMARK    1  A    between atoms: C_1  and  N_2
REMARK    2  A    between atoms: C_3  and  C_5
REMARK    3  A    between atoms: C_10  and  O_11
REMARK    4  A    between atoms: O_11  and  C_12
REMARK    5  A    between atoms: N_15  and  C_16
REMARK                            x       y       z     vdW  Elec       q    Type
REMARK                         _______ _______ _______ _____ _____    ______ ____
ROOT
ATOM      1  C   UNL     1       3.989   4.372  17.647  0.00  0.00    +0.000 A 
ATOM      2  N   UNL     1       3.732   5.676  17.414  0.00  0.00    +0.000 NA
ATOM      3  C   UNL     1       2.581   6.153  17.916  0.00  0.00    +0.000 A 
ATOM      4  N   UNL     1       2.341   7.503  17.680  0.00  0.00    +0.000 N 
ATOM      5  N   UNL     1       1.679   5.414  18.581  0.00  0.00    +0.000 NA
ATOM      6  C   UNL     1       1.952   4.106  18.724  0.00  0.00    +0.000 A 
ATOM      7  C   UNL     1       3.100   3.513  18.266  0.00  0.00    +0.000 A 
ATOM      8 BR   UNL     1       3.372   1.662  18.452  0.00  0.00    +0.000 Br
ATOM      9  H   UNL     1       3.215   7.831  17.277  0.00  0.00    +0.000 HD
ENDROOT
BRANCH   4  10
ATOM     10  C   UNL     1       1.855   8.466  18.595  0.00  0.00    +0.000 A 
ATOM     11  C   UNL     1       1.108   9.604  18.204  0.00  0.00    +0.000 A 
ATOM     12  C   UNL     1       0.352  10.325  19.137  0.00  0.00    +0.000 A 
ATOM     13  C   UNL     1       0.353   9.867  20.435  0.00  0.00    +0.000 A 
ATOM     14  C   UNL     1       1.147   8.816  20.834  0.00  0.00    +0.000 A 
ATOM     15  C   UNL     1       1.933   8.121  19.951  0.00  0.00    +0.000 A 
ATOM     16  O   UNL     1       0.939   8.477  22.136  0.00  0.00    +0.000 OA
ATOM     17  C   UNL     1      -0.298   9.182  22.356  0.00  0.00    +0.000 C 
ATOM     18  O   UNL     1      -0.472  10.282  21.437  0.00  0.00    +0.000 OA
ENDBRANCH   4  10
BRANCH   1  19
ATOM     19  O   UNL     1       5.201   3.834  17.238  0.00  0.00    +0.000 OA
BRANCH  19  25
ATOM     20  C   UNL     1       6.812   5.199  15.919  0.00  0.00    +0.000 A 
ATOM     21  C   UNL     1       7.395   5.384  14.648  0.00  0.00    +0.000 A 
ATOM     22  C   UNL     1       6.952   4.660  13.540  0.00  0.00    +0.000 A 
ATOM     23  C   UNL     1       5.935   3.726  13.687  0.00  0.00    +0.000 A 
ATOM     24  C   UNL     1       5.362   3.517  14.942  0.00  0.00    +0.000 A 
ATOM     25  C   UNL     1       5.784   4.251  16.063  0.00  0.00    +0.000 A 
BRANCH  20  28
ATOM     26  C   UNL     1       8.028   5.906  19.430  0.00  0.00    +0.000 C 
ATOM     27  N   UNL     1       7.401   5.332  18.270  0.00  0.00    +0.000 N 
ATOM     28  C   UNL     1       7.371   5.993  17.052  0.00  0.00    +0.000 C 
ATOM     29  O   UNL     1       7.772   7.140  16.898  0.00  0.00    +0.000 OA
ATOM     30  H   UNL     1       7.206   4.340  18.293  0.00  0.00    +0.000 HD
ENDBRANCH  20  28
ENDBRANCH  19  25
ENDBRANCH   1  19
TORSDOF 4
ENDMDL
MODEL 7
REMARK VINA RESULT:      -8.4      2.662      4.161
REMARK  Name = 
REMARK  5 active torsions:
REMARK  status: ('A' for Active; 'I' for Inactive)
REMARK    1  A    between atoms: C_1  and  N_2
REMARK    2  A    between atoms: C_3  and  C_5
REMARK    3  A    between atoms: C_10  and  O_11
REMARK    4  A    between atoms: O_11  and  C_12
REMARK    5  A    between atoms: N_15  and  C_16
REMARK                            x       y       z     vdW  Elec       q    Type
REMARK                         _______ _______ _______ _____ _____    ______ ____
ROOT
ATOM      1  C   UNL     1       2.494   6.997  18.516  0.00  0.00    +0.000 A 
ATOM      2  N   UNL     1       2.211   8.150  17.874  0.00  0.00    +0.000 NA
ATOM      3  C   UNL     1       1.626   9.111  18.610  0.00  0.00    +0.000 A 
ATOM      4  N   UNL     1       1.356  10.298  17.935  0.00  0.00    +0.000 N 
ATOM      5  N   UNL     1       1.279   8.974  19.899  0.00  0.00    +0.000 NA
ATOM      6  C   UNL     1       1.521   7.781  20.470  0.00  0.00    +0.000 A 
ATOM      7  C   UNL     1       2.124   6.735  19.822  0.00  0.00    +0.000 A 
ATOM      8 BR   UNL     1       2.365   5.078  20.677  0.00  0.00    +0.000 Br
ATOM      9  H   UNL     1       1.819  10.170  17.040  0.00  0.00    +0.000 HD
ENDROOT
BRANCH   4  10
ATOM     10  C   UNL     1       1.572  11.618  18.394  0.00  0.00    +0.000 A 
ATOM     11  C   UNL     1       2.738  12.365  18.093  0.00  0.00    +0.000 A 
ATOM     12  C   UNL     1       2.763  13.756  18.251  0.00  0.00    +0.000 A 
ATOM     13  C   UNL     1       1.606  14.360  18.689  0.00  0.00    +0.000 A 
ATOM     14  C   UNL     1       0.503  13.629  19.066  0.00  0.00    +0.000 A 
ATOM     15  C   UNL     1       0.466  12.261  18.966  0.00  0.00    +0.000 A 
ATOM     16  O   UNL     1      -0.555  14.420  19.393  0.00  0.00    +0.000 OA
ATOM     17  C   UNL     1      -0.088  15.661  18.829  0.00  0.00    +0.000 C 
ATOM     18  O   UNL     1       1.350  15.698  18.702  0.00  0.00    +0.000 OA
ENDBRANCH   4  10
BRANCH   1  19
ATOM     19  O   UNL     1       3.181   5.996  17.844  0.00  0.00    +0.000 OA
BRANCH  19  25
ATOM     20  C   UNL     1       5.348   4.841  18.254  0.00  0.00    +0.000 A 
ATOM     21  C   UNL     1       6.747   4.925  18.096  0.00  0.00    +0.000 A 
ATOM     22  C   UNL     1       7.348   6.088  17.611  0.00  0.00    +0.000 A 
ATOM     23  C   UNL     1       6.561   7.176  17.260  0.00  0.00    +0.000 A 
ATOM     24  C   UNL     1       5.174   7.102  17.392  0.00  0.00    +0.000 A 
ATOM     25  C   UNL     1       4.555   5.944  17.895  0.00  0.00    +0.000 A 
BRANCH  20  28
ATOM     26  C   UNL     1       3.243   1.698  18.218  0.00  0.00    +0.000 C 
ATOM     27  N   UNL     1       3.792   3.002  17.956  0.00  0.00    +0.000 N 
ATOM     28  C   UNL     1       4.790   3.547  18.748  0.00  0.00    +0.000 C 
ATOM     29  O   UNL     1       5.199   3.020  19.776  0.00  0.00    +0.000 OA
ATOM     30  H   UNL     1       3.617   3.402  17.045  0.00  0.00    +0.000 HD
ENDBRANCH  20  28
ENDBRANCH  19  25
ENDBRANCH   1  19
TORSDOF 4
ENDMDL
MODEL 8
REMARK VINA RESULT:      -8.3      3.829      8.839
REMARK  Name = 
REMARK  5 active torsions:
REMARK  status: ('A' for Active; 'I' for Inactive)
REMARK    1  A    between atoms: C_1  and  N_2
REMARK    2  A    between atoms: C_3  and  C_5
REMARK    3  A    between atoms: C_10  and  O_11
REMARK    4  A    between atoms: O_11  and  C_12
REMARK    5  A    between atoms: N_15  and  C_16
REMARK                            x       y       z     vdW  Elec       q    Type
REMARK                         _______ _______ _______ _____ _____    ______ ____
ROOT
ATOM      1  C   UNL     1       0.554   9.926  19.810  0.00  0.00    +0.000 A 
ATOM      2  N   UNL     1       1.295   9.064  19.082  0.00  0.00    +0.000 NA
ATOM      3  C   UNL     1       1.740   7.973  19.728  0.00  0.00    +0.000 A 
ATOM      4  N   UNL     1       2.489   7.088  18.958  0.00  0.00    +0.000 N 
ATOM      5  N   UNL     1       1.530   7.723  21.030  0.00  0.00    +0.000 NA
ATOM      6  C   UNL     1       0.846   8.648  21.723  0.00  0.00    +0.000 A 
ATOM      7  C   UNL     1       0.332   9.791  21.168  0.00  0.00    +0.000 A 
ATOM      8 BR   UNL     1      -0.557  11.065  22.226  0.00  0.00    +0.000 Br
ATOM      9  H   UNL     1       2.388   7.453  18.014  0.00  0.00    +0.000 HD
ENDROOT
BRANCH   4  10
ATOM     10  C   UNL     1       2.394   5.678  18.929  0.00  0.00    +0.000 A 
ATOM     11  C   UNL     1       1.834   4.957  17.845  0.00  0.00    +0.000 A 
ATOM     12  C   UNL     1       2.077   3.587  17.690  0.00  0.00    +0.000 A 
ATOM     13  C   UNL     1       2.894   2.983  18.618  0.00  0.00    +0.000 A 
ATOM     14  C   UNL     1       3.366   3.660  19.720  0.00  0.00    +0.000 A 
ATOM     15  C   UNL     1       3.106   4.992  19.923  0.00  0.00    +0.000 A 
ATOM     16  O   UNL     1       4.215   2.903  20.466  0.00  0.00    +0.000 OA
ATOM     17  C   UNL     1       4.478   1.855  19.513  0.00  0.00    +0.000 C 
ATOM     18  O   UNL     1       3.427   1.731  18.532  0.00  0.00    +0.000 OA
ENDBRANCH   4  10
BRANCH   1  19
ATOM     19  O   UNL     1      -0.016  11.027  19.187  0.00  0.00    +0.000 OA
BRANCH  19  25
ATOM     20  C   UNL     1      -2.370  11.719  18.767  0.00  0.00    +0.000 A 
ATOM     21  C   UNL     1      -3.486  11.555  17.919  0.00  0.00    +0.000 A 
ATOM     22  C   UNL     1      -3.485  10.598  16.904  0.00  0.00    +0.000 A 
ATOM     23  C   UNL     1      -2.363   9.804  16.706  0.00  0.00    +0.000 A 
ATOM     24  C   UNL     1      -1.244   9.967  17.523  0.00  0.00    +0.000 A 
ATOM     25  C   UNL     1      -1.237  10.914  18.561  0.00  0.00    +0.000 A 
BRANCH  20  28
ATOM     26  C   UNL     1      -1.471  14.927  20.558  0.00  0.00    +0.000 C 
ATOM     27  N   UNL     1      -1.462  13.759  19.719  0.00  0.00    +0.000 N 
ATOM     28  C   UNL     1      -2.449  12.790  19.805  0.00  0.00    +0.000 C 
ATOM     29  O   UNL     1      -3.328  12.796  20.658  0.00  0.00    +0.000 OA
ATOM     30  H   UNL     1      -0.869  13.782  18.900  0.00  0.00    +0.000 HD
ENDBRANCH  20  28
ENDBRANCH  19  25
ENDBRANCH   1  19
TORSDOF 4
ENDMDL
MODEL 9
REMARK VINA RESULT:      -8.2      3.235      8.597
REMARK  Name = 
REMARK  5 active torsions:
REMARK  status: ('A' for Active; 'I' for Inactive)
REMARK    1  A    between atoms: C_1  and  N_2
REMARK    2  A    between atoms: C_3  and  C_5
REMARK    3  A    between atoms: C_10  and  O_11
REMARK    4  A    between atoms: O_11  and  C_12
REMARK    5  A    between atoms: N_15  and  C_16
REMARK                            x       y       z     vdW  Elec       q    Type
REMARK                         _______ _______ _______ _____ _____    ______ ____
ROOT
ATOM      1  C   UNL     1       0.430   9.456  20.215  0.00  0.00    +0.000 A 
ATOM      2  N   UNL     1       1.158   9.078  19.143  0.00  0.00    +0.000 NA
ATOM      3  C   UNL     1       1.992   8.041  19.329  0.00  0.00    +0.000 A 
ATOM      4  N   UNL     1       2.723   7.655  18.209  0.00  0.00    +0.000 N 
ATOM      5  N   UNL     1       2.166   7.406  20.499  0.00  0.00    +0.000 NA
ATOM      6  C   UNL     1       1.467   7.868  21.550  0.00  0.00    +0.000 A 
ATOM      7  C   UNL     1       0.578   8.909  21.476  0.00  0.00    +0.000 A 
ATOM      8 BR   UNL     1      -0.309   9.533  23.011  0.00  0.00    +0.000 Br
ATOM      9  H   UNL     1       2.315   8.208  17.460  0.00  0.00    +0.000 HD
ENDROOT
BRANCH   4  10
ATOM     10  C   UNL     1       2.963   6.341  17.747  0.00  0.00    +0.000 A 
ATOM     11  C   UNL     1       4.256   5.844  17.450  0.00  0.00    +0.000 A 
ATOM     12  C   UNL     1       4.492   4.468  17.346  0.00  0.00    +0.000 A 
ATOM     13  C   UNL     1       3.423   3.628  17.562  0.00  0.00    +0.000 A 
ATOM     14  C   UNL     1       2.150   4.110  17.762  0.00  0.00    +0.000 A 
ATOM     15  C   UNL     1       1.881   5.454  17.823  0.00  0.00    +0.000 A 
ATOM     16  O   UNL     1       1.258   3.118  18.032  0.00  0.00    +0.000 OA
ATOM     17  C   UNL     1       2.187   2.057  18.328  0.00  0.00    +0.000 C 
ATOM     18  O   UNL     1       3.479   2.275  17.722  0.00  0.00    +0.000 OA
ENDBRANCH   4  10
BRANCH   1  19
ATOM     19  O   UNL     1      -0.518  10.459  20.073  0.00  0.00    +0.000 OA
BRANCH  19  25
ATOM     20  C   UNL     1      -0.869  12.385  18.535  0.00  0.00    +0.000 A 
ATOM     21  C   UNL     1      -0.443  13.688  18.205  0.00  0.00    +0.000 A 
ATOM     22  C   UNL     1       0.667  14.263  18.825  0.00  0.00    +0.000 A 
ATOM     23  C   UNL     1       1.357  13.552  19.799  0.00  0.00    +0.000 A 
ATOM     24  C   UNL     1       0.936  12.270  20.151  0.00  0.00    +0.000 A 
ATOM     25  C   UNL     1      -0.169  11.671  19.522  0.00  0.00    +0.000 A 
BRANCH  20  28
ATOM     26  C   UNL     1      -2.948  10.947  15.720  0.00  0.00    +0.000 C 
ATOM     27  N   UNL     1      -1.915  11.578  16.498  0.00  0.00    +0.000 N 
ATOM     28  C   UNL     1      -2.086  11.865  17.843  0.00  0.00    +0.000 C 
ATOM     29  O   UNL     1      -3.146  11.708  18.437  0.00  0.00    +0.000 OA
ATOM     30  H   UNL     1      -0.980  11.577  16.113  0.00  0.00    +0.000 HD
ENDBRANCH  20  28
ENDBRANCH  19  25
ENDBRANCH   1  19
TORSDOF 4
ENDMDL
