MODEL 1
REMARK VINA RESULT:      -5.3      0.000      0.000
REMARK  Name = 
REMARK  3 active torsions:
REMARK  status: ('A' for Active; 'I' for Inactive)
REMARK    1  A    between atoms: C_1  and  N_2
REMARK    2  A    between atoms: C_3  and  S_4
REMARK    3  A    between atoms: C_7  and  C_8
REMARK                            x       y       z     vdW  Elec       q    Type
REMARK                         _______ _______ _______ _____ _____    ______ ____
ROOT
ATOM      1  C   UNL     1       7.449   6.675  17.264  0.00  0.00    +0.000 C 
ATOM      2  N   UNL     1       7.441   6.041  15.960  0.00  0.00    +0.000 NA
ATOM      3  C   UNL     1       6.628   5.085  15.643  0.00  0.00    +0.000 C 
ATOM      4  N   UNL     1       6.683   4.580  14.320  0.00  0.00    +0.000 N 
ATOM      5  N   UNL     1       5.804   3.637  13.864  0.00  0.00    +0.000 NA
ATOM      6  C   UNL     1       6.166   3.512  12.583  0.00  0.00    +0.000 A 
ATOM      7  C   UNL     1       5.479   2.609  11.638  0.00  0.00    +0.000 C 
ATOM      8  N   UNL     1       7.221   4.288  12.193  0.00  0.00    +0.000 NA
ATOM      9  C   UNL     1       7.547   4.935  13.284  0.00  0.00    +0.000 A 
ATOM     10  N   UNL     1       8.560   5.813  13.406  0.00  0.00    +0.000 N 
ATOM     11  H   UNL     1       8.964   6.195  12.557  0.00  0.00    +0.000 HD
ATOM     12  H   UNL     1       8.594   6.427  14.221  0.00  0.00    +0.000 HD
ENDROOT
BRANCH   3  13
ATOM     13  S   UNL     1       5.452   4.385  16.764  0.00  0.00    +0.000 S 
ATOM     14  H   UNL     1       5.083   3.345  16.010  0.00  0.00    +0.000 HD
ENDBRANCH   3  13
TORSDOF 1
ENDMDL
MODEL 2
REMARK VINA RESULT:      -5.3      5.097      6.236
REMARK  Name = 
REMARK  3 active torsions:
REMARK  status: ('A' for Active; 'I' for Inactive)
REMARK    1  A    between atoms: C_1  and  N_2
REMARK    2  A    between atoms: C_3  and  S_4
REMARK    3  A    between atoms: C_7  and  C_8
REMARK                            x       y       z     vdW  Elec       q    Type
REMARK                         _______ _______ _______ _____ _____    ______ ____
ROOT
ATOM      1  C   UNL     1       7.337   5.129  18.344  0.00  0.00    +0.000 C 
ATOM      2  N   UNL     1       6.178   4.339  18.714  0.00  0.00    +0.000 NA
ATOM      3  C   UNL     1       4.966   4.678  18.412  0.00  0.00    +0.000 C 
ATOM      4  N   UNL     1       3.920   3.798  18.784  0.00  0.00    +0.000 N 
ATOM      5  N   UNL     1       2.619   4.022  18.429  0.00  0.00    +0.000 NA
ATOM      6  C   UNL     1       2.005   2.939  18.915  0.00  0.00    +0.000 A 
ATOM      7  C   UNL     1       0.556   2.698  18.756  0.00  0.00    +0.000 C 
ATOM      8  N   UNL     1       2.810   2.052  19.570  0.00  0.00    +0.000 NA
ATOM      9  C   UNL     1       3.996   2.603  19.499  0.00  0.00    +0.000 A 
ATOM     10  N   UNL     1       5.129   2.106  20.032  0.00  0.00    +0.000 N 
ATOM     11  H   UNL     1       5.138   1.129  20.305  0.00  0.00    +0.000 HD
ATOM     12  H   UNL     1       6.029   2.485  19.735  0.00  0.00    +0.000 HD
ENDROOT
BRANCH   3  13
ATOM     13  S   UNL     1       4.549   6.168  17.553  0.00  0.00    +0.000 S 
ATOM     14  H   UNL     1       3.289   5.848  17.243  0.00  0.00    +0.000 HD
ENDBRANCH   3  13
TORSDOF 1
ENDMDL
MODEL 3
REMARK VINA RESULT:      -5.2      1.985      2.536
REMARK  Name = 
REMARK  3 active torsions:
REMARK  status: ('A' for Active; 'I' for Inactive)
REMARK    1  A    between atoms: C_1  and  N_2
REMARK    2  A    between atoms: C_3  and  S_4
REMARK    3  A    between atoms: C_7  and  C_8
REMARK                            x       y       z     vdW  Elec       q    Type
REMARK                         _______ _______ _______ _____ _____    ______ ____
ROOT
ATOM      1  C   UNL     1       4.584   5.460  19.446  0.00  0.00    +0.000 C 
ATOM      2  N   UNL     1       5.328   5.386  18.203  0.00  0.00    +0.000 NA
ATOM      3  C   UNL     1       5.042   4.552  17.256  0.00  0.00    +0.000 C 
ATOM      4  N   UNL     1       5.811   4.611  16.067  0.00  0.00    +0.000 N 
ATOM      5  N   UNL     1       5.527   3.836  14.977  0.00  0.00    +0.000 NA
ATOM      6  C   UNL     1       6.433   4.257  14.089  0.00  0.00    +0.000 A 
ATOM      7  C   UNL     1       6.516   3.728  12.713  0.00  0.00    +0.000 C 
ATOM      8  N   UNL     1       7.286   5.225  14.536  0.00  0.00    +0.000 NA
ATOM      9  C   UNL     1       6.904   5.426  15.772  0.00  0.00    +0.000 A 
ATOM     10  N   UNL     1       7.469   6.285  16.641  0.00  0.00    +0.000 N 
ATOM     11  H   UNL     1       8.079   7.006  16.271  0.00  0.00    +0.000 HD
ATOM     12  H   UNL     1       6.967   6.534  17.496  0.00  0.00    +0.000 HD
ENDROOT
BRANCH   3  13
ATOM     13  S   UNL     1       3.742   3.356  17.360  0.00  0.00    +0.000 S 
ATOM     14  H   UNL     1       3.450   3.294  16.057  0.00  0.00    +0.000 HD
ENDBRANCH   3  13
TORSDOF 1
ENDMDL
MODEL 4
REMARK VINA RESULT:      -5.1      3.048      4.934
REMARK  Name = 
REMARK  3 active torsions:
REMARK  status: ('A' for Active; 'I' for Inactive)
REMARK    1  A    between atoms: C_1  and  N_2
REMARK    2  A    between atoms: C_3  and  S_4
REMARK    3  A    between atoms: C_7  and  C_8
REMARK                            x       y       z     vdW  Elec       q    Type
REMARK                         _______ _______ _______ _____ _____    ______ ____
ROOT
ATOM      1  C   UNL     1       2.950   2.155  17.929  0.00  0.00    +0.000 C 
ATOM      2  N   UNL     1       4.032   3.013  17.485  0.00  0.00    +0.000 NA
ATOM      3  C   UNL     1       4.268   4.177  18.000  0.00  0.00    +0.000 C 
ATOM      4  N   UNL     1       5.386   4.901  17.515  0.00  0.00    +0.000 N 
ATOM      5  N   UNL     1       5.771   6.095  18.059  0.00  0.00    +0.000 NA
ATOM      6  C   UNL     1       6.877   6.376  17.363  0.00  0.00    +0.000 A 
ATOM      7  C   UNL     1       7.694   7.582  17.606  0.00  0.00    +0.000 C 
ATOM      8  N   UNL     1       7.215   5.464  16.404  0.00  0.00    +0.000 NA
ATOM      9  C   UNL     1       6.272   4.559  16.494  0.00  0.00    +0.000 A 
ATOM     10  N   UNL     1       6.159   3.460  15.724  0.00  0.00    +0.000 N 
ATOM     11  H   UNL     1       6.971   3.165  15.192  0.00  0.00    +0.000 HD
ATOM     12  H   UNL     1       5.530   2.710  16.014  0.00  0.00    +0.000 HD
ENDROOT
BRANCH   3  13
ATOM     13  S   UNL     1       3.282   4.904  19.277  0.00  0.00    +0.000 S 
ATOM     14  H   UNL     1       4.283   5.341  20.048  0.00  0.00    +0.000 HD
ENDBRANCH   3  13
TORSDOF 1
ENDMDL
MODEL 5
REMARK VINA RESULT:      -5.0      5.469      6.827
REMARK  Name = 
REMARK  3 active torsions:
REMARK  status: ('A' for Active; 'I' for Inactive)
REMARK    1  A    between atoms: C_1  and  N_2
REMARK    2  A    between atoms: C_3  and  S_4
REMARK    3  A    between atoms: C_7  and  C_8
REMARK                            x       y       z     vdW  Elec       q    Type
REMARK                         _______ _______ _______ _____ _____    ______ ____
ROOT
ATOM      1  C   UNL     1       5.057   6.642  16.698  0.00  0.00    +0.000 C 
ATOM      2  N   UNL     1       4.728   5.612  17.666  0.00  0.00    +0.000 NA
ATOM      3  C   UNL     1       3.674   5.657  18.416  0.00  0.00    +0.000 C 
ATOM      4  N   UNL     1       3.434   4.566  19.288  0.00  0.00    +0.000 N 
ATOM      5  N   UNL     1       2.302   4.478  20.049  0.00  0.00    +0.000 NA
ATOM      6  C   UNL     1       2.456   3.290  20.644  0.00  0.00    +0.000 A 
ATOM      7  C   UNL     1       1.455   2.719  21.567  0.00  0.00    +0.000 C 
ATOM      8  N   UNL     1       3.609   2.625  20.336  0.00  0.00    +0.000 NA
ATOM      9  C   UNL     1       4.219   3.434  19.506  0.00  0.00    +0.000 A 
ATOM     10  N   UNL     1       5.423   3.221  18.942  0.00  0.00    +0.000 N 
ATOM     11  H   UNL     1       5.795   2.278  18.955  0.00  0.00    +0.000 HD
ATOM     12  H   UNL     1       5.708   3.793  18.145  0.00  0.00    +0.000 HD
ENDROOT
BRANCH   3  13
ATOM     13  S   UNL     1       2.515   6.995  18.402  0.00  0.00    +0.000 S 
ATOM     14  H   UNL     1       1.517   6.361  17.779  0.00  0.00    +0.000 HD
ENDBRANCH   3  13
TORSDOF 1
ENDMDL
MODEL 6
REMARK VINA RESULT:      -5.0      3.013      3.923
REMARK  Name = 
REMARK  3 active torsions:
REMARK  status: ('A' for Active; 'I' for Inactive)
REMARK    1  A    between atoms: C_1  and  N_2
REMARK    2  A    between atoms: C_3  and  S_4
REMARK    3  A    between atoms: C_7  and  C_8
REMARK                            x       y       z     vdW  Elec       q    Type
REMARK                         _______ _______ _______ _____ _____    ______ ____
ROOT
ATOM      1  C   UNL     1       3.621   3.556  20.085  0.00  0.00    +0.000 C 
ATOM      2  N   UNL     1       4.655   3.827  19.104  0.00  0.00    +0.000 NA
ATOM      3  C   UNL     1       4.452   3.769  17.828  0.00  0.00    +0.000 C 
ATOM      4  N   UNL     1       5.529   4.104  16.969  0.00  0.00    +0.000 N 
ATOM      5  N   UNL     1       5.385   4.163  15.611  0.00  0.00    +0.000 NA
ATOM      6  C   UNL     1       6.596   4.573  15.219  0.00  0.00    +0.000 A 
ATOM      7  C   UNL     1       6.941   4.819  13.804  0.00  0.00    +0.000 C 
ATOM      8  N   UNL     1       7.505   4.759  16.221  0.00  0.00    +0.000 NA
ATOM      9  C   UNL     1       6.838   4.448  17.304  0.00  0.00    +0.000 A 
ATOM     10  N   UNL     1       7.327   4.453  18.559  0.00  0.00    +0.000 N 
ATOM     11  H   UNL     1       8.192   4.953  18.731  0.00  0.00    +0.000 HD
ATOM     12  H   UNL     1       6.679   4.417  19.347  0.00  0.00    +0.000 HD
ENDROOT
BRANCH   3  13
ATOM     13  S   UNL     1       2.906   3.308  17.100  0.00  0.00    +0.000 S 
ATOM     14  H   UNL     1       2.108   3.762  18.072  0.00  0.00    +0.000 HD
ENDBRANCH   3  13
TORSDOF 1
ENDMDL
MODEL 7
REMARK VINA RESULT:      -5.0      3.781      4.705
REMARK  Name = 
REMARK  3 active torsions:
REMARK  status: ('A' for Active; 'I' for Inactive)
REMARK    1  A    between atoms: C_1  and  N_2
REMARK    2  A    between atoms: C_3  and  S_4
REMARK    3  A    between atoms: C_7  and  C_8
REMARK                            x       y       z     vdW  Elec       q    Type
REMARK                         _______ _______ _______ _____ _____    ______ ____
ROOT
ATOM      1  C   UNL     1       2.470   4.760  20.716  0.00  0.00    +0.000 C 
ATOM      2  N   UNL     1       3.576   4.644  19.785  0.00  0.00    +0.000 NA
ATOM      3  C   UNL     1       3.423   4.306  18.545  0.00  0.00    +0.000 C 
ATOM      4  N   UNL     1       4.575   4.275  17.720  0.00  0.00    +0.000 N 
ATOM      5  N   UNL     1       4.503   4.022  16.378  0.00  0.00    +0.000 NA
ATOM      6  C   UNL     1       5.778   4.159  15.999  0.00  0.00    +0.000 A 
ATOM      7  C   UNL     1       6.219   4.006  14.597  0.00  0.00    +0.000 C 
ATOM      8  N   UNL     1       6.659   4.459  16.998  0.00  0.00    +0.000 NA
ATOM      9  C   UNL     1       5.905   4.512  18.068  0.00  0.00    +0.000 A 
ATOM     10  N   UNL     1       6.332   4.756  19.321  0.00  0.00    +0.000 N 
ATOM     11  H   UNL     1       7.254   5.162  19.439  0.00  0.00    +0.000 HD
ATOM     12  H   UNL     1       5.651   4.999  20.042  0.00  0.00    +0.000 HD
ENDROOT
BRANCH   3  13
ATOM     13  S   UNL     1       1.860   3.893  17.825  0.00  0.00    +0.000 S 
ATOM     14  H   UNL     1       1.551   5.108  17.360  0.00  0.00    +0.000 HD
ENDBRANCH   3  13
TORSDOF 1
ENDMDL
MODEL 8
REMARK VINA RESULT:      -4.9      5.297      6.736
REMARK  Name = 
REMARK  3 active torsions:
REMARK  status: ('A' for Active; 'I' for Inactive)
REMARK    1  A    between atoms: C_1  and  N_2
REMARK    2  A    between atoms: C_3  and  S_4
REMARK    3  A    between atoms: C_7  and  C_8
REMARK                            x       y       z     vdW  Elec       q    Type
REMARK                         _______ _______ _______ _____ _____    ______ ____
ROOT
ATOM      1  C   UNL     1       1.585   2.661  21.714  0.00  0.00    +0.000 C 
ATOM      2  N   UNL     1       2.702   3.018  20.859  0.00  0.00    +0.000 NA
ATOM      3  C   UNL     1       2.825   4.181  20.306  0.00  0.00    +0.000 C 
ATOM      4  N   UNL     1       3.987   4.427  19.533  0.00  0.00    +0.000 N 
ATOM      5  N   UNL     1       4.252   5.652  18.987  0.00  0.00    +0.000 NA
ATOM      6  C   UNL     1       5.447   5.454  18.421  0.00  0.00    +0.000 A 
ATOM      7  C   UNL     1       6.185   6.518  17.711  0.00  0.00    +0.000 C 
ATOM      8  N   UNL     1       5.953   4.192  18.546  0.00  0.00    +0.000 NA
ATOM      9  C   UNL     1       5.031   3.555  19.224  0.00  0.00    +0.000 A 
ATOM     10  N   UNL     1       5.068   2.256  19.576  0.00  0.00    +0.000 N 
ATOM     11  H   UNL     1       5.961   1.776  19.533  0.00  0.00    +0.000 HD
ATOM     12  H   UNL     1       4.420   1.913  20.287  0.00  0.00    +0.000 HD
ENDROOT
BRANCH   3  13
ATOM     13  S   UNL     1       1.633   5.478  20.472  0.00  0.00    +0.000 S 
ATOM     14  H   UNL     1       2.190   6.101  21.515  0.00  0.00    +0.000 HD
ENDBRANCH   3  13
TORSDOF 1
ENDMDL
MODEL 9
REMARK VINA RESULT:      -4.9      5.071      6.147
REMARK  Name = 
REMARK  3 active torsions:
REMARK  status: ('A' for Active; 'I' for Inactive)
REMARK    1  A    between atoms: C_1  and  N_2
REMARK    2  A    between atoms: C_3  and  S_4
REMARK    3  A    between atoms: C_7  and  C_8
REMARK                            x       y       z     vdW  Elec       q    Type
REMARK                         _______ _______ _______ _____ _____    ______ ____
ROOT
ATOM      1  C   UNL     1       1.721   2.589  21.464  0.00  0.00    +0.000 C 
ATOM      2  N   UNL     1       2.457   2.841  20.240  0.00  0.00    +0.000 NA
ATOM      3  C   UNL     1       2.621   4.026  19.744  0.00  0.00    +0.000 C 
ATOM      4  N   UNL     1       3.403   4.150  18.569  0.00  0.00    +0.000 N 
ATOM      5  N   UNL     1       3.710   5.365  18.024  0.00  0.00    +0.000 NA
ATOM      6  C   UNL     1       4.499   5.022  17.000  0.00  0.00    +0.000 A 
ATOM      7  C   UNL     1       5.123   6.013  16.100  0.00  0.00    +0.000 C 
ATOM      8  N   UNL     1       4.702   3.682  16.839  0.00  0.00    +0.000 NA
ATOM      9  C   UNL     1       4.002   3.146  17.808  0.00  0.00    +0.000 A 
ATOM     10  N   UNL     1       3.869   1.827  18.048  0.00  0.00    +0.000 N 
ATOM     11  H   UNL     1       4.532   1.195  17.612  0.00  0.00    +0.000 HD
ATOM     12  H   UNL     1       3.496   1.518  18.947  0.00  0.00    +0.000 HD
ENDROOT
BRANCH   3  13
ATOM     13  S   UNL     1       1.933   5.492  20.457  0.00  0.00    +0.000 S 
ATOM     14  H   UNL     1       1.456   4.940  21.577  0.00  0.00    +0.000 HD
ENDBRANCH   3  13
TORSDOF 1
ENDMDL
