MODEL 1
REMARK VINA RESULT:      -8.9      0.000      0.000
REMARK  Name = 
REMARK  3 active torsions:
REMARK  status: ('A' for Active; 'I' for Inactive)
REMARK    1  A    between atoms: C_1  and  C_2
REMARK    2  A    between atoms: C_8  and  C_9
REMARK    3  A    between atoms: C_15  and  O_16
REMARK                            x       y       z     vdW  Elec       q    Type
REMARK                         _______ _______ _______ _____ _____    ______ ____
ROOT
ATOM      1  C   UNL     1      -0.593   9.714  17.938  0.00  0.00    +0.000 C 
ATOM      2  C   UNL     1       0.593  10.229  18.774  0.00  0.00    +0.000 C 
ATOM      3  C   UNL     1       1.870  10.286  17.947  0.00  0.00    +0.000 C 
ATOM      4  C   UNL     1       2.427   8.882  17.664  0.00  0.00    +0.000 C 
ATOM      5  C   UNL     1       2.541   7.978  18.921  0.00  0.00    +0.000 C 
ATOM      6  C   UNL     1       3.011   6.554  18.649  0.00  0.00    +0.000 A 
ATOM      7  C   UNL     1       3.899   6.277  17.599  0.00  0.00    +0.000 A 
ATOM      8  C   UNL     1       4.405   4.985  17.336  0.00  0.00    +0.000 A 
ATOM      9  C   UNL     1       3.994   3.956  18.196  0.00  0.00    +0.000 A 
ATOM     10  C   UNL     1       3.121   4.203  19.248  0.00  0.00    +0.000 A 
ATOM     11  C   UNL     1       2.638   5.496  19.495  0.00  0.00    +0.000 A 
ATOM     12  C   UNL     1       1.681   5.685  20.642  0.00  0.00    +0.000 C 
ATOM     13  C   UNL     1       1.449   7.147  21.022  0.00  0.00    +0.000 C 
ATOM     14  C   UNL     1       1.229   7.989  19.764  0.00  0.00    +0.000 C 
ATOM     15  C   UNL     1       0.882   9.447  20.071  0.00  0.00    +0.000 C 
ATOM     16  C   UNL     1      -0.294   9.792  20.983  0.00  0.00    +0.000 C 
ATOM     17  C   UNL     1      -0.471  11.306  20.767  0.00  0.00    +0.000 C 
ATOM     18  C   UNL     1       0.153  11.541  19.401  0.00  0.00    +0.000 C 
ATOM     19  O   UNL     1       0.258  12.630  18.876  0.00  0.00    +0.000 OA
ENDROOT
BRANCH   8  20
ATOM     20  C   UNL     1       5.285   4.777  16.171  0.00  0.00    +0.000 A 
ATOM     21  C   UNL     1       6.648   5.140  16.215  0.00  0.00    +0.000 A 
ATOM     22  C   UNL     1       7.455   5.012  15.091  0.00  0.00    +0.000 A 
ATOM     23  C   UNL     1       6.937   4.464  13.920  0.00  0.00    +0.000 A 
ATOM     24  C   UNL     1       5.614   4.067  13.861  0.00  0.00    +0.000 A 
ATOM     25  C   UNL     1       4.797   4.260  14.960  0.00  0.00    +0.000 A 
ENDBRANCH   8  20
BRANCH   9  26
ATOM     26  O   UNL     1       4.409   2.657  18.093  0.00  0.00    +0.000 OA
ATOM     27  H   UNL     1       3.760   2.167  17.565  0.00  0.00    +0.000 HD
ENDBRANCH   9  26
TORSDOF 2
ENDMDL
MODEL 2
REMARK VINA RESULT:      -8.7      2.237      8.379
REMARK  Name = 
REMARK  3 active torsions:
REMARK  status: ('A' for Active; 'I' for Inactive)
REMARK    1  A    between atoms: C_1  and  C_2
REMARK    2  A    between atoms: C_8  and  C_9
REMARK    3  A    between atoms: C_15  and  O_16
REMARK                            x       y       z     vdW  Elec       q    Type
REMARK                         _______ _______ _______ _____ _____    ______ ____
ROOT
ATOM      1  C   UNL     1       1.238   3.408  19.220  0.00  0.00    +0.000 C 
ATOM      2  C   UNL     1       2.463   3.902  20.010  0.00  0.00    +0.000 C 
ATOM      3  C   UNL     1       2.045   4.687  21.246  0.00  0.00    +0.000 C 
ATOM      4  C   UNL     1       1.481   6.068  20.879  0.00  0.00    +0.000 C 
ATOM      5  C   UNL     1       2.373   6.879  19.900  0.00  0.00    +0.000 C 
ATOM      6  C   UNL     1       1.791   8.216  19.457  0.00  0.00    +0.000 A 
ATOM      7  C   UNL     1       0.965   8.962  20.312  0.00  0.00    +0.000 A 
ATOM      8  C   UNL     1       0.442  10.227  19.970  0.00  0.00    +0.000 A 
ATOM      9  C   UNL     1       0.800  10.744  18.715  0.00  0.00    +0.000 A 
ATOM     10  C   UNL     1       1.621  10.031  17.851  0.00  0.00    +0.000 A 
ATOM     11  C   UNL     1       2.136   8.778  18.215  0.00  0.00    +0.000 A 
ATOM     12  C   UNL     1       3.005   8.055  17.221  0.00  0.00    +0.000 C 
ATOM     13  C   UNL     1       3.757   6.862  17.807  0.00  0.00    +0.000 C 
ATOM     14  C   UNL     1       2.818   6.022  18.676  0.00  0.00    +0.000 C 
ATOM     15  C   UNL     1       3.474   4.747  19.210  0.00  0.00    +0.000 C 
ATOM     16  C   UNL     1       4.123   3.746  18.255  0.00  0.00    +0.000 C 
ATOM     17  C   UNL     1       4.361   2.516  19.149  0.00  0.00    +0.000 C 
ATOM     18  C   UNL     1       3.342   2.688  20.263  0.00  0.00    +0.000 C 
ATOM     19  O   UNL     1       3.233   1.941  21.212  0.00  0.00    +0.000 OA
ENDROOT
BRANCH   8  20
ATOM     20  C   UNL     1      -0.468  10.911  20.908  0.00  0.00    +0.000 A 
ATOM     21  C   UNL     1      -0.438  10.626  22.289  0.00  0.00    +0.000 A 
ATOM     22  C   UNL     1      -1.348  11.215  23.157  0.00  0.00    +0.000 A 
ATOM     23  C   UNL     1      -2.267  12.146  22.677  0.00  0.00    +0.000 A 
ATOM     24  C   UNL     1      -2.295  12.470  21.333  0.00  0.00    +0.000 A 
ATOM     25  C   UNL     1      -1.432  11.830  20.462  0.00  0.00    +0.000 A 
ENDBRANCH   8  20
BRANCH   9  26
ATOM     26  O   UNL     1       0.399  11.963  18.243  0.00  0.00    +0.000 OA
ATOM     27  H   UNL     1       0.382  12.590  18.983  0.00  0.00    +0.000 HD
ENDBRANCH   9  26
TORSDOF 2
ENDMDL
MODEL 3
REMARK VINA RESULT:      -8.1      1.809      7.674
REMARK  Name = 
REMARK  3 active torsions:
REMARK  status: ('A' for Active; 'I' for Inactive)
REMARK    1  A    between atoms: C_1  and  C_2
REMARK    2  A    between atoms: C_8  and  C_9
REMARK    3  A    between atoms: C_15  and  O_16
REMARK                            x       y       z     vdW  Elec       q    Type
REMARK                         _______ _______ _______ _____ _____    ______ ____
ROOT
ATOM      1  C   UNL     1       6.584   6.491  17.490  0.00  0.00    +0.000 C 
ATOM      2  C   UNL     1       5.415   6.016  16.606  0.00  0.00    +0.000 C 
ATOM      3  C   UNL     1       4.654   7.196  16.016  0.00  0.00    +0.000 C 
ATOM      4  C   UNL     1       3.812   7.917  17.080  0.00  0.00    +0.000 C 
ATOM      5  C   UNL     1       2.928   6.973  17.940  0.00  0.00    +0.000 C 
ATOM      6  C   UNL     1       2.150   7.661  19.056  0.00  0.00    +0.000 A 
ATOM      7  C   UNL     1       1.696   8.980  18.912  0.00  0.00    +0.000 A 
ATOM      8  C   UNL     1       0.929   9.645  19.893  0.00  0.00    +0.000 A 
ATOM      9  C   UNL     1       0.607   8.915  21.047  0.00  0.00    +0.000 A 
ATOM     10  C   UNL     1       1.037   7.605  21.215  0.00  0.00    +0.000 A 
ATOM     11  C   UNL     1       1.792   6.963  20.222  0.00  0.00    +0.000 A 
ATOM     12  C   UNL     1       2.238   5.548  20.480  0.00  0.00    +0.000 C 
ATOM     13  C   UNL     1       2.782   4.834  19.243  0.00  0.00    +0.000 C 
ATOM     14  C   UNL     1       3.737   5.755  18.481  0.00  0.00    +0.000 C 
ATOM     15  C   UNL     1       4.407   5.070  17.288  0.00  0.00    +0.000 C 
ATOM     16  C   UNL     1       5.184   3.768  17.473  0.00  0.00    +0.000 C 
ATOM     17  C   UNL     1       5.927   3.612  16.134  0.00  0.00    +0.000 C 
ATOM     18  C   UNL     1       5.994   5.034  15.601  0.00  0.00    +0.000 C 
ATOM     19  O   UNL     1       6.470   5.341  14.529  0.00  0.00    +0.000 OA
ENDROOT
BRANCH   8  20
ATOM     20  C   UNL     1       0.549  11.054  19.682  0.00  0.00    +0.000 A 
ATOM     21  C   UNL     1      -0.471  11.404  18.771  0.00  0.00    +0.000 A 
ATOM     22  C   UNL     1      -0.774  12.736  18.519  0.00  0.00    +0.000 A 
ATOM     23  C   UNL     1      -0.109  13.744  19.214  0.00  0.00    +0.000 A 
ATOM     24  C   UNL     1       0.870  13.428  20.137  0.00  0.00    +0.000 A 
ATOM     25  C   UNL     1       1.215  12.104  20.335  0.00  0.00    +0.000 A 
ENDBRANCH   8  20
BRANCH   9  26
ATOM     26  O   UNL     1      -0.147   9.403  22.080  0.00  0.00    +0.000 OA
ATOM     27  H   UNL     1      -0.855   8.769  22.270  0.00  0.00    +0.000 HD
ENDBRANCH   9  26
TORSDOF 2
ENDMDL
MODEL 4
REMARK VINA RESULT:      -8.1      0.984      1.323
REMARK  Name = 
REMARK  3 active torsions:
REMARK  status: ('A' for Active; 'I' for Inactive)
REMARK    1  A    between atoms: C_1  and  C_2
REMARK    2  A    between atoms: C_8  and  C_9
REMARK    3  A    between atoms: C_15  and  O_16
REMARK                            x       y       z     vdW  Elec       q    Type
REMARK                         _______ _______ _______ _____ _____    ______ ____
ROOT
ATOM      1  C   UNL     1      -1.181  10.367  18.074  0.00  0.00    +0.000 C 
ATOM      2  C   UNL     1       0.040  10.991  18.775  0.00  0.00    +0.000 C 
ATOM      3  C   UNL     1       1.281  10.916  17.897  0.00  0.00    +0.000 C 
ATOM      4  C   UNL     1       1.825   9.482  17.802  0.00  0.00    +0.000 C 
ATOM      5  C   UNL     1       1.990   8.772  19.173  0.00  0.00    +0.000 C 
ATOM      6  C   UNL     1       2.447   7.320  19.094  0.00  0.00    +0.000 A 
ATOM      7  C   UNL     1       3.290   6.885  18.061  0.00  0.00    +0.000 A 
ATOM      8  C   UNL     1       3.783   5.565  17.971  0.00  0.00    +0.000 A 
ATOM      9  C   UNL     1       3.407   4.677  18.990  0.00  0.00    +0.000 A 
ATOM     10  C   UNL     1       2.579   5.082  20.028  0.00  0.00    +0.000 A 
ATOM     11  C   UNL     1       2.107   6.401  20.102  0.00  0.00    +0.000 A 
ATOM     12  C   UNL     1       1.200   6.764  21.247  0.00  0.00    +0.000 C 
ATOM     13  C   UNL     1       0.986   8.267  21.416  0.00  0.00    +0.000 C 
ATOM     14  C   UNL     1       0.714   8.916  20.057  0.00  0.00    +0.000 C 
ATOM     15  C   UNL     1       0.381  10.406  20.161  0.00  0.00    +0.000 C 
ATOM     16  C   UNL     1      -0.755  10.890  21.059  0.00  0.00    +0.000 C 
ATOM     17  C   UNL     1      -0.939  12.357  20.630  0.00  0.00    +0.000 C 
ATOM     18  C   UNL     1      -0.373  12.384  19.220  0.00  0.00    +0.000 C 
ATOM     19  O   UNL     1      -0.288  13.382  18.536  0.00  0.00    +0.000 OA
ENDROOT
BRANCH   8  20
ATOM     20  C   UNL     1       4.614   5.180  16.814  0.00  0.00    +0.000 A 
ATOM     21  C   UNL     1       4.907   3.826  16.547  0.00  0.00    +0.000 A 
ATOM     22  C   UNL     1       5.751   3.473  15.503  0.00  0.00    +0.000 A 
ATOM     23  C   UNL     1       6.273   4.458  14.666  0.00  0.00    +0.000 A 
ATOM     24  C   UNL     1       5.973   5.790  14.884  0.00  0.00    +0.000 A 
ATOM     25  C   UNL     1       5.187   6.141  15.966  0.00  0.00    +0.000 A 
ENDBRANCH   8  20
BRANCH   9  26
ATOM     26  O   UNL     1       3.816   3.373  19.063  0.00  0.00    +0.000 OA
ATOM     27  H   UNL     1       3.169   2.821  18.597  0.00  0.00    +0.000 HD
ENDBRANCH   9  26
TORSDOF 2
ENDMDL
MODEL 5
REMARK VINA RESULT:      -7.9      1.730      7.654
REMARK  Name = 
REMARK  3 active torsions:
REMARK  status: ('A' for Active; 'I' for Inactive)
REMARK    1  A    between atoms: C_1  and  C_2
REMARK    2  A    between atoms: C_8  and  C_9
REMARK    3  A    between atoms: C_15  and  O_16
REMARK                            x       y       z     vdW  Elec       q    Type
REMARK                         _______ _______ _______ _____ _____    ______ ____
ROOT
ATOM      1  C   UNL     1       6.293   6.237  17.880  0.00  0.00    +0.000 C 
ATOM      2  C   UNL     1       5.115   5.805  16.987  0.00  0.00    +0.000 C 
ATOM      3  C   UNL     1       4.458   7.006  16.319  0.00  0.00    +0.000 C 
ATOM      4  C   UNL     1       3.645   7.839  17.322  0.00  0.00    +0.000 C 
ATOM      5  C   UNL     1       2.672   7.007  18.200  0.00  0.00    +0.000 C 
ATOM      6  C   UNL     1       1.919   7.804  19.258  0.00  0.00    +0.000 A 
ATOM      7  C   UNL     1       1.568   9.144  19.037  0.00  0.00    +0.000 A 
ATOM      8  C   UNL     1       0.828   9.911  19.962  0.00  0.00    +0.000 A 
ATOM      9  C   UNL     1       0.423   9.266  21.141  0.00  0.00    +0.000 A 
ATOM     10  C   UNL     1       0.750   7.938  21.383  0.00  0.00    +0.000 A 
ATOM     11  C   UNL     1       1.480   7.193  20.446  0.00  0.00    +0.000 A 
ATOM     12  C   UNL     1       1.814   5.765  20.784  0.00  0.00    +0.000 C 
ATOM     13  C   UNL     1       2.334   4.952  19.600  0.00  0.00    +0.000 C 
ATOM     14  C   UNL     1       3.375   5.762  18.823  0.00  0.00    +0.000 C 
ATOM     15  C   UNL     1       4.022   4.970  17.684  0.00  0.00    +0.000 C 
ATOM     16  C   UNL     1       4.695   3.626  17.954  0.00  0.00    +0.000 C 
ATOM     17  C   UNL     1       5.458   3.349  16.646  0.00  0.00    +0.000 C 
ATOM     18  C   UNL     1       5.645   4.734  16.048  0.00  0.00    +0.000 C 
ATOM     19  O   UNL     1       6.169   4.951  14.976  0.00  0.00    +0.000 OA
ENDROOT
BRANCH   8  20
ATOM     20  C   UNL     1       0.559  11.332  19.673  0.00  0.00    +0.000 A 
ATOM     21  C   UNL     1       1.357  12.353  20.231  0.00  0.00    +0.000 A 
ATOM     22  C   UNL     1       1.054  13.691  20.017  0.00  0.00    +0.000 A 
ATOM     23  C   UNL     1      -0.014  14.040  19.194  0.00  0.00    +0.000 A 
ATOM     24  C   UNL     1      -0.792  13.060  18.606  0.00  0.00    +0.000 A 
ATOM     25  C   UNL     1      -0.528  11.730  18.877  0.00  0.00    +0.000 A 
ENDBRANCH   8  20
BRANCH   9  26
ATOM     26  O   UNL     1      -0.319   9.859  22.126  0.00  0.00    +0.000 OA
ATOM     27  H   UNL     1      -0.841  10.574  21.730  0.00  0.00    +0.000 HD
ENDBRANCH   9  26
TORSDOF 2
ENDMDL
MODEL 6
REMARK VINA RESULT:      -7.8      1.200      2.116
REMARK  Name = 
REMARK  3 active torsions:
REMARK  status: ('A' for Active; 'I' for Inactive)
REMARK    1  A    between atoms: C_1  and  C_2
REMARK    2  A    between atoms: C_8  and  C_9
REMARK    3  A    between atoms: C_15  and  O_16
REMARK                            x       y       z     vdW  Elec       q    Type
REMARK                         _______ _______ _______ _____ _____    ______ ____
ROOT
ATOM      1  C   UNL     1      -1.526  11.185  18.234  0.00  0.00    +0.000 C 
ATOM      2  C   UNL     1      -0.310  11.770  18.976  0.00  0.00    +0.000 C 
ATOM      3  C   UNL     1       0.968  11.598  18.166  0.00  0.00    +0.000 C 
ATOM      4  C   UNL     1       1.437  10.135  18.149  0.00  0.00    +0.000 C 
ATOM      5  C   UNL     1       1.495   9.468  19.550  0.00  0.00    +0.000 C 
ATOM      6  C   UNL     1       1.876   7.993  19.545  0.00  0.00    +0.000 A 
ATOM      7  C   UNL     1       2.745   7.476  18.572  0.00  0.00    +0.000 A 
ATOM      8  C   UNL     1       3.170   6.130  18.552  0.00  0.00    +0.000 A 
ATOM      9  C   UNL     1       2.696   5.301  19.580  0.00  0.00    +0.000 A 
ATOM     10  C   UNL     1       1.840   5.786  20.560  0.00  0.00    +0.000 A 
ATOM     11  C   UNL     1       1.438   7.130  20.564  0.00  0.00    +0.000 A 
ATOM     12  C   UNL     1       0.495   7.582  21.647  0.00  0.00    +0.000 C 
ATOM     13  C   UNL     1       0.354   9.099  21.754  0.00  0.00    +0.000 C 
ATOM     14  C   UNL     1       0.186   9.712  20.361  0.00  0.00    +0.000 C 
ATOM     15  C   UNL     1      -0.070  11.220  20.397  0.00  0.00    +0.000 C 
ATOM     16  C   UNL     1      -1.222  11.795  21.218  0.00  0.00    +0.000 C 
ATOM     17  C   UNL     1      -1.305  13.253  20.730  0.00  0.00    +0.000 C 
ATOM     18  C   UNL     1      -0.669  13.198  19.351  0.00  0.00    +0.000 C 
ATOM     19  O   UNL     1      -0.496  14.165  18.638  0.00  0.00    +0.000 OA
ENDROOT
BRANCH   8  20
ATOM     20  C   UNL     1       4.036   5.660  17.455  0.00  0.00    +0.000 A 
ATOM     21  C   UNL     1       4.712   6.575  16.619  0.00  0.00    +0.000 A 
ATOM     22  C   UNL     1       5.465   6.130  15.540  0.00  0.00    +0.000 A 
ATOM     23  C   UNL     1       5.609   4.764  15.307  0.00  0.00    +0.000 A 
ATOM     24  C   UNL     1       4.985   3.845  16.131  0.00  0.00    +0.000 A 
ATOM     25  C   UNL     1       4.181   4.294  17.163  0.00  0.00    +0.000 A 
ENDBRANCH   8  20
BRANCH   9  26
ATOM     26  O   UNL     1       3.030   3.981  19.719  0.00  0.00    +0.000 OA
ATOM     27  H   UNL     1       2.742   3.681  20.595  0.00  0.00    +0.000 HD
ENDBRANCH   9  26
TORSDOF 2
ENDMDL
MODEL 7
REMARK VINA RESULT:      -7.5      3.815      5.743
REMARK  Name = 
REMARK  3 active torsions:
REMARK  status: ('A' for Active; 'I' for Inactive)
REMARK    1  A    between atoms: C_1  and  C_2
REMARK    2  A    between atoms: C_8  and  C_9
REMARK    3  A    between atoms: C_15  and  O_16
REMARK                            x       y       z     vdW  Elec       q    Type
REMARK                         _______ _______ _______ _____ _____    ______ ____
ROOT
ATOM      1  C   UNL     1       3.507   2.617  19.964  0.00  0.00    +0.000 C 
ATOM      2  C   UNL     1       2.464   3.480  19.230  0.00  0.00    +0.000 C 
ATOM      3  C   UNL     1       2.134   2.903  17.860  0.00  0.00    +0.000 C 
ATOM      4  C   UNL     1       3.288   3.105  16.865  0.00  0.00    +0.000 C 
ATOM      5  C   UNL     1       3.835   4.557  16.812  0.00  0.00    +0.000 C 
ATOM      6  C   UNL     1       5.035   4.758  15.894  0.00  0.00    +0.000 A 
ATOM      7  C   UNL     1       5.189   3.991  14.730  0.00  0.00    +0.000 A 
ATOM      8  C   UNL     1       6.253   4.172  13.820  0.00  0.00    +0.000 A 
ATOM      9  C   UNL     1       7.173   5.190  14.115  0.00  0.00    +0.000 A 
ATOM     10  C   UNL     1       7.042   5.970  15.257  0.00  0.00    +0.000 A 
ATOM     11  C   UNL     1       5.971   5.777  16.143  0.00  0.00    +0.000 A 
ATOM     12  C   UNL     1       5.904   6.647  17.369  0.00  0.00    +0.000 C 
ATOM     13  C   UNL     1       4.566   6.579  18.105  0.00  0.00    +0.000 C 
ATOM     14  C   UNL     1       4.112   5.124  18.238  0.00  0.00    +0.000 C 
ATOM     15  C   UNL     1       2.832   4.968  19.061  0.00  0.00    +0.000 C 
ATOM     16  C   UNL     1       2.742   5.537  20.476  0.00  0.00    +0.000 C 
ATOM     17  C   UNL     1       1.453   4.899  21.027  0.00  0.00    +0.000 C 
ATOM     18  C   UNL     1       1.288   3.650  20.177  0.00  0.00    +0.000 C 
ATOM     19  O   UNL     1       0.354   2.881  20.265  0.00  0.00    +0.000 OA
ENDROOT
BRANCH   8  20
ATOM     20  C   UNL     1       6.369   3.277  12.654  0.00  0.00    +0.000 A 
ATOM     21  C   UNL     1       5.235   2.630  12.119  0.00  0.00    +0.000 A 
ATOM     22  C   UNL     1       5.359   1.728  11.069  0.00  0.00    +0.000 A 
ATOM     23  C   UNL     1       6.606   1.499  10.492  0.00  0.00    +0.000 A 
ATOM     24  C   UNL     1       7.729   2.146  10.975  0.00  0.00    +0.000 A 
ATOM     25  C   UNL     1       7.611   2.990  12.064  0.00  0.00    +0.000 A 
ENDBRANCH   8  20
BRANCH   9  26
ATOM     26  O   UNL     1       8.244   5.510  13.327  0.00  0.00    +0.000 OA
ATOM     27  H   UNL     1       7.991   6.245  12.747  0.00  0.00    +0.000 HD
ENDBRANCH   9  26
TORSDOF 2
ENDMDL
MODEL 8
REMARK VINA RESULT:      -7.5      1.538      3.025
REMARK  Name = 
REMARK  3 active torsions:
REMARK  status: ('A' for Active; 'I' for Inactive)
REMARK    1  A    between atoms: C_1  and  C_2
REMARK    2  A    between atoms: C_8  and  C_9
REMARK    3  A    between atoms: C_15  and  O_16
REMARK                            x       y       z     vdW  Elec       q    Type
REMARK                         _______ _______ _______ _____ _____    ______ ____
ROOT
ATOM      1  C   UNL     1      -1.702  12.026  18.497  0.00  0.00    +0.000 C 
ATOM      2  C   UNL     1      -0.466  12.546  19.253  0.00  0.00    +0.000 C 
ATOM      3  C   UNL     1       0.814  12.277  18.473  0.00  0.00    +0.000 C 
ATOM      4  C   UNL     1       1.188  10.787  18.491  0.00  0.00    +0.000 C 
ATOM      5  C   UNL     1       1.175  10.145  19.905  0.00  0.00    +0.000 C 
ATOM      6  C   UNL     1       1.460   8.648  19.934  0.00  0.00    +0.000 A 
ATOM      7  C   UNL     1       2.313   8.058  18.989  0.00  0.00    +0.000 A 
ATOM      8  C   UNL     1       2.650   6.688  19.002  0.00  0.00    +0.000 A 
ATOM      9  C   UNL     1       2.104   5.910  20.035  0.00  0.00    +0.000 A 
ATOM     10  C   UNL     1       1.262   6.469  20.988  0.00  0.00    +0.000 A 
ATOM     11  C   UNL     1       0.948   7.835  20.960  0.00  0.00    +0.000 A 
ATOM     12  C   UNL     1       0.015   8.367  22.015  0.00  0.00    +0.000 C 
ATOM     13  C   UNL     1      -0.030   9.892  22.091  0.00  0.00    +0.000 C 
ATOM     14  C   UNL     1      -0.131  10.487  20.685  0.00  0.00    +0.000 C 
ATOM     15  C   UNL     1      -0.290  12.009  20.688  0.00  0.00    +0.000 C 
ATOM     16  C   UNL     1      -1.418  12.673  21.475  0.00  0.00    +0.000 C 
ATOM     17  C   UNL     1      -1.397  14.123  20.959  0.00  0.00    +0.000 C 
ATOM     18  C   UNL     1      -0.739  14.002  19.595  0.00  0.00    +0.000 C 
ATOM     19  O   UNL     1      -0.490  14.941  18.869  0.00  0.00    +0.000 OA
ENDROOT
BRANCH   8  20
ATOM     20  C   UNL     1       3.505   6.142  17.931  0.00  0.00    +0.000 A 
ATOM     21  C   UNL     1       3.517   4.761  17.642  0.00  0.00    +0.000 A 
ATOM     22  C   UNL     1       4.379   4.242  16.684  0.00  0.00    +0.000 A 
ATOM     23  C   UNL     1       5.203   5.095  15.954  0.00  0.00    +0.000 A 
ATOM     24  C   UNL     1       5.186   6.457  16.193  0.00  0.00    +0.000 A 
ATOM     25  C   UNL     1       4.376   6.961  17.194  0.00  0.00    +0.000 A 
ENDBRANCH   8  20
BRANCH   9  26
ATOM     26  O   UNL     1       2.350   4.575  20.204  0.00  0.00    +0.000 OA
ATOM     27  H   UNL     1       1.507   4.098  20.150  0.00  0.00    +0.000 HD
ENDBRANCH   9  26
TORSDOF 2
ENDMDL
MODEL 9
REMARK VINA RESULT:      -7.4      3.937      7.181
REMARK  Name = 
REMARK  3 active torsions:
REMARK  status: ('A' for Active; 'I' for Inactive)
REMARK    1  A    between atoms: C_1  and  C_2
REMARK    2  A    between atoms: C_8  and  C_9
REMARK    3  A    between atoms: C_15  and  O_16
REMARK                            x       y       z     vdW  Elec       q    Type
REMARK                         _______ _______ _______ _____ _____    ______ ____
ROOT
ATOM      1  C   UNL     1      -6.336  11.006  18.977  0.00  0.00    +0.000 C 
ATOM      2  C   UNL     1      -5.584  12.208  18.376  0.00  0.00    +0.000 C 
ATOM      3  C   UNL     1      -4.480  11.753  17.431  0.00  0.00    +0.000 C 
ATOM      4  C   UNL     1      -3.294  11.144  18.194  0.00  0.00    +0.000 C 
ATOM      5  C   UNL     1      -2.782  12.013  19.374  0.00  0.00    +0.000 C 
ATOM      6  C   UNL     1      -1.661  11.387  20.195  0.00  0.00    +0.000 A 
ATOM      7  C   UNL     1      -0.724  10.530  19.600  0.00  0.00    +0.000 A 
ATOM      8  C   UNL     1       0.362   9.965  20.304  0.00  0.00    +0.000 A 
ATOM      9  C   UNL     1       0.491  10.313  21.657  0.00  0.00    +0.000 A 
ATOM     10  C   UNL     1      -0.419  11.165  22.271  0.00  0.00    +0.000 A 
ATOM     11  C   UNL     1      -1.485  11.721  21.549  0.00  0.00    +0.000 A 
ATOM     12  C   UNL     1      -2.441  12.622  22.284  0.00  0.00    +0.000 C 
ATOM     13  C   UNL     1      -3.376  13.412  21.370  0.00  0.00    +0.000 C 
ATOM     14  C   UNL     1      -3.950  12.497  20.286  0.00  0.00    +0.000 C 
ATOM     15  C   UNL     1      -4.982  13.194  19.397  0.00  0.00    +0.000 C 
ATOM     16  C   UNL     1      -6.198  13.885  20.010  0.00  0.00    +0.000 C 
ATOM     17  C   UNL     1      -7.095  14.160  18.789  0.00  0.00    +0.000 C 
ATOM     18  C   UNL     1      -6.633  13.127  17.774  0.00  0.00    +0.000 C 
ATOM     19  O   UNL     1      -7.065  13.038  16.644  0.00  0.00    +0.000 OA
ENDROOT
BRANCH   8  20
ATOM     20  C   UNL     1       1.262   9.023  19.611  0.00  0.00    +0.000 A 
ATOM     21  C   UNL     1       1.752   9.304  18.318  0.00  0.00    +0.000 A 
ATOM     22  C   UNL     1       2.537   8.381  17.639  0.00  0.00    +0.000 A 
ATOM     23  C   UNL     1       2.900   7.187  18.258  0.00  0.00    +0.000 A 
ATOM     24  C   UNL     1       2.462   6.902  19.538  0.00  0.00    +0.000 A 
ATOM     25  C   UNL     1       1.625   7.793  20.184  0.00  0.00    +0.000 A 
ENDBRANCH   8  20
BRANCH   9  26
ATOM     26  O   UNL     1       1.497   9.872  22.472  0.00  0.00    +0.000 OA
ATOM     27  H   UNL     1       1.947   9.133  22.033  0.00  0.00    +0.000 HD
ENDBRANCH   9  26
TORSDOF 2
ENDMDL
