MODEL 1
REMARK VINA RESULT:      -6.2      0.000      0.000
REMARK  Name = 
REMARK  3 active torsions:
REMARK  status: ('A' for Active; 'I' for Inactive)
REMARK    1  A    between atoms: C_2  and  C_11
REMARK    2  A    between atoms: N_3  and  N_4
REMARK    3  A    between atoms: C_5  and  C_6
REMARK                            x       y       z     vdW  Elec       q    Type
REMARK                         _______ _______ _______ _____ _____    ______ ____
ROOT
ATOM      1  O   UNL     1       8.034   6.580  18.748  0.00  0.00    +0.000 OA
ATOM      2  C   UNL     1       7.622   7.147  17.739  0.00  0.00    +0.000 C 
ATOM      3  N   UNL     1       7.778   8.508  17.505  0.00  0.00    +0.000 N 
ATOM      4  H   UNL     1       7.398   8.898  16.644  0.00  0.00    +0.000 HD
ENDROOT
BRANCH   2   5
ATOM      5  C   UNL     1       6.913   6.436  16.663  0.00  0.00    +0.000 A 
ATOM      6  N   UNL     1       7.578   5.840  15.642  0.00  0.00    +0.000 NA
ATOM      7  N   UNL     1       6.599   5.289  14.892  0.00  0.00    +0.000 N 
ATOM      8  C   UNL     1       5.346   5.511  15.370  0.00  0.00    +0.000 A 
ATOM      9  C   UNL     1       5.518   6.252  16.508  0.00  0.00    +0.000 A 
ATOM     10 BR   UNL     1       4.144   6.876  17.618  0.00  0.00    +0.000 Br
ATOM     11  H   UNL     1       6.861   4.768  14.059  0.00  0.00    +0.000 HD
ENDBRANCH   2   5
BRANCH   3  12
ATOM     12  N   UNL     1       8.427   9.272  18.430  0.00  0.00    +0.000 NA
ATOM     13  C   UNL     1       9.201  10.217  18.005  0.00  0.00    +0.000 C 
BRANCH  13  14
ATOM     14  C   UNL     1       9.892  11.047  18.965  0.00  0.00    +0.000 A 
ATOM     15  C   UNL     1      11.051  11.780  18.790  0.00  0.00    +0.000 A 
ATOM     16  C   UNL     1      11.446  12.463  19.976  0.00  0.00    +0.000 A 
ATOM     17  C   UNL     1      10.573  12.232  21.015  0.00  0.00    +0.000 A 
ATOM     18  S   UNL     1       9.283  11.204  20.553  0.00  0.00    +0.000 S 
ENDBRANCH  13  14
ENDBRANCH   3  12
TORSDOF 3
ENDMDL
MODEL 2
REMARK VINA RESULT:      -6.1      6.622      7.429
REMARK  Name = 
REMARK  3 active torsions:
REMARK  status: ('A' for Active; 'I' for Inactive)
REMARK    1  A    between atoms: C_2  and  C_11
REMARK    2  A    between atoms: N_3  and  N_4
REMARK    3  A    between atoms: C_5  and  C_6
REMARK                            x       y       z     vdW  Elec       q    Type
REMARK                         _______ _______ _______ _____ _____    ______ ____
ROOT
ATOM      1  O   UNL     1       5.567   3.051  15.708  0.00  0.00    +0.000 OA
ATOM      2  C   UNL     1       5.929   4.220  15.592  0.00  0.00    +0.000 C 
ATOM      3  N   UNL     1       5.591   5.222  16.495  0.00  0.00    +0.000 N 
ATOM      4  H   UNL     1       5.928   6.167  16.317  0.00  0.00    +0.000 HD
ENDROOT
BRANCH   2   5
ATOM      5  C   UNL     1       6.766   4.683  14.475  0.00  0.00    +0.000 A 
ATOM      6  N   UNL     1       7.790   5.554  14.661  0.00  0.00    +0.000 NA
ATOM      7  N   UNL     1       8.315   5.710  13.427  0.00  0.00    +0.000 N 
ATOM      8  C   UNL     1       7.676   4.998  12.461  0.00  0.00    +0.000 A 
ATOM      9  C   UNL     1       6.670   4.331  13.106  0.00  0.00    +0.000 A 
ATOM     10 BR   UNL     1       5.433   3.180  12.297  0.00  0.00    +0.000 Br
ATOM     11  H   UNL     1       9.118   6.322  13.316  0.00  0.00    +0.000 HD
ENDBRANCH   2   5
BRANCH   3  12
ATOM     12  N   UNL     1       4.822   4.911  17.578  0.00  0.00    +0.000 NA
ATOM     13  C   UNL     1       3.548   5.120  17.500  0.00  0.00    +0.000 C 
BRANCH  13  14
ATOM     14  C   UNL     1       2.711   4.790  18.630  0.00  0.00    +0.000 A 
ATOM     15  C   UNL     1       2.764   5.296  19.916  0.00  0.00    +0.000 A 
ATOM     16  C   UNL     1       1.784   4.714  20.770  0.00  0.00    +0.000 A 
ATOM     17  C   UNL     1       1.013   3.786  20.106  0.00  0.00    +0.000 A 
ATOM     18  S   UNL     1       1.468   3.630  18.463  0.00  0.00    +0.000 S 
ENDBRANCH  13  14
ENDBRANCH   3  12
TORSDOF 3
ENDMDL
MODEL 3
REMARK VINA RESULT:      -6.1      6.426      7.560
REMARK  Name = 
REMARK  3 active torsions:
REMARK  status: ('A' for Active; 'I' for Inactive)
REMARK    1  A    between atoms: C_2  and  C_11
REMARK    2  A    between atoms: N_3  and  N_4
REMARK    3  A    between atoms: C_5  and  C_6
REMARK                            x       y       z     vdW  Elec       q    Type
REMARK                         _______ _______ _______ _____ _____    ______ ____
ROOT
ATOM      1  O   UNL     1       5.884   2.979  15.925  0.00  0.00    +0.000 OA
ATOM      2  C   UNL     1       5.981   4.171  15.643  0.00  0.00    +0.000 C 
ATOM      3  N   UNL     1       5.372   5.186  16.372  0.00  0.00    +0.000 N 
ATOM      4  H   UNL     1       5.500   6.148  16.063  0.00  0.00    +0.000 HD
ENDROOT
BRANCH   2   5
ATOM      5  C   UNL     1       6.762   4.652  14.493  0.00  0.00    +0.000 A 
ATOM      6  N   UNL     1       7.791   5.524  14.640  0.00  0.00    +0.000 NA
ATOM      7  N   UNL     1       8.256   5.698  13.385  0.00  0.00    +0.000 N 
ATOM      8  C   UNL     1       7.573   4.997  12.442  0.00  0.00    +0.000 A 
ATOM      9  C   UNL     1       6.602   4.317  13.126  0.00  0.00    +0.000 A 
ATOM     10 BR   UNL     1       5.330   3.173  12.363  0.00  0.00    +0.000 Br
ATOM     11  H   UNL     1       9.051   6.315  13.243  0.00  0.00    +0.000 HD
ENDBRANCH   2   5
BRANCH   3  12
ATOM     12  N   UNL     1       4.626   4.862  17.468  0.00  0.00    +0.000 NA
ATOM     13  C   UNL     1       3.339   4.835  17.341  0.00  0.00    +0.000 C 
BRANCH  13  14
ATOM     14  C   UNL     1       2.527   4.486  18.483  0.00  0.00    +0.000 A 
ATOM     15  C   UNL     1       1.408   3.675  18.527  0.00  0.00    +0.000 A 
ATOM     16  C   UNL     1       0.857   3.579  19.837  0.00  0.00    +0.000 A 
ATOM     17  C   UNL     1       1.576   4.317  20.750  0.00  0.00    +0.000 A 
ATOM     18  S   UNL     1       2.911   5.110  20.027  0.00  0.00    +0.000 S 
ENDBRANCH  13  14
ENDBRANCH   3  12
TORSDOF 3
ENDMDL
MODEL 4
REMARK VINA RESULT:      -6.1      1.175      1.329
REMARK  Name = 
REMARK  3 active torsions:
REMARK  status: ('A' for Active; 'I' for Inactive)
REMARK    1  A    between atoms: C_2  and  C_11
REMARK    2  A    between atoms: N_3  and  N_4
REMARK    3  A    between atoms: C_5  and  C_6
REMARK                            x       y       z     vdW  Elec       q    Type
REMARK                         _______ _______ _______ _____ _____    ______ ____
ROOT
ATOM      1  O   UNL     1       7.882   6.100  19.374  0.00  0.00    +0.000 OA
ATOM      2  C   UNL     1       7.541   6.474  18.254  0.00  0.00    +0.000 C 
ATOM      3  N   UNL     1       7.804   7.745  17.755  0.00  0.00    +0.000 N 
ATOM      4  H   UNL     1       7.478   7.973  16.818  0.00  0.00    +0.000 HD
ENDROOT
BRANCH   2   5
ATOM      5  C   UNL     1       6.813   5.606  17.316  0.00  0.00    +0.000 A 
ATOM      6  N   UNL     1       7.443   4.643  16.597  0.00  0.00    +0.000 NA
ATOM      7  N   UNL     1       6.451   4.062  15.889  0.00  0.00    +0.000 N 
ATOM      8  C   UNL     1       5.225   4.609  16.104  0.00  0.00    +0.000 A 
ATOM      9  C   UNL     1       5.429   5.609  17.016  0.00  0.00    +0.000 A 
ATOM     10 BR   UNL     1       4.104   6.737  17.710  0.00  0.00    +0.000 Br
ATOM     11  H   UNL     1       6.684   3.289  15.272  0.00  0.00    +0.000 HD
ENDBRANCH   2   5
BRANCH   3  12
ATOM     12  N   UNL     1       8.481   8.638  18.532  0.00  0.00    +0.000 NA
ATOM     13  C   UNL     1       8.565   9.862  18.121  0.00  0.00    +0.000 C 
BRANCH  13  14
ATOM     14  C   UNL     1       9.269  10.829  18.931  0.00  0.00    +0.000 A 
ATOM     15  C   UNL     1       9.542  10.780  20.285  0.00  0.00    +0.000 A 
ATOM     16  C   UNL     1      10.243  11.933  20.741  0.00  0.00    +0.000 A 
ATOM     17  C   UNL     1      10.485  12.822  19.718  0.00  0.00    +0.000 A 
ATOM     18  S   UNL     1       9.875  12.259  18.219  0.00  0.00    +0.000 S 
ENDBRANCH  13  14
ENDBRANCH   3  12
TORSDOF 3
ENDMDL
MODEL 5
REMARK VINA RESULT:      -6.1      7.255      7.787
REMARK  Name = 
REMARK  3 active torsions:
REMARK  status: ('A' for Active; 'I' for Inactive)
REMARK    1  A    between atoms: C_2  and  C_11
REMARK    2  A    between atoms: N_3  and  N_4
REMARK    3  A    between atoms: C_5  and  C_6
REMARK                            x       y       z     vdW  Elec       q    Type
REMARK                         _______ _______ _______ _____ _____    ______ ____
ROOT
ATOM      1  O   UNL     1       2.105   5.558  18.106  0.00  0.00    +0.000 OA
ATOM      2  C   UNL     1       2.773   5.433  19.130  0.00  0.00    +0.000 C 
ATOM      3  N   UNL     1       2.817   6.385  20.141  0.00  0.00    +0.000 N 
ATOM      4  H   UNL     1       3.404   6.203  20.953  0.00  0.00    +0.000 HD
ENDROOT
BRANCH   2   5
ATOM      5  C   UNL     1       3.604   4.247  19.394  0.00  0.00    +0.000 A 
ATOM      6  N   UNL     1       4.873   4.145  18.926  0.00  0.00    +0.000 NA
ATOM      7  N   UNL     1       5.298   2.950  19.390  0.00  0.00    +0.000 N 
ATOM      8  C   UNL     1       4.365   2.277  20.115  0.00  0.00    +0.000 A 
ATOM      9  C   UNL     1       3.262   3.087  20.131  0.00  0.00    +0.000 A 
ATOM     10 BR   UNL     1       1.638   2.699  20.979  0.00  0.00    +0.000 Br
ATOM     11  H   UNL     1       6.245   2.654  19.171  0.00  0.00    +0.000 HD
ENDBRANCH   2   5
BRANCH   3  12
ATOM     12  N   UNL     1       2.080   7.527  20.012  0.00  0.00    +0.000 NA
ATOM     13  C   UNL     1       1.395   7.927  21.033  0.00  0.00    +0.000 C 
BRANCH  13  14
ATOM     14  C   UNL     1       0.614   9.138  20.926  0.00  0.00    +0.000 A 
ATOM     15  C   UNL     1       0.298   9.858  19.789  0.00  0.00    +0.000 A 
ATOM     16  C   UNL     1      -0.478  11.017  20.077  0.00  0.00    +0.000 A 
ATOM     17  C   UNL     1      -0.731  11.141  21.425  0.00  0.00    +0.000 A 
ATOM     18  S   UNL     1      -0.041   9.860  22.329  0.00  0.00    +0.000 S 
ENDBRANCH  13  14
ENDBRANCH   3  12
TORSDOF 3
ENDMDL
MODEL 6
REMARK VINA RESULT:      -6.0      6.680      7.809
REMARK  Name = 
REMARK  3 active torsions:
REMARK  status: ('A' for Active; 'I' for Inactive)
REMARK    1  A    between atoms: C_2  and  C_11
REMARK    2  A    between atoms: N_3  and  N_4
REMARK    3  A    between atoms: C_5  and  C_6
REMARK                            x       y       z     vdW  Elec       q    Type
REMARK                         _______ _______ _______ _____ _____    ______ ____
ROOT
ATOM      1  O   UNL     1       3.069   7.322  18.184  0.00  0.00    +0.000 OA
ATOM      2  C   UNL     1       3.061   6.518  19.114  0.00  0.00    +0.000 C 
ATOM      3  N   UNL     1       2.387   6.734  20.310  0.00  0.00    +0.000 N 
ATOM      4  H   UNL     1       2.440   6.016  21.031  0.00  0.00    +0.000 HD
ENDROOT
BRANCH   2   5
ATOM      5  C   UNL     1       3.770   5.231  19.054  0.00  0.00    +0.000 A 
ATOM      6  N   UNL     1       5.106   5.139  19.271  0.00  0.00    +0.000 NA
ATOM      7  N   UNL     1       5.368   3.820  19.155  0.00  0.00    +0.000 N 
ATOM      8  C   UNL     1       4.276   3.065  18.862  0.00  0.00    +0.000 A 
ATOM      9  C   UNL     1       3.233   3.948  18.787  0.00  0.00    +0.000 A 
ATOM     10 BR   UNL     1       1.454   3.502  18.405  0.00  0.00    +0.000 Br
ATOM     11  H   UNL     1       6.323   3.501  19.290  0.00  0.00    +0.000 HD
ENDBRANCH   2   5
BRANCH   3  12
ATOM     12  N   UNL     1       1.686   7.892  20.480  0.00  0.00    +0.000 NA
ATOM     13  C   UNL     1       1.012   8.040  21.574  0.00  0.00    +0.000 C 
BRANCH  13  14
ATOM     14  C   UNL     1       0.269   9.261  21.782  0.00  0.00    +0.000 A 
ATOM     15  C   UNL     1      -0.244   9.765  22.964  0.00  0.00    +0.000 A 
ATOM     16  C   UNL     1      -0.940  10.993  22.775  0.00  0.00    +0.000 A 
ATOM     17  C   UNL     1      -0.932  11.388  21.456  0.00  0.00    +0.000 A 
ATOM     18  S   UNL     1      -0.082  10.284  20.459  0.00  0.00    +0.000 S 
ENDBRANCH  13  14
ENDBRANCH   3  12
TORSDOF 3
ENDMDL
MODEL 7
REMARK VINA RESULT:      -6.0      6.326      8.025
REMARK  Name = 
REMARK  3 active torsions:
REMARK  status: ('A' for Active; 'I' for Inactive)
REMARK    1  A    between atoms: C_2  and  C_11
REMARK    2  A    between atoms: N_3  and  N_4
REMARK    3  A    between atoms: C_5  and  C_6
REMARK                            x       y       z     vdW  Elec       q    Type
REMARK                         _______ _______ _______ _____ _____    ______ ____
ROOT
ATOM      1  O   UNL     1       5.008   5.892  16.035  0.00  0.00    +0.000 OA
ATOM      2  C   UNL     1       5.686   4.922  15.707  0.00  0.00    +0.000 C 
ATOM      3  N   UNL     1       5.659   3.704  16.375  0.00  0.00    +0.000 N 
ATOM      4  H   UNL     1       6.261   2.954  16.039  0.00  0.00    +0.000 HD
ENDROOT
BRANCH   2   5
ATOM      5  C   UNL     1       6.607   4.950  14.559  0.00  0.00    +0.000 A 
ATOM      6  N   UNL     1       7.802   5.589  14.616  0.00  0.00    +0.000 NA
ATOM      7  N   UNL     1       8.349   5.369  13.401  0.00  0.00    +0.000 N 
ATOM      8  C   UNL     1       7.563   4.638  12.567  0.00  0.00    +0.000 A 
ATOM      9  C   UNL     1       6.432   4.357  13.285  0.00  0.00    +0.000 A 
ATOM     10 BR   UNL     1       4.965   3.372  12.664  0.00  0.00    +0.000 Br
ATOM     11  H   UNL     1       9.270   5.751  13.208  0.00  0.00    +0.000 HD
ENDBRANCH   2   5
BRANCH   3  12
ATOM     12  N   UNL     1       4.837   3.555  17.454  0.00  0.00    +0.000 NA
ATOM     13  C   UNL     1       3.604   3.229  17.238  0.00  0.00    +0.000 C 
BRANCH  13  14
ATOM     14  C   UNL     1       2.715   3.056  18.364  0.00  0.00    +0.000 A 
ATOM     15  C   UNL     1       1.335   3.131  18.389  0.00  0.00    +0.000 A 
ATOM     16  C   UNL     1       0.802   2.922  19.693  0.00  0.00    +0.000 A 
ATOM     17  C   UNL     1       1.794   2.692  20.620  0.00  0.00    +0.000 A 
ATOM     18  S   UNL     1       3.353   2.719  19.913  0.00  0.00    +0.000 S 
ENDBRANCH  13  14
ENDBRANCH   3  12
TORSDOF 3
ENDMDL
MODEL 8
REMARK VINA RESULT:      -5.9      1.296      1.433
REMARK  Name = 
REMARK  3 active torsions:
REMARK  status: ('A' for Active; 'I' for Inactive)
REMARK    1  A    between atoms: C_2  and  C_11
REMARK    2  A    between atoms: N_3  and  N_4
REMARK    3  A    between atoms: C_5  and  C_6
REMARK                            x       y       z     vdW  Elec       q    Type
REMARK                         _______ _______ _______ _____ _____    ______ ____
ROOT
ATOM      1  O   UNL     1       6.829   6.241  18.634  0.00  0.00    +0.000 OA
ATOM      2  C   UNL     1       7.063   6.529  17.463  0.00  0.00    +0.000 C 
ATOM      3  N   UNL     1       7.760   7.669  17.077  0.00  0.00    +0.000 N 
ATOM      4  H   UNL     1       7.903   7.835  16.083  0.00  0.00    +0.000 HD
ENDROOT
BRANCH   2   5
ATOM      5  C   UNL     1       6.627   5.689  16.337  0.00  0.00    +0.000 A 
ATOM      6  N   UNL     1       7.429   5.451  15.269  0.00  0.00    +0.000 NA
ATOM      7  N   UNL     1       6.694   4.637  14.482  0.00  0.00    +0.000 N 
ATOM      8  C   UNL     1       5.462   4.353  14.981  0.00  0.00    +0.000 A 
ATOM      9  C   UNL     1       5.389   5.021  16.173  0.00  0.00    +0.000 A 
ATOM     10 BR   UNL     1       3.919   5.020  17.335  0.00  0.00    +0.000 Br
ATOM     11  H   UNL     1       7.099   4.310  13.610  0.00  0.00    +0.000 HD
ENDBRANCH   2   5
BRANCH   3  12
ATOM     12  N   UNL     1       8.222   8.523  18.036  0.00  0.00    +0.000 NA
ATOM     13  C   UNL     1       8.553   9.720  17.675  0.00  0.00    +0.000 C 
BRANCH  13  14
ATOM     14  C   UNL     1       9.037  10.647  18.673  0.00  0.00    +0.000 A 
ATOM     15  C   UNL     1       9.374  10.393  19.989  0.00  0.00    +0.000 A 
ATOM     16  C   UNL     1       9.795  11.566  20.679  0.00  0.00    +0.000 A 
ATOM     17  C   UNL     1       9.768  12.676  19.864  0.00  0.00    +0.000 A 
ATOM     18  S   UNL     1       9.246  12.295  18.278  0.00  0.00    +0.000 S 
ENDBRANCH  13  14
ENDBRANCH   3  12
TORSDOF 3
ENDMDL
MODEL 9
REMARK VINA RESULT:      -5.9      6.992      7.557
REMARK  Name = 
REMARK  3 active torsions:
REMARK  status: ('A' for Active; 'I' for Inactive)
REMARK    1  A    between atoms: C_2  and  C_11
REMARK    2  A    between atoms: N_3  and  N_4
REMARK    3  A    between atoms: C_5  and  C_6
REMARK                            x       y       z     vdW  Elec       q    Type
REMARK                         _______ _______ _______ _____ _____    ______ ____
ROOT
ATOM      1  O   UNL     1       3.107   5.860  17.843  0.00  0.00    +0.000 OA
ATOM      2  C   UNL     1       3.193   5.503  19.016  0.00  0.00    +0.000 C 
ATOM      3  N   UNL     1       2.774   6.282  20.088  0.00  0.00    +0.000 N 
ATOM      4  H   UNL     1       2.889   5.911  21.029  0.00  0.00    +0.000 HD
ENDROOT
BRANCH   2   5
ATOM      5  C   UNL     1       3.751   4.200  19.409  0.00  0.00    +0.000 A 
ATOM      6  N   UNL     1       5.052   3.884  19.190  0.00  0.00    +0.000 NA
ATOM      7  N   UNL     1       5.178   2.641  19.702  0.00  0.00    +0.000 N 
ATOM      8  C   UNL     1       4.027   2.141  20.225  0.00  0.00    +0.000 A 
ATOM      9  C   UNL     1       3.090   3.122  20.046  0.00  0.00    +0.000 A 
ATOM     10 BR   UNL     1       1.292   3.018  20.564  0.00  0.00    +0.000 Br
ATOM     11  H   UNL     1       6.088   2.190  19.662  0.00  0.00    +0.000 HD
ENDBRANCH   2   5
BRANCH   3  12
ATOM     12  N   UNL     1       2.231   7.510  19.847  0.00  0.00    +0.000 NA
ATOM     13  C   UNL     1       1.464   8.025  20.752  0.00  0.00    +0.000 C 
BRANCH  13  14
ATOM     14  C   UNL     1       0.884   9.328  20.524  0.00  0.00    +0.000 A 
ATOM     15  C   UNL     1       0.416  10.235  21.457  0.00  0.00    +0.000 A 
ATOM     16  C   UNL     1      -0.107  11.415  20.854  0.00  0.00    +0.000 A 
ATOM     17  C   UNL     1      -0.018  11.370  19.480  0.00  0.00    +0.000 A 
ATOM     18  S   UNL     1       0.702   9.916  18.931  0.00  0.00    +0.000 S 
ENDBRANCH  13  14
ENDBRANCH   3  12
TORSDOF 3
ENDMDL
