MODEL 1
REMARK VINA RESULT:     -10.2      0.000      0.000
REMARK  Name = 
REMARK  6 active torsions:
REMARK  status: ('A' for Active; 'I' for Inactive)
REMARK    1  A    between atoms: C_2  and  C_9
REMARK    2  A    between atoms: N_3  and  C_4
REMARK    3  A    between atoms: N_13  and  C_14
REMARK    4  A    between atoms: C_17  and  C_18
REMARK    5  A    between atoms: C_20  and  C_21
REMARK    6  A    between atoms: C_26  and  C_27
REMARK                            x       y       z     vdW  Elec       q    Type
REMARK                         _______ _______ _______ _____ _____    ______ ____
ROOT
ATOM      1  C   UNL     1       0.873   9.081  20.710  0.00  0.00    +0.000 A 
ATOM      2  C   UNL     1       1.115   7.845  21.316  0.00  0.00    +0.000 A 
ATOM      3  C   UNL     1       1.778   6.865  20.596  0.00  0.00    +0.000 A 
ATOM      4  C   UNL     1       2.247   7.108  19.292  0.00  0.00    +0.000 A 
ATOM      5  C   UNL     1       2.053   8.381  18.737  0.00  0.00    +0.000 A 
ATOM      6  C   UNL     1       1.382   9.358  19.440  0.00  0.00    +0.000 A 
ENDROOT
BRANCH   4   7
ATOM      7  C   UNL     1       2.935   6.060  18.531  0.00  0.00    +0.000 A 
ATOM      8  C   UNL     1       3.855   6.387  17.523  0.00  0.00    +0.000 A 
ATOM      9  C   UNL     1       4.470   5.402  16.742  0.00  0.00    +0.000 A 
ATOM     10  C   UNL     1       4.203   4.054  17.022  0.00  0.00    +0.000 A 
ATOM     11  C   UNL     1       3.289   3.694  18.023  0.00  0.00    +0.000 A 
ATOM     12  C   UNL     1       2.662   4.704  18.764  0.00  0.00    +0.000 A 
BRANCH   9  13
ATOM     13  C   UNL     1       5.351   5.806  15.586  0.00  0.00    +0.000 C 
ATOM     14  F   UNL     1       5.001   7.013  15.055  0.00  0.00    +0.000 F 
ATOM     15  F   UNL     1       6.663   5.911  15.927  0.00  0.00    +0.000 F 
ATOM     16  F   UNL     1       5.298   4.921  14.553  0.00  0.00    +0.000 F 
ENDBRANCH   9  13
BRANCH  11  17
ATOM     17  C   UNL     1       2.955   2.242  18.265  0.00  0.00    +0.000 C 
ATOM     18  F   UNL     1       1.746   1.892  17.748  0.00  0.00    +0.000 F 
ATOM     19  F   UNL     1       3.861   1.394  17.709  0.00  0.00    +0.000 F 
ATOM     20  F   UNL     1       2.901   1.923  19.587  0.00  0.00    +0.000 F 
ENDBRANCH  11  17
ENDBRANCH   4   7
BRANCH   1  25
ATOM     21  C   UNL     1      -0.524  11.170  20.826  0.00  0.00    +0.000 A 
ATOM     22  C   UNL     1      -0.960  11.867  21.922  0.00  0.00    +0.000 A 
ATOM     23  N   UNL     1      -0.697  11.228  23.104  0.00  0.00    +0.000 NA
ATOM     24  C   UNL     1      -0.069  10.135  22.733  0.00  0.00    +0.000 A 
ATOM     25  N   UNL     1       0.114  10.056  21.374  0.00  0.00    +0.000 N 
BRANCH  21  27
ATOM     26  O   UNL     1      -0.038  12.262  18.785  0.00  0.00    +0.000 OA
ATOM     27  C   UNL     1      -0.728  11.470  19.425  0.00  0.00    +0.000 C 
ATOM     28  N   UNL     1      -1.785  10.809  18.843  0.00  0.00    +0.000 N 
ATOM     29  H   UNL     1      -2.382  10.233  19.420  0.00  0.00    +0.000 HD
BRANCH  28  30
ATOM     30  C   UNL     1      -2.192  11.038  17.469  0.00  0.00    +0.000 C 
ATOM     31  C   UNL     1      -2.037   9.787  16.610  0.00  0.00    +0.000 C 
ATOM     32  C   UNL     1      -2.892  10.084  15.385  0.00  0.00    +0.000 C 
ATOM     33  C   UNL     1      -4.017  10.994  15.876  0.00  0.00    +0.000 C 
ATOM     34  C   UNL     1      -3.682  11.349  17.325  0.00  0.00    +0.000 C 
ENDBRANCH  28  30
ENDBRANCH  21  27
ENDBRANCH   1  25
TORSDOF 6
ENDMDL
MODEL 2
REMARK VINA RESULT:     -10.1      0.320      1.024
REMARK  Name = 
REMARK  6 active torsions:
REMARK  status: ('A' for Active; 'I' for Inactive)
REMARK    1  A    between atoms: C_2  and  C_9
REMARK    2  A    between atoms: N_3  and  C_4
REMARK    3  A    between atoms: N_13  and  C_14
REMARK    4  A    between atoms: C_17  and  C_18
REMARK    5  A    between atoms: C_20  and  C_21
REMARK    6  A    between atoms: C_26  and  C_27
REMARK                            x       y       z     vdW  Elec       q    Type
REMARK                         _______ _______ _______ _____ _____    ______ ____
ROOT
ATOM      1  C   UNL     1       0.816   9.259  20.729  0.00  0.00    +0.000 A 
ATOM      2  C   UNL     1       1.104   8.054  21.374  0.00  0.00    +0.000 A 
ATOM      3  C   UNL     1       1.765   7.059  20.671  0.00  0.00    +0.000 A 
ATOM      4  C   UNL     1       2.186   7.261  19.343  0.00  0.00    +0.000 A 
ATOM      5  C   UNL     1       1.946   8.507  18.747  0.00  0.00    +0.000 A 
ATOM      6  C   UNL     1       1.277   9.496  19.433  0.00  0.00    +0.000 A 
ENDROOT
BRANCH   4   7
ATOM      7  C   UNL     1       2.873   6.199  18.602  0.00  0.00    +0.000 A 
ATOM      8  C   UNL     1       3.825   6.506  17.618  0.00  0.00    +0.000 A 
ATOM      9  C   UNL     1       4.440   5.507  16.854  0.00  0.00    +0.000 A 
ATOM     10  C   UNL     1       4.138   4.166  17.127  0.00  0.00    +0.000 A 
ATOM     11  C   UNL     1       3.191   3.825  18.104  0.00  0.00    +0.000 A 
ATOM     12  C   UNL     1       2.566   4.849  18.827  0.00  0.00    +0.000 A 
BRANCH   9  13
ATOM     13  C   UNL     1       5.361   5.892  15.721  0.00  0.00    +0.000 C 
ATOM     14  F   UNL     1       5.466   4.915  14.775  0.00  0.00    +0.000 F 
ATOM     15  F   UNL     1       4.957   7.011  15.063  0.00  0.00    +0.000 F 
ATOM     16  F   UNL     1       6.632   6.136  16.141  0.00  0.00    +0.000 F 
ENDBRANCH   9  13
BRANCH  11  17
ATOM     17  C   UNL     1       2.820   2.380  18.336  0.00  0.00    +0.000 C 
ATOM     18  F   UNL     1       3.898   1.605  18.633  0.00  0.00    +0.000 F 
ATOM     19  F   UNL     1       1.947   2.221  19.367  0.00  0.00    +0.000 F 
ATOM     20  F   UNL     1       2.233   1.803  17.252  0.00  0.00    +0.000 F 
ENDBRANCH  11  17
ENDBRANCH   4   7
BRANCH   1  25
ATOM     21  C   UNL     1      -0.585  11.348  20.816  0.00  0.00    +0.000 A 
ATOM     22  C   UNL     1      -1.019  12.062  21.901  0.00  0.00    +0.000 A 
ATOM     23  N   UNL     1      -0.750  11.442  23.093  0.00  0.00    +0.000 NA
ATOM     24  C   UNL     1      -0.121  10.345  22.738  0.00  0.00    +0.000 A 
ATOM     25  N   UNL     1       0.057  10.244  21.379  0.00  0.00    +0.000 N 
BRANCH  21  27
ATOM     26  O   UNL     1      -0.137  12.441  18.766  0.00  0.00    +0.000 OA
ATOM     27  C   UNL     1      -0.794  11.624  19.411  0.00  0.00    +0.000 C 
ATOM     28  N   UNL     1      -1.817  10.910  18.829  0.00  0.00    +0.000 N 
ATOM     29  H   UNL     1      -2.390  10.313  19.409  0.00  0.00    +0.000 HD
BRANCH  28  30
ATOM     30  C   UNL     1      -2.226  11.106  17.451  0.00  0.00    +0.000 C 
ATOM     31  C   UNL     1      -2.065   9.838  16.620  0.00  0.00    +0.000 C 
ATOM     32  C   UNL     1      -2.922  10.103  15.389  0.00  0.00    +0.000 C 
ATOM     33  C   UNL     1      -4.052  11.019  15.860  0.00  0.00    +0.000 C 
ATOM     34  C   UNL     1      -3.717  11.407  17.302  0.00  0.00    +0.000 C 
ENDBRANCH  28  30
ENDBRANCH  21  27
ENDBRANCH   1  25
TORSDOF 6
ENDMDL
MODEL 3
REMARK VINA RESULT:     -10.1      0.427      1.213
REMARK  Name = 
REMARK  6 active torsions:
REMARK  status: ('A' for Active; 'I' for Inactive)
REMARK    1  A    between atoms: C_2  and  C_9
REMARK    2  A    between atoms: N_3  and  C_4
REMARK    3  A    between atoms: N_13  and  C_14
REMARK    4  A    between atoms: C_17  and  C_18
REMARK    5  A    between atoms: C_20  and  C_21
REMARK    6  A    between atoms: C_26  and  C_27
REMARK                            x       y       z     vdW  Elec       q    Type
REMARK                         _______ _______ _______ _____ _____    ______ ____
ROOT
ATOM      1  C   UNL     1       0.739   9.231  20.637  0.00  0.00    +0.000 A 
ATOM      2  C   UNL     1       1.196   9.435  19.332  0.00  0.00    +0.000 A 
ATOM      3  C   UNL     1       1.921   8.431  18.712  0.00  0.00    +0.000 A 
ATOM      4  C   UNL     1       2.165   7.203  19.355  0.00  0.00    +0.000 A 
ATOM      5  C   UNL     1       1.632   7.001  20.635  0.00  0.00    +0.000 A 
ATOM      6  C   UNL     1       0.921   7.998  21.266  0.00  0.00    +0.000 A 
ENDROOT
BRANCH   4   7
ATOM      7  C   UNL     1       2.946   6.150  18.697  0.00  0.00    +0.000 A 
ATOM      8  C   UNL     1       3.849   6.459  17.668  0.00  0.00    +0.000 A 
ATOM      9  C   UNL     1       4.552   5.460  16.984  0.00  0.00    +0.000 A 
ATOM     10  C   UNL     1       4.390   4.126  17.384  0.00  0.00    +0.000 A 
ATOM     11  C   UNL     1       3.496   3.784  18.409  0.00  0.00    +0.000 A 
ATOM     12  C   UNL     1       2.780   4.803  19.050  0.00  0.00    +0.000 A 
BRANCH   9  13
ATOM     13  C   UNL     1       5.413   5.828  15.801  0.00  0.00    +0.000 C 
ATOM     14  F   UNL     1       5.521   4.814  14.894  0.00  0.00    +0.000 F 
ATOM     15  F   UNL     1       4.942   6.901  15.111  0.00  0.00    +0.000 F 
ATOM     16  F   UNL     1       6.689   6.138  16.159  0.00  0.00    +0.000 F 
ENDBRANCH   9  13
BRANCH  11  17
ATOM     17  C   UNL     1       3.276   2.338  18.780  0.00  0.00    +0.000 C 
ATOM     18  F   UNL     1       2.284   2.179  19.697  0.00  0.00    +0.000 F 
ATOM     19  F   UNL     1       2.928   1.569  17.713  0.00  0.00    +0.000 F 
ATOM     20  F   UNL     1       4.381   1.756  19.321  0.00  0.00    +0.000 F 
ENDBRANCH  11  17
ENDBRANCH   4   7
BRANCH   1  25
ATOM     21  C   UNL     1      -0.501  11.415  20.800  0.00  0.00    +0.000 A 
ATOM     22  C   UNL     1      -0.817  12.157  21.907  0.00  0.00    +0.000 A 
ATOM     23  N   UNL     1      -0.524  11.518  23.083  0.00  0.00    +0.000 NA
ATOM     24  C   UNL     1       0.002  10.378  22.694  0.00  0.00    +0.000 A 
ATOM     25  N   UNL     1       0.092  10.267  21.328  0.00  0.00    +0.000 N 
BRANCH  21  27
ATOM     26  O   UNL     1      -0.137  12.526  18.743  0.00  0.00    +0.000 OA
ATOM     27  C   UNL     1      -0.771  11.707  19.409  0.00  0.00    +0.000 C 
ATOM     28  N   UNL     1      -1.825  11.008  18.868  0.00  0.00    +0.000 N 
ATOM     29  H   UNL     1      -2.377  10.410  19.467  0.00  0.00    +0.000 HD
BRANCH  28  30
ATOM     30  C   UNL     1      -2.295  11.223  17.512  0.00  0.00    +0.000 C 
ATOM     31  C   UNL     1      -2.090   9.993  16.634  0.00  0.00    +0.000 C 
ATOM     32  C   UNL     1      -3.006  10.244  15.443  0.00  0.00    +0.000 C 
ATOM     33  C   UNL     1      -4.169  11.075  15.983  0.00  0.00    +0.000 C 
ATOM     34  C   UNL     1      -3.806  11.437  17.424  0.00  0.00    +0.000 C 
ENDBRANCH  28  30
ENDBRANCH  21  27
ENDBRANCH   1  25
TORSDOF 6
ENDMDL
MODEL 4
REMARK VINA RESULT:     -10.0      0.487      3.068
REMARK  Name = 
REMARK  6 active torsions:
REMARK  status: ('A' for Active; 'I' for Inactive)
REMARK    1  A    between atoms: C_2  and  C_9
REMARK    2  A    between atoms: N_3  and  C_4
REMARK    3  A    between atoms: N_13  and  C_14
REMARK    4  A    between atoms: C_17  and  C_18
REMARK    5  A    between atoms: C_20  and  C_21
REMARK    6  A    between atoms: C_26  and  C_27
REMARK                            x       y       z     vdW  Elec       q    Type
REMARK                         _______ _______ _______ _____ _____    ______ ____
ROOT
ATOM      1  C   UNL     1       0.730   9.328  20.723  0.00  0.00    +0.000 A 
ATOM      2  C   UNL     1       1.018   8.114  21.353  0.00  0.00    +0.000 A 
ATOM      3  C   UNL     1       1.664   7.123  20.632  0.00  0.00    +0.000 A 
ATOM      4  C   UNL     1       2.069   7.335  19.302  0.00  0.00    +0.000 A 
ATOM      5  C   UNL     1       1.831   8.588  18.720  0.00  0.00    +0.000 A 
ATOM      6  C   UNL     1       1.177   9.575  19.424  0.00  0.00    +0.000 A 
ENDROOT
BRANCH   4   7
ATOM      7  C   UNL     1       2.740   6.275  18.541  0.00  0.00    +0.000 A 
ATOM      8  C   UNL     1       2.411   4.925  18.740  0.00  0.00    +0.000 A 
ATOM      9  C   UNL     1       3.087   3.898  18.073  0.00  0.00    +0.000 A 
ATOM     10  C   UNL     1       4.075   4.237  17.137  0.00  0.00    +0.000 A 
ATOM     11  C   UNL     1       4.428   5.576  16.914  0.00  0.00    +0.000 A 
ATOM     12  C   UNL     1       3.757   6.580  17.624  0.00  0.00    +0.000 A 
BRANCH   9  13
ATOM     13  C   UNL     1       2.787   2.459  18.414  0.00  0.00    +0.000 C 
ATOM     14  F   UNL     1       1.801   2.336  19.349  0.00  0.00    +0.000 F 
ATOM     15  F   UNL     1       2.382   1.730  17.341  0.00  0.00    +0.000 F 
ATOM     16  F   UNL     1       3.866   1.809  18.929  0.00  0.00    +0.000 F 
ENDBRANCH   9  13
BRANCH  11  17
ATOM     17  C   UNL     1       5.544   5.923  15.959  0.00  0.00    +0.000 C 
ATOM     18  F   UNL     1       5.140   6.760  14.965  0.00  0.00    +0.000 F 
ATOM     19  F   UNL     1       6.587   6.545  16.573  0.00  0.00    +0.000 F 
ATOM     20  F   UNL     1       6.068   4.832  15.338  0.00  0.00    +0.000 F 
ENDBRANCH  11  17
ENDBRANCH   4   7
BRANCH   1  25
ATOM     21  C   UNL     1      -0.657  11.424  20.848  0.00  0.00    +0.000 A 
ATOM     22  C   UNL     1      -1.071  12.131  21.946  0.00  0.00    +0.000 A 
ATOM     23  N   UNL     1      -0.791  11.499  23.128  0.00  0.00    +0.000 NA
ATOM     24  C   UNL     1      -0.174  10.401  22.754  0.00  0.00    +0.000 A 
ATOM     25  N   UNL     1      -0.014  10.311  21.393  0.00  0.00    +0.000 N 
BRANCH  21  27
ATOM     26  O   UNL     1      -0.246  12.554  18.810  0.00  0.00    +0.000 OA
ATOM     27  C   UNL     1      -0.882  11.715  19.448  0.00  0.00    +0.000 C 
ATOM     28  N   UNL     1      -1.895  10.989  18.865  0.00  0.00    +0.000 N 
ATOM     29  H   UNL     1      -2.452  10.373  19.441  0.00  0.00    +0.000 HD
BRANCH  28  30
ATOM     30  C   UNL     1      -2.318  11.196  17.493  0.00  0.00    +0.000 C 
ATOM     31  C   UNL     1      -2.080   9.962  16.628  0.00  0.00    +0.000 C 
ATOM     32  C   UNL     1      -2.955  10.206  15.406  0.00  0.00    +0.000 C 
ATOM     33  C   UNL     1      -4.139  11.036  15.902  0.00  0.00    +0.000 C 
ATOM     34  C   UNL     1      -3.826  11.406  17.353  0.00  0.00    +0.000 C 
ENDBRANCH  28  30
ENDBRANCH  21  27
ENDBRANCH   1  25
TORSDOF 6
ENDMDL
MODEL 5
REMARK VINA RESULT:     -10.0      0.539      3.201
REMARK  Name = 
REMARK  6 active torsions:
REMARK  status: ('A' for Active; 'I' for Inactive)
REMARK    1  A    between atoms: C_2  and  C_9
REMARK    2  A    between atoms: N_3  and  C_4
REMARK    3  A    between atoms: N_13  and  C_14
REMARK    4  A    between atoms: C_17  and  C_18
REMARK    5  A    between atoms: C_20  and  C_21
REMARK    6  A    between atoms: C_26  and  C_27
REMARK                            x       y       z     vdW  Elec       q    Type
REMARK                         _______ _______ _______ _____ _____    ______ ____
ROOT
ATOM      1  C   UNL     1       0.784   9.134  20.515  0.00  0.00    +0.000 A 
ATOM      2  C   UNL     1       1.259   9.337  19.217  0.00  0.00    +0.000 A 
ATOM      3  C   UNL     1       1.984   8.328  18.604  0.00  0.00    +0.000 A 
ATOM      4  C   UNL     1       2.210   7.097  19.247  0.00  0.00    +0.000 A 
ATOM      5  C   UNL     1       1.659   6.896  20.521  0.00  0.00    +0.000 A 
ATOM      6  C   UNL     1       0.948   7.898  21.144  0.00  0.00    +0.000 A 
ENDROOT
BRANCH   4   7
ATOM      7  C   UNL     1       2.991   6.040  18.597  0.00  0.00    +0.000 A 
ATOM      8  C   UNL     1       2.836   4.696  18.971  0.00  0.00    +0.000 A 
ATOM      9  C   UNL     1       3.622   3.682  18.409  0.00  0.00    +0.000 A 
ATOM     10  C   UNL     1       4.540   4.018  17.405  0.00  0.00    +0.000 A 
ATOM     11  C   UNL     1       4.718   5.352  17.008  0.00  0.00    +0.000 A 
ATOM     12  C   UNL     1       3.943   6.348  17.614  0.00  0.00    +0.000 A 
BRANCH   9  13
ATOM     13  C   UNL     1       3.510   2.272  18.934  0.00  0.00    +0.000 C 
ATOM     14  F   UNL     1       3.440   1.344  17.936  0.00  0.00    +0.000 F 
ATOM     15  F   UNL     1       4.564   1.908  19.712  0.00  0.00    +0.000 F 
ATOM     16  F   UNL     1       2.395   2.082  19.691  0.00  0.00    +0.000 F 
ENDBRANCH   9  13
BRANCH  11  17
ATOM     17  C   UNL     1       5.762   5.709  15.978  0.00  0.00    +0.000 C 
ATOM     18  F   UNL     1       6.753   6.490  16.488  0.00  0.00    +0.000 F 
ATOM     19  F   UNL     1       6.379   4.616  15.453  0.00  0.00    +0.000 F 
ATOM     20  F   UNL     1       5.250   6.398  14.921  0.00  0.00    +0.000 F 
ENDBRANCH  11  17
ENDBRANCH   4   7
BRANCH   1  25
ATOM     21  C   UNL     1      -0.455  11.319  20.666  0.00  0.00    +0.000 A 
ATOM     22  C   UNL     1      -0.773  12.066  21.768  0.00  0.00    +0.000 A 
ATOM     23  N   UNL     1      -0.483  11.433  22.948  0.00  0.00    +0.000 NA
ATOM     24  C   UNL     1       0.044  10.291  22.566  0.00  0.00    +0.000 A 
ATOM     25  N   UNL     1       0.137  10.173  21.200  0.00  0.00    +0.000 N 
BRANCH  21  27
ATOM     26  O   UNL     1      -0.074  12.404  18.598  0.00  0.00    +0.000 OA
ATOM     27  C   UNL     1      -0.723  11.605  19.273  0.00  0.00    +0.000 C 
ATOM     28  N   UNL     1      -1.792  10.922  18.740  0.00  0.00    +0.000 N 
ATOM     29  H   UNL     1      -2.354  10.341  19.346  0.00  0.00    +0.000 HD
BRANCH  28  30
ATOM     30  C   UNL     1      -2.261  11.135  17.383  0.00  0.00    +0.000 C 
ATOM     31  C   UNL     1      -2.116   9.882  16.525  0.00  0.00    +0.000 C 
ATOM     32  C   UNL     1      -3.027  10.154  15.336  0.00  0.00    +0.000 C 
ATOM     33  C   UNL     1      -4.150  11.044  15.868  0.00  0.00    +0.000 C 
ATOM     34  C   UNL     1      -3.762  11.415  17.301  0.00  0.00    +0.000 C 
ENDBRANCH  28  30
ENDBRANCH  21  27
ENDBRANCH   1  25
TORSDOF 6
ENDMDL
MODEL 6
REMARK VINA RESULT:      -9.6      2.113      3.051
REMARK  Name = 
REMARK  6 active torsions:
REMARK  status: ('A' for Active; 'I' for Inactive)
REMARK    1  A    between atoms: C_2  and  C_9
REMARK    2  A    between atoms: N_3  and  C_4
REMARK    3  A    between atoms: N_13  and  C_14
REMARK    4  A    between atoms: C_17  and  C_18
REMARK    5  A    between atoms: C_20  and  C_21
REMARK    6  A    between atoms: C_26  and  C_27
REMARK                            x       y       z     vdW  Elec       q    Type
REMARK                         _______ _______ _______ _____ _____    ______ ____
ROOT
ATOM      1  C   UNL     1       1.019  10.585  18.953  0.00  0.00    +0.000 A 
ATOM      2  C   UNL     1       1.595  10.035  17.805  0.00  0.00    +0.000 A 
ATOM      3  C   UNL     1       2.124   8.755  17.869  0.00  0.00    +0.000 A 
ATOM      4  C   UNL     1       2.051   7.994  19.050  0.00  0.00    +0.000 A 
ATOM      5  C   UNL     1       1.403   8.546  20.164  0.00  0.00    +0.000 A 
ATOM      6  C   UNL     1       0.886   9.822  20.114  0.00  0.00    +0.000 A 
ENDROOT
BRANCH   4   7
ATOM      7  C   UNL     1       2.626   6.646  19.114  0.00  0.00    +0.000 A 
ATOM      8  C   UNL     1       3.642   6.253  18.229  0.00  0.00    +0.000 A 
ATOM      9  C   UNL     1       4.154   4.951  18.232  0.00  0.00    +0.000 A 
ATOM     10  C   UNL     1       3.679   4.040  19.186  0.00  0.00    +0.000 A 
ATOM     11  C   UNL     1       2.665   4.401  20.084  0.00  0.00    +0.000 A 
ATOM     12  C   UNL     1       2.146   5.702  20.033  0.00  0.00    +0.000 A 
BRANCH   9  13
ATOM     13  C   UNL     1       5.153   4.538  17.179  0.00  0.00    +0.000 C 
ATOM     14  F   UNL     1       5.315   5.483  16.209  0.00  0.00    +0.000 F 
ATOM     15  F   UNL     1       6.393   4.301  17.683  0.00  0.00    +0.000 F 
ATOM     16  F   UNL     1       4.785   3.401  16.527  0.00  0.00    +0.000 F 
ENDBRANCH   9  13
BRANCH  11  17
ATOM     17  C   UNL     1       2.110   3.389  21.057  0.00  0.00    +0.000 C 
ATOM     18  F   UNL     1       2.674   2.160  20.910  0.00  0.00    +0.000 F 
ATOM     19  F   UNL     1       2.310   3.742  22.355  0.00  0.00    +0.000 F 
ATOM     20  F   UNL     1       0.768   3.203  20.920  0.00  0.00    +0.000 F 
ENDBRANCH  11  17
ENDBRANCH   4   7
BRANCH   1  25
ATOM     21  C   UNL     1      -0.712  12.388  18.659  0.00  0.00    +0.000 A 
ATOM     22  C   UNL     1      -0.557  13.748  18.627  0.00  0.00    +0.000 A 
ATOM     23  N   UNL     1       0.713  14.151  18.945  0.00  0.00    +0.000 NA
ATOM     24  C   UNL     1       1.354  13.023  19.150  0.00  0.00    +0.000 A 
ATOM     25  N   UNL     1       0.568  11.914  18.948  0.00  0.00    +0.000 N 
BRANCH  21  27
ATOM     26  O   UNL     1      -1.952  10.469  18.045  0.00  0.00    +0.000 OA
ATOM     27  C   UNL     1      -1.924  11.613  18.498  0.00  0.00    +0.000 C 
ATOM     28  N   UNL     1      -3.077  12.262  18.876  0.00  0.00    +0.000 N 
ATOM     29  H   UNL     1      -3.024  13.230  19.161  0.00  0.00    +0.000 HD
BRANCH  28  30
ATOM     30  C   UNL     1      -4.395  11.676  18.717  0.00  0.00    +0.000 C 
ATOM     31  C   UNL     1      -5.380  12.191  19.760  0.00  0.00    +0.000 C 
ATOM     32  C   UNL     1      -6.741  11.827  19.180  0.00  0.00    +0.000 C 
ATOM     33  C   UNL     1      -6.568  11.865  17.662  0.00  0.00    +0.000 C 
ATOM     34  C   UNL     1      -5.074  12.068  17.404  0.00  0.00    +0.000 C 
ENDBRANCH  28  30
ENDBRANCH  21  27
ENDBRANCH   1  25
TORSDOF 6
ENDMDL
MODEL 7
REMARK VINA RESULT:      -9.5      2.038      4.006
REMARK  Name = 
REMARK  6 active torsions:
REMARK  status: ('A' for Active; 'I' for Inactive)
REMARK    1  A    between atoms: C_2  and  C_9
REMARK    2  A    between atoms: N_3  and  C_4
REMARK    3  A    between atoms: N_13  and  C_14
REMARK    4  A    between atoms: C_17  and  C_18
REMARK    5  A    between atoms: C_20  and  C_21
REMARK    6  A    between atoms: C_26  and  C_27
REMARK                            x       y       z     vdW  Elec       q    Type
REMARK                         _______ _______ _______ _____ _____    ______ ____
ROOT
ATOM      1  C   UNL     1       1.037  10.396  19.047  0.00  0.00    +0.000 A 
ATOM      2  C   UNL     1       1.539   9.891  17.845  0.00  0.00    +0.000 A 
ATOM      3  C   UNL     1       2.051   8.603  17.822  0.00  0.00    +0.000 A 
ATOM      4  C   UNL     1       2.034   7.791  18.970  0.00  0.00    +0.000 A 
ATOM      5  C   UNL     1       1.459   8.300  20.143  0.00  0.00    +0.000 A 
ATOM      6  C   UNL     1       0.959   9.584  20.179  0.00  0.00    +0.000 A 
ENDROOT
BRANCH   4   7
ATOM      7  C   UNL     1       2.591   6.434  18.942  0.00  0.00    +0.000 A 
ATOM      8  C   UNL     1       2.219   5.481  19.902  0.00  0.00    +0.000 A 
ATOM      9  C   UNL     1       2.792   4.205  19.930  0.00  0.00    +0.000 A 
ATOM     10  C   UNL     1       3.714   3.856  18.934  0.00  0.00    +0.000 A 
ATOM     11  C   UNL     1       4.107   4.785  17.959  0.00  0.00    +0.000 A 
ATOM     12  C   UNL     1       3.543   6.067  17.979  0.00  0.00    +0.000 A 
BRANCH   9  13
ATOM     13  C   UNL     1       2.456   3.259  21.057  0.00  0.00    +0.000 C 
ATOM     14  F   UNL     1       3.425   2.321  21.262  0.00  0.00    +0.000 F 
ATOM     15  F   UNL     1       2.285   3.889  22.250  0.00  0.00    +0.000 F 
ATOM     16  F   UNL     1       1.310   2.560  20.830  0.00  0.00    +0.000 F 
ENDBRANCH   9  13
BRANCH  11  17
ATOM     17  C   UNL     1       5.156   4.422  16.936  0.00  0.00    +0.000 C 
ATOM     18  F   UNL     1       5.020   3.147  16.479  0.00  0.00    +0.000 F 
ATOM     19  F   UNL     1       5.118   5.221  15.837  0.00  0.00    +0.000 F 
ATOM     20  F   UNL     1       6.424   4.510  17.424  0.00  0.00    +0.000 F 
ENDBRANCH  11  17
ENDBRANCH   4   7
BRANCH   1  25
ATOM     21  C   UNL     1      -0.667  12.240  18.875  0.00  0.00    +0.000 A 
ATOM     22  C   UNL     1      -0.491  13.597  18.926  0.00  0.00    +0.000 A 
ATOM     23  N   UNL     1       0.787  13.960  19.259  0.00  0.00    +0.000 NA
ATOM     24  C   UNL     1       1.412  12.812  19.390  0.00  0.00    +0.000 A 
ATOM     25  N   UNL     1       0.608  11.730  19.126  0.00  0.00    +0.000 N 
BRANCH  21  27
ATOM     26  O   UNL     1      -1.930  10.332  18.271  0.00  0.00    +0.000 OA
ATOM     27  C   UNL     1      -1.891  11.494  18.676  0.00  0.00    +0.000 C 
ATOM     28  N   UNL     1      -3.043  12.193  18.955  0.00  0.00    +0.000 N 
ATOM     29  H   UNL     1      -2.976  13.171  19.202  0.00  0.00    +0.000 HD
BRANCH  28  30
ATOM     30  C   UNL     1      -4.367  11.640  18.743  0.00  0.00    +0.000 C 
ATOM     31  C   UNL     1      -5.385  12.193  19.735  0.00  0.00    +0.000 C 
ATOM     32  C   UNL     1      -6.727  11.858  19.098  0.00  0.00    +0.000 C 
ATOM     33  C   UNL     1      -6.485  11.872  17.589  0.00  0.00    +0.000 C 
ATOM     34  C   UNL     1      -4.976  12.033  17.397  0.00  0.00    +0.000 C 
ENDBRANCH  28  30
ENDBRANCH  21  27
ENDBRANCH   1  25
TORSDOF 6
ENDMDL
MODEL 8
REMARK VINA RESULT:      -9.5      0.880      3.350
REMARK  Name = 
REMARK  6 active torsions:
REMARK  status: ('A' for Active; 'I' for Inactive)
REMARK    1  A    between atoms: C_2  and  C_9
REMARK    2  A    between atoms: N_3  and  C_4
REMARK    3  A    between atoms: N_13  and  C_14
REMARK    4  A    between atoms: C_17  and  C_18
REMARK    5  A    between atoms: C_20  and  C_21
REMARK    6  A    between atoms: C_26  and  C_27
REMARK                            x       y       z     vdW  Elec       q    Type
REMARK                         _______ _______ _______ _____ _____    ______ ____
ROOT
ATOM      1  C   UNL     1       1.081   9.410  19.858  0.00  0.00    +0.000 A 
ATOM      2  C   UNL     1       1.481   9.466  18.520  0.00  0.00    +0.000 A 
ATOM      3  C   UNL     1       2.162   8.387  17.979  0.00  0.00    +0.000 A 
ATOM      4  C   UNL     1       2.415   7.230  18.738  0.00  0.00    +0.000 A 
ATOM      5  C   UNL     1       1.939   7.175  20.055  0.00  0.00    +0.000 A 
ATOM      6  C   UNL     1       1.273   8.247  20.606  0.00  0.00    +0.000 A 
ENDROOT
BRANCH   4   7
ATOM      7  C   UNL     1       3.149   6.098  18.162  0.00  0.00    +0.000 A 
ATOM      8  C   UNL     1       2.715   4.779  18.364  0.00  0.00    +0.000 A 
ATOM      9  C   UNL     1       3.440   3.684  17.880  0.00  0.00    +0.000 A 
ATOM     10  C   UNL     1       4.595   3.922  17.122  0.00  0.00    +0.000 A 
ATOM     11  C   UNL     1       5.056   5.228  16.901  0.00  0.00    +0.000 A 
ATOM     12  C   UNL     1       4.328   6.302  17.430  0.00  0.00    +0.000 A 
BRANCH   9  13
ATOM     13  C   UNL     1       3.004   2.283  18.231  0.00  0.00    +0.000 C 
ATOM     14  F   UNL     1       3.039   2.044  19.574  0.00  0.00    +0.000 F 
ATOM     15  F   UNL     1       1.734   2.004  17.832  0.00  0.00    +0.000 F 
ATOM     16  F   UNL     1       3.797   1.332  17.667  0.00  0.00    +0.000 F 
ENDBRANCH   9  13
BRANCH  11  17
ATOM     17  C   UNL     1       6.341   5.467  16.146  0.00  0.00    +0.000 C 
ATOM     18  F   UNL     1       6.954   6.625  16.512  0.00  0.00    +0.000 F 
ATOM     19  F   UNL     1       7.256   4.480  16.340  0.00  0.00    +0.000 F 
ATOM     20  F   UNL     1       6.157   5.552  14.800  0.00  0.00    +0.000 F 
ENDBRANCH  11  17
ENDBRANCH   4   7
BRANCH   1  25
ATOM     21  C   UNL     1      -0.435  11.417  19.906  0.00  0.00    +0.000 A 
ATOM     22  C   UNL     1      -0.550  12.401  20.853  0.00  0.00    +0.000 A 
ATOM     23  N   UNL     1       0.179  12.144  21.984  0.00  0.00    +0.000 NA
ATOM     24  C   UNL     1       0.770  11.001  21.720  0.00  0.00    +0.000 A 
ATOM     25  N   UNL     1       0.483  10.526  20.463  0.00  0.00    +0.000 N 
BRANCH  21  27
ATOM     26  O   UNL     1      -0.974  12.030  17.685  0.00  0.00    +0.000 OA
ATOM     27  C   UNL     1      -1.143  11.285  18.651  0.00  0.00    +0.000 C 
ATOM     28  N   UNL     1      -2.057  10.258  18.610  0.00  0.00    +0.000 N 
ATOM     29  H   UNL     1      -2.231   9.723  19.449  0.00  0.00    +0.000 HD
BRANCH  28  30
ATOM     30  C   UNL     1      -2.916  10.017  17.466  0.00  0.00    +0.000 C 
ATOM     31  C   UNL     1      -3.723  11.253  17.086  0.00  0.00    +0.000 C 
ATOM     32  C   UNL     1      -4.195  10.954  15.669  0.00  0.00    +0.000 C 
ATOM     33  C   UNL     1      -3.113  10.067  15.051  0.00  0.00    +0.000 C 
ATOM     34  C   UNL     1      -2.140   9.727  16.181  0.00  0.00    +0.000 C 
ENDBRANCH  28  30
ENDBRANCH  21  27
ENDBRANCH   1  25
TORSDOF 6
ENDMDL
MODEL 9
REMARK VINA RESULT:      -9.5      1.447      3.540
REMARK  Name = 
REMARK  6 active torsions:
REMARK  status: ('A' for Active; 'I' for Inactive)
REMARK    1  A    between atoms: C_2  and  C_9
REMARK    2  A    between atoms: N_3  and  C_4
REMARK    3  A    between atoms: N_13  and  C_14
REMARK    4  A    between atoms: C_17  and  C_18
REMARK    5  A    between atoms: C_20  and  C_21
REMARK    6  A    between atoms: C_26  and  C_27
REMARK                            x       y       z     vdW  Elec       q    Type
REMARK                         _______ _______ _______ _____ _____    ______ ____
ROOT
ATOM      1  C   UNL     1       0.035  10.132  21.246  0.00  0.00    +0.000 A 
ATOM      2  C   UNL     1      -0.011   9.006  22.072  0.00  0.00    +0.000 A 
ATOM      3  C   UNL     1       0.638   7.851  21.666  0.00  0.00    +0.000 A 
ATOM      4  C   UNL     1       1.371   7.809  20.466  0.00  0.00    +0.000 A 
ATOM      5  C   UNL     1       1.459   8.976  19.694  0.00  0.00    +0.000 A 
ATOM      6  C   UNL     1       0.806  10.125  20.083  0.00  0.00    +0.000 A 
ENDROOT
BRANCH   4   7
ATOM      7  C   UNL     1       2.043   6.579  20.037  0.00  0.00    +0.000 A 
ATOM      8  C   UNL     1       1.694   5.336  20.587  0.00  0.00    +0.000 A 
ATOM      9  C   UNL     1       2.370   4.162  20.238  0.00  0.00    +0.000 A 
ATOM     10  C   UNL     1       3.381   4.227  19.268  0.00  0.00    +0.000 A 
ATOM     11  C   UNL     1       3.754   5.453  18.698  0.00  0.00    +0.000 A 
ATOM     12  C   UNL     1       3.082   6.617  19.095  0.00  0.00    +0.000 A 
BRANCH   9  13
ATOM     13  C   UNL     1       2.046   2.872  20.951  0.00  0.00    +0.000 C 
ATOM     14  F   UNL     1       1.744   1.858  20.089  0.00  0.00    +0.000 F 
ATOM     15  F   UNL     1       3.068   2.417  21.723  0.00  0.00    +0.000 F 
ATOM     16  F   UNL     1       0.969   2.986  21.776  0.00  0.00    +0.000 F 
ENDBRANCH   9  13
BRANCH  11  17
ATOM     17  C   UNL     1       4.893   5.521  17.710  0.00  0.00    +0.000 C 
ATOM     18  F   UNL     1       5.678   4.410  17.742  0.00  0.00    +0.000 F 
ATOM     19  F   UNL     1       4.467   5.643  16.424  0.00  0.00    +0.000 F 
ATOM     20  F   UNL     1       5.727   6.573  17.934  0.00  0.00    +0.000 F 
ENDBRANCH  11  17
ENDBRANCH   4   7
BRANCH   1  25
ATOM     21  C   UNL     1      -1.187  12.269  20.722  0.00  0.00    +0.000 A 
ATOM     22  C   UNL     1      -1.661  13.233  21.572  0.00  0.00    +0.000 A 
ATOM     23  N   UNL     1      -1.561  12.880  22.892  0.00  0.00    +0.000 NA
ATOM     24  C   UNL     1      -0.996  11.695  22.855  0.00  0.00    +0.000 A 
ATOM     25  N   UNL     1      -0.697  11.282  21.579  0.00  0.00    +0.000 N 
BRANCH  21  27
ATOM     26  O   UNL     1      -0.470  12.869  18.549  0.00  0.00    +0.000 OA
ATOM     27  C   UNL     1      -1.235  12.236  19.276  0.00  0.00    +0.000 C 
ATOM     28  N   UNL     1      -2.233  11.447  18.751  0.00  0.00    +0.000 N 
ATOM     29  H   UNL     1      -2.895  11.012  19.378  0.00  0.00    +0.000 HD
BRANCH  28  30
ATOM     30  C   UNL     1      -2.487  11.349  17.326  0.00  0.00    +0.000 C 
ATOM     31  C   UNL     1      -2.091   9.987  16.766  0.00  0.00    +0.000 C 
ATOM     32  C   UNL     1      -2.813   9.925  15.426  0.00  0.00    +0.000 C 
ATOM     33  C   UNL     1      -4.083  10.758  15.601  0.00  0.00    +0.000 C 
ATOM     34  C   UNL     1      -3.972  11.428  16.972  0.00  0.00    +0.000 C 
ENDBRANCH  28  30
ENDBRANCH  21  27
ENDBRANCH   1  25
TORSDOF 6
ENDMDL
