MODEL 1
REMARK VINA RESULT:      -4.9      0.000      0.000
REMARK  Name = 
REMARK  3 active torsions:
REMARK  status: ('A' for Active; 'I' for Inactive)
REMARK    1  A    between atoms: C_1  and  C_2
REMARK    2  A    between atoms: C_6  and  C_7
REMARK    3  A    between atoms: N_8  and  O_9
REMARK                            x       y       z     vdW  Elec       q    Type
REMARK                         _______ _______ _______ _____ _____    ______ ____
ROOT
ATOM      1  C   UNL     1       4.033   5.222  17.434  0.00  0.00    +0.000 C 
ATOM      2  C   UNL     1       5.317   5.128  18.161  0.00  0.00    +0.000 A 
ATOM      3  N   UNL     1       5.367   5.251  19.489  0.00  0.00    +0.000 NA
ATOM      4  O   UNL     1       6.710   5.109  19.814  0.00  0.00    +0.000 OA
ATOM      5  N   UNL     1       7.483   4.899  18.679  0.00  0.00    +0.000 NA
ATOM      6  C   UNL     1       6.617   4.910  17.659  0.00  0.00    +0.000 A 
ENDROOT
BRANCH   6   7
ATOM      7  C   UNL     1       7.070   4.720  16.303  0.00  0.00    +0.000 C 
ATOM      8  N   UNL     1       7.313   5.752  15.559  0.00  0.00    +0.000 NA
BRANCH   8   9
ATOM      9  O   UNL     1       7.737   5.321  14.296  0.00  0.00    +0.000 OA
ATOM     10  H   UNL     1       7.908   6.162  13.830  0.00  0.00    +0.000 HD
ENDBRANCH   8   9
ENDBRANCH   6   7
TORSDOF 2
ENDMDL
MODEL 2
REMARK VINA RESULT:      -4.9      1.481      3.557
REMARK  Name = 
REMARK  3 active torsions:
REMARK  status: ('A' for Active; 'I' for Inactive)
REMARK    1  A    between atoms: C_1  and  C_2
REMARK    2  A    between atoms: C_6  and  C_7
REMARK    3  A    between atoms: N_8  and  O_9
REMARK                            x       y       z     vdW  Elec       q    Type
REMARK                         _______ _______ _______ _____ _____    ______ ____
ROOT
ATOM      1  C   UNL     1       4.718   6.743  17.237  0.00  0.00    +0.000 C 
ATOM      2  C   UNL     1       5.797   6.073  16.480  0.00  0.00    +0.000 A 
ATOM      3  N   UNL     1       5.822   6.103  15.145  0.00  0.00    +0.000 NA
ATOM      4  O   UNL     1       6.956   5.384  14.789  0.00  0.00    +0.000 OA
ATOM      5  N   UNL     1       7.626   4.913  15.912  0.00  0.00    +0.000 NA
ATOM      6  C   UNL     1       6.906   5.342  16.955  0.00  0.00    +0.000 A 
ENDROOT
BRANCH   6   7
ATOM      7  C   UNL     1       7.307   5.037  18.306  0.00  0.00    +0.000 C 
ATOM      8  N   UNL     1       7.701   5.992  19.088  0.00  0.00    +0.000 NA
BRANCH   8   9
ATOM      9  O   UNL     1       8.035   5.458  20.337  0.00  0.00    +0.000 OA
ATOM     10  H   UNL     1       7.196   5.530  20.832  0.00  0.00    +0.000 HD
ENDBRANCH   8   9
ENDBRANCH   6   7
TORSDOF 2
ENDMDL
MODEL 3
REMARK VINA RESULT:      -4.8      1.381      3.550
REMARK  Name = 
REMARK  3 active torsions:
REMARK  status: ('A' for Active; 'I' for Inactive)
REMARK    1  A    between atoms: C_1  and  C_2
REMARK    2  A    between atoms: C_6  and  C_7
REMARK    3  A    between atoms: N_8  and  O_9
REMARK                            x       y       z     vdW  Elec       q    Type
REMARK                         _______ _______ _______ _____ _____    ______ ____
ROOT
ATOM      1  C   UNL     1       4.625   4.039  17.229  0.00  0.00    +0.000 C 
ATOM      2  C   UNL     1       5.691   4.812  16.556  0.00  0.00    +0.000 A 
ATOM      3  N   UNL     1       5.774   4.855  15.224  0.00  0.00    +0.000 NA
ATOM      4  O   UNL     1       6.875   5.659  14.958  0.00  0.00    +0.000 OA
ATOM      5  N   UNL     1       7.465   6.110  16.132  0.00  0.00    +0.000 NA
ATOM      6  C   UNL     1       6.729   5.584  17.118  0.00  0.00    +0.000 A 
ENDROOT
BRANCH   6   7
ATOM      7  C   UNL     1       7.053   5.841  18.500  0.00  0.00    +0.000 C 
ATOM      8  N   UNL     1       7.828   5.023  19.138  0.00  0.00    +0.000 NA
BRANCH   8   9
ATOM      9  O   UNL     1       7.997   5.477  20.451  0.00  0.00    +0.000 OA
ATOM     10  H   UNL     1       8.648   4.845  20.813  0.00  0.00    +0.000 HD
ENDBRANCH   8   9
ENDBRANCH   6   7
TORSDOF 2
ENDMDL
MODEL 4
REMARK VINA RESULT:      -4.7      2.496      3.566
REMARK  Name = 
REMARK  3 active torsions:
REMARK  status: ('A' for Active; 'I' for Inactive)
REMARK    1  A    between atoms: C_1  and  C_2
REMARK    2  A    between atoms: C_6  and  C_7
REMARK    3  A    between atoms: N_8  and  O_9
REMARK                            x       y       z     vdW  Elec       q    Type
REMARK                         _______ _______ _______ _____ _____    ______ ____
ROOT
ATOM      1  C   UNL     1       6.807   4.524  14.833  0.00  0.00    +0.000 C 
ATOM      2  C   UNL     1       6.787   4.453  16.310  0.00  0.00    +0.000 A 
ATOM      3  N   UNL     1       7.918   4.525  17.018  0.00  0.00    +0.000 NA
ATOM      4  O   UNL     1       7.519   4.426  18.344  0.00  0.00    +0.000 OA
ATOM      5  N   UNL     1       6.139   4.293  18.447  0.00  0.00    +0.000 NA
ATOM      6  C   UNL     1       5.692   4.311  17.186  0.00  0.00    +0.000 A 
ENDROOT
BRANCH   6   7
ATOM      7  C   UNL     1       4.282   4.194  16.901  0.00  0.00    +0.000 C 
ATOM      8  N   UNL     1       3.600   3.229  17.432  0.00  0.00    +0.000 NA
BRANCH   8   9
ATOM      9  O   UNL     1       2.268   3.321  17.014  0.00  0.00    +0.000 OA
ATOM     10  H   UNL     1       1.773   3.086  17.823  0.00  0.00    +0.000 HD
ENDBRANCH   8   9
ENDBRANCH   6   7
TORSDOF 2
ENDMDL
MODEL 5
REMARK VINA RESULT:      -4.7      2.132      3.883
REMARK  Name = 
REMARK  3 active torsions:
REMARK  status: ('A' for Active; 'I' for Inactive)
REMARK    1  A    between atoms: C_1  and  C_2
REMARK    2  A    between atoms: C_6  and  C_7
REMARK    3  A    between atoms: N_8  and  O_9
REMARK                            x       y       z     vdW  Elec       q    Type
REMARK                         _______ _______ _______ _____ _____    ______ ____
ROOT
ATOM      1  C   UNL     1       7.603   7.991  17.410  0.00  0.00    +0.000 C 
ATOM      2  C   UNL     1       6.722   6.818  17.225  0.00  0.00    +0.000 A 
ATOM      3  N   UNL     1       6.074   6.619  16.074  0.00  0.00    +0.000 NA
ATOM      4  O   UNL     1       5.359   5.443  16.263  0.00  0.00    +0.000 OA
ATOM      5  N   UNL     1       5.572   4.922  17.533  0.00  0.00    +0.000 NA
ATOM      6  C   UNL     1       6.416   5.775  18.124  0.00  0.00    +0.000 A 
ENDROOT
BRANCH   6   7
ATOM      7  C   UNL     1       6.867   5.551  19.476  0.00  0.00    +0.000 C 
ATOM      8  N   UNL     1       8.113   5.273  19.696  0.00  0.00    +0.000 NA
BRANCH   8   9
ATOM      9  O   UNL     1       8.311   5.100  21.071  0.00  0.00    +0.000 OA
ATOM     10  H   UNL     1       7.582   4.499  21.318  0.00  0.00    +0.000 HD
ENDBRANCH   8   9
ENDBRANCH   6   7
TORSDOF 2
ENDMDL
MODEL 6
REMARK VINA RESULT:      -4.7      2.610      4.820
REMARK  Name = 
REMARK  3 active torsions:
REMARK  status: ('A' for Active; 'I' for Inactive)
REMARK    1  A    between atoms: C_1  and  C_2
REMARK    2  A    between atoms: C_6  and  C_7
REMARK    3  A    between atoms: N_8  and  O_9
REMARK                            x       y       z     vdW  Elec       q    Type
REMARK                         _______ _______ _______ _____ _____    ______ ____
ROOT
ATOM      1  C   UNL     1       5.908   3.288  12.351  0.00  0.00    +0.000 C 
ATOM      2  C   UNL     1       6.731   4.223  13.149  0.00  0.00    +0.000 A 
ATOM      3  N   UNL     1       7.644   5.005  12.567  0.00  0.00    +0.000 NA
ATOM      4  O   UNL     1       8.209   5.733  13.606  0.00  0.00    +0.000 OA
ATOM      5  N   UNL     1       7.638   5.394  14.827  0.00  0.00    +0.000 NA
ATOM      6  C   UNL     1       6.724   4.461  14.539  0.00  0.00    +0.000 A 
ENDROOT
BRANCH   6   7
ATOM      7  C   UNL     1       5.921   3.866  15.580  0.00  0.00    +0.000 C 
ATOM      8  N   UNL     1       6.065   4.264  16.804  0.00  0.00    +0.000 NA
BRANCH   8   9
ATOM      9  O   UNL     1       5.187   3.550  17.627  0.00  0.00    +0.000 OA
ATOM     10  H   UNL     1       4.904   4.225  18.274  0.00  0.00    +0.000 HD
ENDBRANCH   8   9
ENDBRANCH   6   7
TORSDOF 2
ENDMDL
MODEL 7
REMARK VINA RESULT:      -4.6      3.814      4.845
REMARK  Name = 
REMARK  3 active torsions:
REMARK  status: ('A' for Active; 'I' for Inactive)
REMARK    1  A    between atoms: C_1  and  C_2
REMARK    2  A    between atoms: C_6  and  C_7
REMARK    3  A    between atoms: N_8  and  O_9
REMARK                            x       y       z     vdW  Elec       q    Type
REMARK                         _______ _______ _______ _____ _____    ______ ____
ROOT
ATOM      1  C   UNL     1       1.183   3.634  18.732  0.00  0.00    +0.000 C 
ATOM      2  C   UNL     1       1.829   3.139  19.967  0.00  0.00    +0.000 A 
ATOM      3  N   UNL     1       1.117   2.919  21.075  0.00  0.00    +0.000 NA
ATOM      4  O   UNL     1       2.038   2.468  22.012  0.00  0.00    +0.000 OA
ATOM      5  N   UNL     1       3.318   2.413  21.473  0.00  0.00    +0.000 NA
ATOM      6  C   UNL     1       3.183   2.828  20.208  0.00  0.00    +0.000 A 
ENDROOT
BRANCH   6   7
ATOM      7  C   UNL     1       4.325   2.902  19.329  0.00  0.00    +0.000 C 
ATOM      8  N   UNL     1       5.169   3.875  19.457  0.00  0.00    +0.000 NA
BRANCH   8   9
ATOM      9  O   UNL     1       6.183   3.736  18.503  0.00  0.00    +0.000 OA
ATOM     10  H   UNL     1       6.991   3.915  19.023  0.00  0.00    +0.000 HD
ENDBRANCH   8   9
ENDBRANCH   6   7
TORSDOF 2
ENDMDL
MODEL 8
REMARK VINA RESULT:      -4.6      1.375      1.923
REMARK  Name = 
REMARK  3 active torsions:
REMARK  status: ('A' for Active; 'I' for Inactive)
REMARK    1  A    between atoms: C_1  and  C_2
REMARK    2  A    between atoms: C_6  and  C_7
REMARK    3  A    between atoms: N_8  and  O_9
REMARK                            x       y       z     vdW  Elec       q    Type
REMARK                         _______ _______ _______ _____ _____    ______ ____
ROOT
ATOM      1  C   UNL     1       7.979   6.709  18.661  0.00  0.00    +0.000 C 
ATOM      2  C   UNL     1       6.957   5.643  18.591  0.00  0.00    +0.000 A 
ATOM      3  N   UNL     1       6.500   5.053  19.699  0.00  0.00    +0.000 NA
ATOM      4  O   UNL     1       5.571   4.122  19.254  0.00  0.00    +0.000 OA
ATOM      5  N   UNL     1       5.459   4.144  17.869  0.00  0.00    +0.000 NA
ATOM      6  C   UNL     1       6.317   5.086  17.464  0.00  0.00    +0.000 A 
ENDROOT
BRANCH   6   7
ATOM      7  C   UNL     1       6.473   5.391  16.062  0.00  0.00    +0.000 C 
ATOM      8  N   UNL     1       7.606   5.158  15.479  0.00  0.00    +0.000 NA
BRANCH   8   9
ATOM      9  O   UNL     1       7.518   5.529  14.133  0.00  0.00    +0.000 OA
ATOM     10  H   UNL     1       7.052   6.387  14.178  0.00  0.00    +0.000 HD
ENDBRANCH   8   9
ENDBRANCH   6   7
TORSDOF 2
ENDMDL
MODEL 9
REMARK VINA RESULT:      -4.6      2.204      3.457
REMARK  Name = 
REMARK  3 active torsions:
REMARK  status: ('A' for Active; 'I' for Inactive)
REMARK    1  A    between atoms: C_1  and  C_2
REMARK    2  A    between atoms: C_6  and  C_7
REMARK    3  A    between atoms: N_8  and  O_9
REMARK                            x       y       z     vdW  Elec       q    Type
REMARK                         _______ _______ _______ _____ _____    ______ ____
ROOT
ATOM      1  C   UNL     1       6.209   4.378  14.981  0.00  0.00    +0.000 C 
ATOM      2  C   UNL     1       6.569   4.416  16.415  0.00  0.00    +0.000 A 
ATOM      3  N   UNL     1       7.846   4.465  16.803  0.00  0.00    +0.000 NA
ATOM      4  O   UNL     1       7.800   4.489  18.191  0.00  0.00    +0.000 OA
ATOM      5  N   UNL     1       6.489   4.455  18.652  0.00  0.00    +0.000 NA
ATOM      6  C   UNL     1       5.732   4.411  17.550  0.00  0.00    +0.000 A 
ENDROOT
BRANCH   6   7
ATOM      7  C   UNL     1       4.293   4.366  17.644  0.00  0.00    +0.000 C 
ATOM      8  N   UNL     1       3.624   5.471  17.740  0.00  0.00    +0.000 NA
BRANCH   8   9
ATOM      9  O   UNL     1       2.257   5.178  17.816  0.00  0.00    +0.000 OA
ATOM     10  H   UNL     1       1.850   6.065  17.857  0.00  0.00    +0.000 HD
ENDBRANCH   8   9
ENDBRANCH   6   7
TORSDOF 2
ENDMDL
