MODEL 1
REMARK VINA RESULT:      -7.5      0.000      0.000
REMARK  Name = 
REMARK  10 active torsions:
REMARK  status: ('A' for Active; 'I' for Inactive)
REMARK    1  A    between atoms: C_1  and  C_2
REMARK    2  A    between atoms: C_2  and  C_3
REMARK    3  A    between atoms: C_2  and  C_4
REMARK    4  A    between atoms: C_7  and  C_8
REMARK    5  A    between atoms: C_9  and  C_10
REMARK    6  A    between atoms: N_12  and  C_13
REMARK    7  A    between atoms: C_13  and  C_14
REMARK    8  A    between atoms: C_14  and  C_15
REMARK    9  A    between atoms: C_15  and  C_16
REMARK   10  A    between atoms: C_16  and  N_17
REMARK                            x       y       z     vdW  Elec       q    Type
REMARK                         _______ _______ _______ _____ _____    ______ ____
ROOT
ATOM      1  C   UNL     1       7.685   7.585  17.641  0.00  0.00    +0.000 C 
ATOM      2  O   UNL     1       7.247   7.193  16.569  0.00  0.00    +0.000 OA
ATOM      3  N   UNL     1       7.841   6.794  18.753  0.00  0.00    +0.000 N 
ATOM      4  H   UNL     1       8.289   7.167  19.576  0.00  0.00    +0.000 HD
ENDROOT
BRANCH   1   6
ATOM      5  C   UNL     1       8.933   9.262  18.904  0.00  0.00    +0.000 C 
ATOM      6  C   UNL     1       8.115   8.983  17.877  0.00  0.00    +0.000 C 
BRANCH   5  10
ATOM      7  C   UNL     1      10.500  13.146  19.867  0.00  0.00    +0.000 A 
ATOM      8  C   UNL     1       9.996  12.294  20.863  0.00  0.00    +0.000 A 
ATOM      9  C   UNL     1       9.473  11.040  20.535  0.00  0.00    +0.000 A 
ATOM     10  C   UNL     1       9.434  10.608  19.206  0.00  0.00    +0.000 A 
ATOM     11  C   UNL     1       9.946  11.451  18.214  0.00  0.00    +0.000 A 
ATOM     12  C   UNL     1      10.468  12.705  18.540  0.00  0.00    +0.000 A 
BRANCH   7  14
ATOM     13  C   UNL     1      11.111  15.418  19.064  0.00  0.00    +0.000 C 
ATOM     14  C   UNL     1      11.146  14.463  20.260  0.00  0.00    +0.000 C 
ATOM     15  C   UNL     1      10.514  15.124  21.491  0.00  0.00    +0.000 C 
ENDBRANCH   7  14
ENDBRANCH   5  10
ENDBRANCH   1   6
BRANCH   3  16
ATOM     16  C   UNL     1       7.582   5.371  18.704  0.00  0.00    +0.000 C 
BRANCH  16  17
ATOM     17  C   UNL     1       6.177   5.029  19.197  0.00  0.00    +0.000 C 
BRANCH  17  18
ATOM     18  C   UNL     1       5.203   4.849  18.030  0.00  0.00    +0.000 C 
BRANCH  18  19
ATOM     19  C   UNL     1       3.956   4.066  18.448  0.00  0.00    +0.000 C 
BRANCH  19  20
ATOM     20  N   UNL     1       2.709   4.831  18.264  0.00  0.00    +0.000 NA
ATOM     21  C   UNL     1       2.472   5.731  19.420  0.00  0.00    +0.000 C 
ATOM     22  C   UNL     1       2.047   4.989  20.703  0.00  0.00    +0.000 C 
ATOM     23  O   UNL     1       0.892   4.167  20.484  0.00  0.00    +0.000 OA
ATOM     24  C   UNL     1       1.109   3.248  19.406  0.00  0.00    +0.000 C 
ATOM     25  C   UNL     1       1.502   3.986  18.118  0.00  0.00    +0.000 C 
ENDBRANCH  19  20
ENDBRANCH  18  19
ENDBRANCH  17  18
ENDBRANCH  16  17
ENDBRANCH   3  16
TORSDOF 8
ENDMDL
MODEL 2
REMARK VINA RESULT:      -7.4      1.551      2.218
REMARK  Name = 
REMARK  10 active torsions:
REMARK  status: ('A' for Active; 'I' for Inactive)
REMARK    1  A    between atoms: C_1  and  C_2
REMARK    2  A    between atoms: C_2  and  C_3
REMARK    3  A    between atoms: C_2  and  C_4
REMARK    4  A    between atoms: C_7  and  C_8
REMARK    5  A    between atoms: C_9  and  C_10
REMARK    6  A    between atoms: N_12  and  C_13
REMARK    7  A    between atoms: C_13  and  C_14
REMARK    8  A    between atoms: C_14  and  C_15
REMARK    9  A    between atoms: C_15  and  C_16
REMARK   10  A    between atoms: C_16  and  N_17
REMARK                            x       y       z     vdW  Elec       q    Type
REMARK                         _______ _______ _______ _____ _____    ______ ____
ROOT
ATOM      1  C   UNL     1       7.831   7.438  17.909  0.00  0.00    +0.000 C 
ATOM      2  O   UNL     1       8.075   6.627  18.792  0.00  0.00    +0.000 OA
ATOM      3  N   UNL     1       7.188   7.137  16.733  0.00  0.00    +0.000 N 
ATOM      4  H   UNL     1       6.946   7.876  16.090  0.00  0.00    +0.000 HD
ENDROOT
BRANCH   1   6
ATOM      5  C   UNL     1       9.040   9.280  18.963  0.00  0.00    +0.000 C 
ATOM      6  C   UNL     1       8.197   8.870  18.002  0.00  0.00    +0.000 C 
BRANCH   5  10
ATOM      7  C   UNL     1      10.215  13.395  19.364  0.00  0.00    +0.000 A 
ATOM      8  C   UNL     1      10.037  12.806  18.102  0.00  0.00    +0.000 A 
ATOM      9  C   UNL     1       9.671  11.462  17.985  0.00  0.00    +0.000 A 
ATOM     10  C   UNL     1       9.482  10.671  19.122  0.00  0.00    +0.000 A 
ATOM     11  C   UNL     1       9.648  11.259  20.380  0.00  0.00    +0.000 A 
ATOM     12  C   UNL     1      10.015  12.602  20.499  0.00  0.00    +0.000 A 
BRANCH   7  14
ATOM     13  C   UNL     1       9.810  15.459  20.689  0.00  0.00    +0.000 C 
ATOM     14  C   UNL     1      10.523  14.878  19.465  0.00  0.00    +0.000 C 
ATOM     15  C   UNL     1      12.021  15.202  19.515  0.00  0.00    +0.000 C 
ENDBRANCH   7  14
ENDBRANCH   5  10
ENDBRANCH   1   6
BRANCH   3  16
ATOM     16  C   UNL     1       6.650   5.817  16.489  0.00  0.00    +0.000 C 
BRANCH  16  17
ATOM     17  C   UNL     1       5.124   5.831  16.395  0.00  0.00    +0.000 C 
BRANCH  17  18
ATOM     18  C   UNL     1       4.556   4.411  16.320  0.00  0.00    +0.000 C 
BRANCH  18  19
ATOM     19  C   UNL     1       3.600   4.122  17.481  0.00  0.00    +0.000 C 
BRANCH  19  20
ATOM     20  N   UNL     1       3.823   2.800  18.093  0.00  0.00    +0.000 NA
ATOM     21  C   UNL     1       2.636   1.929  17.904  0.00  0.00    +0.000 C 
ATOM     22  C   UNL     1       1.429   2.334  18.773  0.00  0.00    +0.000 C 
ATOM     23  O   UNL     1       1.772   2.391  20.165  0.00  0.00    +0.000 OA
ATOM     24  C   UNL     1       2.883   3.268  20.388  0.00  0.00    +0.000 C 
ATOM     25  C   UNL     1       4.098   2.848  19.547  0.00  0.00    +0.000 C 
ENDBRANCH  19  20
ENDBRANCH  18  19
ENDBRANCH  17  18
ENDBRANCH  16  17
ENDBRANCH   3  16
TORSDOF 8
ENDMDL
MODEL 3
REMARK VINA RESULT:      -7.3      1.397      2.106
REMARK  Name = 
REMARK  10 active torsions:
REMARK  status: ('A' for Active; 'I' for Inactive)
REMARK    1  A    between atoms: C_1  and  C_2
REMARK    2  A    between atoms: C_2  and  C_3
REMARK    3  A    between atoms: C_2  and  C_4
REMARK    4  A    between atoms: C_7  and  C_8
REMARK    5  A    between atoms: C_9  and  C_10
REMARK    6  A    between atoms: N_12  and  C_13
REMARK    7  A    between atoms: C_13  and  C_14
REMARK    8  A    between atoms: C_14  and  C_15
REMARK    9  A    between atoms: C_15  and  C_16
REMARK   10  A    between atoms: C_16  and  N_17
REMARK                            x       y       z     vdW  Elec       q    Type
REMARK                         _______ _______ _______ _____ _____    ______ ____
ROOT
ATOM      1  C   UNL     1       7.324   7.475  17.396  0.00  0.00    +0.000 C 
ATOM      2  O   UNL     1       7.976   6.455  17.566  0.00  0.00    +0.000 OA
ATOM      3  N   UNL     1       6.027   7.503  16.941  0.00  0.00    +0.000 N 
ATOM      4  H   UNL     1       5.525   8.377  16.908  0.00  0.00    +0.000 HD
ENDROOT
BRANCH   1   6
ATOM      5  C   UNL     1       8.703   9.018  18.694  0.00  0.00    +0.000 C 
ATOM      6  C   UNL     1       7.854   8.831  17.672  0.00  0.00    +0.000 C 
BRANCH   5  10
ATOM      7  C   UNL     1      10.341  12.880  19.625  0.00  0.00    +0.000 A 
ATOM      8  C   UNL     1      10.103  12.489  18.298  0.00  0.00    +0.000 A 
ATOM      9  C   UNL     1       9.586  11.223  18.007  0.00  0.00    +0.000 A 
ATOM     10  C   UNL     1       9.301  10.315  19.031  0.00  0.00    +0.000 A 
ATOM     11  C   UNL     1       9.528  10.708  20.354  0.00  0.00    +0.000 A 
ATOM     12  C   UNL     1      10.046  11.972  20.647  0.00  0.00    +0.000 A 
BRANCH   7  14
ATOM     13  C   UNL     1      10.474  14.649  21.368  0.00  0.00    +0.000 C 
ATOM     14  C   UNL     1      10.817  14.293  19.919  0.00  0.00    +0.000 C 
ATOM     15  C   UNL     1      12.310  14.516  19.651  0.00  0.00    +0.000 C 
ENDBRANCH   7  14
ENDBRANCH   5  10
ENDBRANCH   1   6
BRANCH   3  16
ATOM     16  C   UNL     1       5.286   6.281  16.716  0.00  0.00    +0.000 C 
BRANCH  16  17
ATOM     17  C   UNL     1       4.240   6.039  17.803  0.00  0.00    +0.000 C 
BRANCH  17  18
ATOM     18  C   UNL     1       3.374   4.817  17.484  0.00  0.00    +0.000 C 
BRANCH  18  19
ATOM     19  C   UNL     1       2.225   4.662  18.484  0.00  0.00    +0.000 C 
BRANCH  19  20
ATOM     20  N   UNL     1       1.859   3.254  18.724  0.00  0.00    +0.000 NA
ATOM     21  C   UNL     1       0.877   3.149  19.830  0.00  0.00    +0.000 C 
ATOM     22  C   UNL     1       1.481   3.423  21.222  0.00  0.00    +0.000 C 
ATOM     23  O   UNL     1       2.605   2.572  21.489  0.00  0.00    +0.000 OA
ATOM     24  C   UNL     1       3.599   2.690  20.464  0.00  0.00    +0.000 C 
ATOM     25  C   UNL     1       3.006   2.387  19.080  0.00  0.00    +0.000 C 
ENDBRANCH  19  20
ENDBRANCH  18  19
ENDBRANCH  17  18
ENDBRANCH  16  17
ENDBRANCH   3  16
TORSDOF 8
ENDMDL
MODEL 4
REMARK VINA RESULT:      -7.3      1.213      1.796
REMARK  Name = 
REMARK  10 active torsions:
REMARK  status: ('A' for Active; 'I' for Inactive)
REMARK    1  A    between atoms: C_1  and  C_2
REMARK    2  A    between atoms: C_2  and  C_3
REMARK    3  A    between atoms: C_2  and  C_4
REMARK    4  A    between atoms: C_7  and  C_8
REMARK    5  A    between atoms: C_9  and  C_10
REMARK    6  A    between atoms: N_12  and  C_13
REMARK    7  A    between atoms: C_13  and  C_14
REMARK    8  A    between atoms: C_14  and  C_15
REMARK    9  A    between atoms: C_15  and  C_16
REMARK   10  A    between atoms: C_16  and  N_17
REMARK                            x       y       z     vdW  Elec       q    Type
REMARK                         _______ _______ _______ _____ _____    ______ ____
ROOT
ATOM      1  C   UNL     1       7.250   7.022  17.218  0.00  0.00    +0.000 C 
ATOM      2  O   UNL     1       7.693   6.433  16.243  0.00  0.00    +0.000 OA
ATOM      3  N   UNL     1       5.969   6.881  17.697  0.00  0.00    +0.000 N 
ATOM      4  H   UNL     1       5.702   7.335  18.557  0.00  0.00    +0.000 HD
ENDROOT
BRANCH   1   6
ATOM      5  C   UNL     1       8.082   9.271  17.684  0.00  0.00    +0.000 C 
ATOM      6  C   UNL     1       8.051   7.973  18.023  0.00  0.00    +0.000 C 
BRANCH   5  10
ATOM      7  C   UNL     1      10.153  12.352  19.848  0.00  0.00    +0.000 A 
ATOM      8  C   UNL     1       9.846  12.497  18.486  0.00  0.00    +0.000 A 
ATOM      9  C   UNL     1       9.187  11.480  17.789  0.00  0.00    +0.000 A 
ATOM     10  C   UNL     1       8.825  10.292  18.431  0.00  0.00    +0.000 A 
ATOM     11  C   UNL     1       9.121  10.152  19.791  0.00  0.00    +0.000 A 
ATOM     12  C   UNL     1       9.780  11.167  20.489  0.00  0.00    +0.000 A 
BRANCH   7  14
ATOM     13  C   UNL     1      11.179  14.605  19.611  0.00  0.00    +0.000 C 
ATOM     14  C   UNL     1      10.787  13.508  20.603  0.00  0.00    +0.000 C 
ATOM     15  C   UNL     1       9.903  14.083  21.717  0.00  0.00    +0.000 C 
ENDBRANCH   7  14
ENDBRANCH   5  10
ENDBRANCH   1   6
BRANCH   3  16
ATOM     16  C   UNL     1       5.055   5.919  17.121  0.00  0.00    +0.000 C 
BRANCH  16  17
ATOM     17  C   UNL     1       5.340   4.498  17.606  0.00  0.00    +0.000 C 
BRANCH  17  18
ATOM     18  C   UNL     1       4.182   3.552  17.278  0.00  0.00    +0.000 C 
BRANCH  18  19
ATOM     19  C   UNL     1       3.687   2.811  18.523  0.00  0.00    +0.000 C 
BRANCH  19  20
ATOM     20  N   UNL     1       2.261   3.054  18.806  0.00  0.00    +0.000 NA
ATOM     21  C   UNL     1       2.011   4.500  19.026  0.00  0.00    +0.000 C 
ATOM     22  C   UNL     1       2.559   5.026  20.368  0.00  0.00    +0.000 C 
ATOM     23  O   UNL     1       2.054   4.272  21.479  0.00  0.00    +0.000 OA
ATOM     24  C   UNL     1       2.328   2.874  21.323  0.00  0.00    +0.000 C 
ATOM     25  C   UNL     1       1.755   2.341  20.001  0.00  0.00    +0.000 C 
ENDBRANCH  19  20
ENDBRANCH  18  19
ENDBRANCH  17  18
ENDBRANCH  16  17
ENDBRANCH   3  16
TORSDOF 8
ENDMDL
MODEL 5
REMARK VINA RESULT:      -7.3      1.595      2.095
REMARK  Name = 
REMARK  10 active torsions:
REMARK  status: ('A' for Active; 'I' for Inactive)
REMARK    1  A    between atoms: C_1  and  C_2
REMARK    2  A    between atoms: C_2  and  C_3
REMARK    3  A    between atoms: C_2  and  C_4
REMARK    4  A    between atoms: C_7  and  C_8
REMARK    5  A    between atoms: C_9  and  C_10
REMARK    6  A    between atoms: N_12  and  C_13
REMARK    7  A    between atoms: C_13  and  C_14
REMARK    8  A    between atoms: C_14  and  C_15
REMARK    9  A    between atoms: C_15  and  C_16
REMARK   10  A    between atoms: C_16  and  N_17
REMARK                            x       y       z     vdW  Elec       q    Type
REMARK                         _______ _______ _______ _____ _____    ______ ____
ROOT
ATOM      1  C   UNL     1       7.498   7.028  17.722  0.00  0.00    +0.000 C 
ATOM      2  O   UNL     1       7.154   6.377  18.698  0.00  0.00    +0.000 OA
ATOM      3  N   UNL     1       7.489   6.559  16.431  0.00  0.00    +0.000 N 
ATOM      4  H   UNL     1       7.706   7.182  15.668  0.00  0.00    +0.000 HD
ENDROOT
BRANCH   1   6
ATOM      5  C   UNL     1       8.714   8.818  18.856  0.00  0.00    +0.000 C 
ATOM      6  C   UNL     1       7.969   8.430  17.810  0.00  0.00    +0.000 C 
BRANCH   5  10
ATOM      7  C   UNL     1      10.149  12.844  19.302  0.00  0.00    +0.000 A 
ATOM      8  C   UNL     1       9.689  12.365  18.065  0.00  0.00    +0.000 A 
ATOM      9  C   UNL     1       9.241  11.048  17.929  0.00  0.00    +0.000 A 
ATOM     10  C   UNL     1       9.247  10.175  19.021  0.00  0.00    +0.000 A 
ATOM     11  C   UNL     1       9.694  10.654  20.256  0.00  0.00    +0.000 A 
ATOM     12  C   UNL     1      10.143  11.970  20.394  0.00  0.00    +0.000 A 
BRANCH   7  14
ATOM     13  C   UNL     1       9.530  15.176  18.699  0.00  0.00    +0.000 C 
ATOM     14  C   UNL     1      10.544  14.304  19.444  0.00  0.00    +0.000 C 
ATOM     15  C   UNL     1      10.687  14.771  20.898  0.00  0.00    +0.000 C 
ENDBRANCH   7  14
ENDBRANCH   5  10
ENDBRANCH   1   6
BRANCH   3  16
ATOM     16  C   UNL     1       6.962   5.250  16.112  0.00  0.00    +0.000 C 
BRANCH  16  17
ATOM     17  C   UNL     1       5.488   5.309  15.712  0.00  0.00    +0.000 C 
BRANCH  17  18
ATOM     18  C   UNL     1       4.795   3.961  15.928  0.00  0.00    +0.000 C 
BRANCH  18  19
ATOM     19  C   UNL     1       4.535   3.690  17.413  0.00  0.00    +0.000 C 
BRANCH  19  20
ATOM     20  N   UNL     1       3.477   2.690  17.637  0.00  0.00    +0.000 NA
ATOM     21  C   UNL     1       2.180   3.354  17.918  0.00  0.00    +0.000 C 
ATOM     22  C   UNL     1       2.112   4.011  19.311  0.00  0.00    +0.000 C 
ATOM     23  O   UNL     1       2.413   3.074  20.355  0.00  0.00    +0.000 OA
ATOM     24  C   UNL     1       3.687   2.453  20.141  0.00  0.00    +0.000 C 
ATOM     25  C   UNL     1       3.747   1.771  18.766  0.00  0.00    +0.000 C 
ENDBRANCH  19  20
ENDBRANCH  18  19
ENDBRANCH  17  18
ENDBRANCH  16  17
ENDBRANCH   3  16
TORSDOF 8
ENDMDL
MODEL 6
REMARK VINA RESULT:      -7.3      0.888      1.429
REMARK  Name = 
REMARK  10 active torsions:
REMARK  status: ('A' for Active; 'I' for Inactive)
REMARK    1  A    between atoms: C_1  and  C_2
REMARK    2  A    between atoms: C_2  and  C_3
REMARK    3  A    between atoms: C_2  and  C_4
REMARK    4  A    between atoms: C_7  and  C_8
REMARK    5  A    between atoms: C_9  and  C_10
REMARK    6  A    between atoms: N_12  and  C_13
REMARK    7  A    between atoms: C_13  and  C_14
REMARK    8  A    between atoms: C_14  and  C_15
REMARK    9  A    between atoms: C_15  and  C_16
REMARK   10  A    between atoms: C_16  and  N_17
REMARK                            x       y       z     vdW  Elec       q    Type
REMARK                         _______ _______ _______ _____ _____    ______ ____
ROOT
ATOM      1  C   UNL     1       7.685   7.846  17.670  0.00  0.00    +0.000 C 
ATOM      2  O   UNL     1       6.979   7.503  16.733  0.00  0.00    +0.000 OA
ATOM      3  N   UNL     1       8.072   7.017  18.696  0.00  0.00    +0.000 N 
ATOM      4  H   UNL     1       8.726   7.348  19.389  0.00  0.00    +0.000 HD
ENDROOT
BRANCH   1   6
ATOM      5  C   UNL     1       8.942   9.536  18.906  0.00  0.00    +0.000 C 
ATOM      6  C   UNL     1       8.226   9.217  17.817  0.00  0.00    +0.000 C 
BRANCH   5  10
ATOM      7  C   UNL     1      10.564  13.462  19.561  0.00  0.00    +0.000 A 
ATOM      8  C   UNL     1       9.882  13.141  18.376  0.00  0.00    +0.000 A 
ATOM      9  C   UNL     1       9.374  11.856  18.168  0.00  0.00    +0.000 A 
ATOM     10  C   UNL     1       9.540  10.857  19.132  0.00  0.00    +0.000 A 
ATOM     11  C   UNL     1      10.209  11.178  20.318  0.00  0.00    +0.000 A 
ATOM     12  C   UNL     1      10.719  12.462  20.527  0.00  0.00    +0.000 A 
BRANCH   7  14
ATOM     13  C   UNL     1      10.919  15.680  18.495  0.00  0.00    +0.000 C 
ATOM     14  C   UNL     1      11.025  14.889  19.801  0.00  0.00    +0.000 C 
ATOM     15  C   UNL     1      10.269  15.607  20.926  0.00  0.00    +0.000 C 
ENDBRANCH   7  14
ENDBRANCH   5  10
ENDBRANCH   1   6
BRANCH   3  16
ATOM     16  C   UNL     1       7.742   5.609  18.687  0.00  0.00    +0.000 C 
BRANCH  16  17
ATOM     17  C   UNL     1       6.523   5.303  19.555  0.00  0.00    +0.000 C 
BRANCH  17  18
ATOM     18  C   UNL     1       5.296   4.974  18.700  0.00  0.00    +0.000 C 
BRANCH  18  19
ATOM     19  C   UNL     1       4.149   4.417  19.548  0.00  0.00    +0.000 C 
BRANCH  19  20
ATOM     20  N   UNL     1       2.857   5.069  19.265  0.00  0.00    +0.000 NA
ATOM     21  C   UNL     1       1.772   4.450  20.067  0.00  0.00    +0.000 C 
ATOM     22  C   UNL     1       1.377   3.040  19.587  0.00  0.00    +0.000 C 
ATOM     23  O   UNL     1       1.018   3.033  18.198  0.00  0.00    +0.000 OA
ATOM     24  C   UNL     1       2.069   3.575  17.389  0.00  0.00    +0.000 C 
ATOM     25  C   UNL     1       2.444   4.993  17.845  0.00  0.00    +0.000 C 
ENDBRANCH  19  20
ENDBRANCH  18  19
ENDBRANCH  17  18
ENDBRANCH  16  17
ENDBRANCH   3  16
TORSDOF 8
ENDMDL
MODEL 7
REMARK VINA RESULT:      -7.3      1.379      2.057
REMARK  Name = 
REMARK  10 active torsions:
REMARK  status: ('A' for Active; 'I' for Inactive)
REMARK    1  A    between atoms: C_1  and  C_2
REMARK    2  A    between atoms: C_2  and  C_3
REMARK    3  A    between atoms: C_2  and  C_4
REMARK    4  A    between atoms: C_7  and  C_8
REMARK    5  A    between atoms: C_9  and  C_10
REMARK    6  A    between atoms: N_12  and  C_13
REMARK    7  A    between atoms: C_13  and  C_14
REMARK    8  A    between atoms: C_14  and  C_15
REMARK    9  A    between atoms: C_15  and  C_16
REMARK   10  A    between atoms: C_16  and  N_17
REMARK                            x       y       z     vdW  Elec       q    Type
REMARK                         _______ _______ _______ _____ _____    ______ ____
ROOT
ATOM      1  C   UNL     1       7.451   6.676  17.539  0.00  0.00    +0.000 C 
ATOM      2  O   UNL     1       7.843   5.519  17.584  0.00  0.00    +0.000 OA
ATOM      3  N   UNL     1       6.298   7.083  16.912  0.00  0.00    +0.000 N 
ATOM      4  H   UNL     1       5.996   8.042  16.990  0.00  0.00    +0.000 HD
ENDROOT
BRANCH   1   6
ATOM      5  C   UNL     1       7.986   9.053  17.722  0.00  0.00    +0.000 C 
ATOM      6  C   UNL     1       8.178   7.803  18.171  0.00  0.00    +0.000 C 
BRANCH   5  10
ATOM      7  C   UNL     1       9.771  12.576  19.416  0.00  0.00    +0.000 A 
ATOM      8  C   UNL     1       9.065  12.626  18.204  0.00  0.00    +0.000 A 
ATOM      9  C   UNL     1       8.503  11.469  17.655  0.00  0.00    +0.000 A 
ATOM     10  C   UNL     1       8.639  10.235  18.297  0.00  0.00    +0.000 A 
ATOM     11  C   UNL     1       9.332  10.186  19.510  0.00  0.00    +0.000 A 
ATOM     12  C   UNL     1       9.895  11.341  20.060  0.00  0.00    +0.000 A 
BRANCH   7  14
ATOM     13  C   UNL     1       9.981  13.858  21.536  0.00  0.00    +0.000 C 
ATOM     14  C   UNL     1      10.291  13.861  20.037  0.00  0.00    +0.000 C 
ATOM     15  C   UNL     1      11.786  14.106  19.800  0.00  0.00    +0.000 C 
ENDBRANCH   7  14
ENDBRANCH   5  10
ENDBRANCH   1   6
BRANCH   3  16
ATOM     16  C   UNL     1       5.386   6.126  16.326  0.00  0.00    +0.000 C 
BRANCH  16  17
ATOM     17  C   UNL     1       4.593   5.367  17.389  0.00  0.00    +0.000 C 
BRANCH  17  18
ATOM     18  C   UNL     1       3.998   4.074  16.825  0.00  0.00    +0.000 C 
BRANCH  18  19
ATOM     19  C   UNL     1       3.686   3.064  17.933  0.00  0.00    +0.000 C 
BRANCH  19  20
ATOM     20  N   UNL     1       2.247   2.763  18.047  0.00  0.00    +0.000 NA
ATOM     21  C   UNL     1       1.457   4.015  18.146  0.00  0.00    +0.000 C 
ATOM     22  C   UNL     1       1.603   4.733  19.501  0.00  0.00    +0.000 C 
ATOM     23  O   UNL     1       1.279   3.867  20.599  0.00  0.00    +0.000 OA
ATOM     24  C   UNL     1       2.066   2.670  20.563  0.00  0.00    +0.000 C 
ATOM     25  C   UNL     1       1.898   1.936  19.225  0.00  0.00    +0.000 C 
ENDBRANCH  19  20
ENDBRANCH  18  19
ENDBRANCH  17  18
ENDBRANCH  16  17
ENDBRANCH   3  16
TORSDOF 8
ENDMDL
MODEL 8
REMARK VINA RESULT:      -7.2      1.307      1.812
REMARK  Name = 
REMARK  10 active torsions:
REMARK  status: ('A' for Active; 'I' for Inactive)
REMARK    1  A    between atoms: C_1  and  C_2
REMARK    2  A    between atoms: C_2  and  C_3
REMARK    3  A    between atoms: C_2  and  C_4
REMARK    4  A    between atoms: C_7  and  C_8
REMARK    5  A    between atoms: C_9  and  C_10
REMARK    6  A    between atoms: N_12  and  C_13
REMARK    7  A    between atoms: C_13  and  C_14
REMARK    8  A    between atoms: C_14  and  C_15
REMARK    9  A    between atoms: C_15  and  C_16
REMARK   10  A    between atoms: C_16  and  N_17
REMARK                            x       y       z     vdW  Elec       q    Type
REMARK                         _______ _______ _______ _____ _____    ______ ____
ROOT
ATOM      1  C   UNL     1       7.692   7.183  17.476  0.00  0.00    +0.000 C 
ATOM      2  O   UNL     1       7.535   6.703  16.363  0.00  0.00    +0.000 OA
ATOM      3  N   UNL     1       7.645   6.465  18.647  0.00  0.00    +0.000 N 
ATOM      4  H   UNL     1       7.870   6.915  19.522  0.00  0.00    +0.000 HD
ENDROOT
BRANCH   1   6
ATOM      5  C   UNL     1       8.776   8.992  18.710  0.00  0.00    +0.000 C 
ATOM      6  C   UNL     1       7.965   8.621  17.707  0.00  0.00    +0.000 C 
BRANCH   5  10
ATOM      7  C   UNL     1       9.671  13.113  19.535  0.00  0.00    +0.000 A 
ATOM      8  C   UNL     1       9.297  12.690  18.250  0.00  0.00    +0.000 A 
ATOM      9  C   UNL     1       9.025  11.344  17.991  0.00  0.00    +0.000 A 
ATOM     10  C   UNL     1       9.127  10.386  19.004  0.00  0.00    +0.000 A 
ATOM     11  C   UNL     1       9.489  10.808  20.287  0.00  0.00    +0.000 A 
ATOM     12  C   UNL     1       9.763  12.153  20.548  0.00  0.00    +0.000 A 
BRANCH   7  14
ATOM     13  C   UNL     1       8.530  15.317  19.681  0.00  0.00    +0.000 C 
ATOM     14  C   UNL     1       9.872  14.593  19.812  0.00  0.00    +0.000 C 
ATOM     15  C   UNL     1      10.512  14.891  21.174  0.00  0.00    +0.000 C 
ENDBRANCH   7  14
ENDBRANCH   5  10
ENDBRANCH   1   6
BRANCH   3  16
ATOM     16  C   UNL     1       7.498   5.026  18.639  0.00  0.00    +0.000 C 
BRANCH  16  17
ATOM     17  C   UNL     1       6.053   4.601  18.381  0.00  0.00    +0.000 C 
BRANCH  17  18
ATOM     18  C   UNL     1       5.089   5.270  19.365  0.00  0.00    +0.000 C 
BRANCH  18  19
ATOM     19  C   UNL     1       3.630   4.937  19.042  0.00  0.00    +0.000 C 
BRANCH  19  20
ATOM     20  N   UNL     1       2.969   4.161  20.107  0.00  0.00    +0.000 NA
ATOM     21  C   UNL     1       3.467   2.764  20.123  0.00  0.00    +0.000 C 
ATOM     22  C   UNL     1       2.965   1.916  18.937  0.00  0.00    +0.000 C 
ATOM     23  O   UNL     1       1.533   1.920  18.851  0.00  0.00    +0.000 OA
ATOM     24  C   UNL     1       1.022   3.257  18.780  0.00  0.00    +0.000 C 
ATOM     25  C   UNL     1       1.496   4.095  19.976  0.00  0.00    +0.000 C 
ENDBRANCH  19  20
ENDBRANCH  18  19
ENDBRANCH  17  18
ENDBRANCH  16  17
ENDBRANCH   3  16
TORSDOF 8
ENDMDL
MODEL 9
REMARK VINA RESULT:      -7.2      1.489      1.943
REMARK  Name = 
REMARK  10 active torsions:
REMARK  status: ('A' for Active; 'I' for Inactive)
REMARK    1  A    between atoms: C_1  and  C_2
REMARK    2  A    between atoms: C_2  and  C_3
REMARK    3  A    between atoms: C_2  and  C_4
REMARK    4  A    between atoms: C_7  and  C_8
REMARK    5  A    between atoms: C_9  and  C_10
REMARK    6  A    between atoms: N_12  and  C_13
REMARK    7  A    between atoms: C_13  and  C_14
REMARK    8  A    between atoms: C_14  and  C_15
REMARK    9  A    between atoms: C_15  and  C_16
REMARK   10  A    between atoms: C_16  and  N_17
REMARK                            x       y       z     vdW  Elec       q    Type
REMARK                         _______ _______ _______ _____ _____    ______ ____
ROOT
ATOM      1  C   UNL     1       7.686   7.067  17.725  0.00  0.00    +0.000 C 
ATOM      2  O   UNL     1       7.609   6.375  18.730  0.00  0.00    +0.000 OA
ATOM      3  N   UNL     1       7.487   6.606  16.446  0.00  0.00    +0.000 N 
ATOM      4  H   UNL     1       7.482   7.255  15.673  0.00  0.00    +0.000 HD
ENDROOT
BRANCH   1   6
ATOM      5  C   UNL     1       8.794   8.999  18.729  0.00  0.00    +0.000 C 
ATOM      6  C   UNL     1       8.001   8.514  17.761  0.00  0.00    +0.000 C 
BRANCH   5  10
ATOM      7  C   UNL     1       9.797  13.165  19.049  0.00  0.00    +0.000 A 
ATOM      8  C   UNL     1       9.044  12.676  17.970  0.00  0.00    +0.000 A 
ATOM      9  C   UNL     1       8.738  11.316  17.869  0.00  0.00    +0.000 A 
ATOM     10  C   UNL     1       9.183  10.410  18.836  0.00  0.00    +0.000 A 
ATOM     11  C   UNL     1       9.924  10.897  19.917  0.00  0.00    +0.000 A 
ATOM     12  C   UNL     1      10.231  12.256  20.020  0.00  0.00    +0.000 A 
BRANCH   7  14
ATOM     13  C   UNL     1      11.510  14.961  18.902  0.00  0.00    +0.000 C 
ATOM     14  C   UNL     1      10.036  14.659  19.184  0.00  0.00    +0.000 C 
ATOM     15  C   UNL     1       9.133  15.518  18.292  0.00  0.00    +0.000 C 
ENDBRANCH   7  14
ENDBRANCH   5  10
ENDBRANCH   1   6
BRANCH   3  16
ATOM     16  C   UNL     1       7.062   5.247  16.196  0.00  0.00    +0.000 C 
BRANCH  16  17
ATOM     17  C   UNL     1       5.740   5.192  15.432  0.00  0.00    +0.000 C 
BRANCH  17  18
ATOM     18  C   UNL     1       4.751   4.228  16.093  0.00  0.00    +0.000 C 
BRANCH  18  19
ATOM     19  C   UNL     1       4.310   4.728  17.471  0.00  0.00    +0.000 C 
BRANCH  19  20
ATOM     20  N   UNL     1       2.868   4.544  17.714  0.00  0.00    +0.000 NA
ATOM     21  C   UNL     1       2.270   5.780  18.278  0.00  0.00    +0.000 C 
ATOM     22  C   UNL     1       2.672   6.046  19.743  0.00  0.00    +0.000 C 
ATOM     23  O   UNL     1       2.366   4.929  20.589  0.00  0.00    +0.000 OA
ATOM     24  C   UNL     1       2.974   3.727  20.100  0.00  0.00    +0.000 C 
ATOM     25  C   UNL     1       2.551   3.442  18.651  0.00  0.00    +0.000 C 
ENDBRANCH  19  20
ENDBRANCH  18  19
ENDBRANCH  17  18
ENDBRANCH  16  17
ENDBRANCH   3  16
TORSDOF 8
ENDMDL
