MODEL 1
REMARK VINA RESULT:      -6.8      0.000      0.000
REMARK  Name = 
REMARK  8 active torsions:
REMARK  status: ('A' for Active; 'I' for Inactive)
REMARK    1  A    between atoms: C_1  and  C_2
REMARK    2  A    between atoms: C_2  and  N_3
REMARK    3  A    between atoms: N_3  and  C_4
REMARK    4  A    between atoms: N_3  and  C_12
REMARK    5  A    between atoms: C_4  and  C_5
REMARK    6  A    between atoms: C_5  and  C_6
REMARK    7  A    between atoms: C_12  and  C_13
REMARK    8  A    between atoms: C_16  and  C_17
REMARK                            x       y       z     vdW  Elec       q    Type
REMARK                         _______ _______ _______ _____ _____    ______ ____
ROOT
ATOM      1  N   UNL     1       6.301   5.528  17.952  0.00  0.00    +0.000 NA
ENDROOT
BRANCH   1   3
ATOM      2  C   UNL     1       7.779   7.624  17.666  0.00  0.00    +0.000 C 
ATOM      3  C   UNL     1       7.411   6.380  18.468  0.00  0.00    +0.000 C 
ENDBRANCH   1   3
BRANCH   1   4
ATOM      4  C   UNL     1       6.778   4.592  16.888  0.00  0.00    +0.000 C 
BRANCH   4   5
ATOM      5  C   UNL     1       5.757   4.221  15.781  0.00  0.00    +0.000 C 
BRANCH   5   6
ATOM      6  C   UNL     1       6.354   4.348  14.398  0.00  0.00    +0.000 A 
ATOM      7  C   UNL     1       5.907   3.534  13.359  0.00  0.00    +0.000 A 
ATOM      8  C   UNL     1       6.505   3.651  12.101  0.00  0.00    +0.000 A 
ATOM      9  C   UNL     1       7.535   4.565  11.928  0.00  0.00    +0.000 A 
ATOM     10  C   UNL     1       7.920   5.337  13.010  0.00  0.00    +0.000 A 
ATOM     11  N   UNL     1       7.347   5.258  14.235  0.00  0.00    +0.000 NA
ENDBRANCH   5   6
ENDBRANCH   4   5
ENDBRANCH   1   4
BRANCH   1  12
ATOM     12  C   UNL     1       5.777   4.734  19.107  0.00  0.00    +0.000 C 
BRANCH  12  13
ATOM     13  C   UNL     1       4.318   5.000  19.391  0.00  0.00    +0.000 A 
ATOM     14  C   UNL     1       3.408   4.147  19.962  0.00  0.00    +0.000 A 
ATOM     15  S   UNL     1       1.866   4.867  20.042  0.00  0.00    +0.000 S 
ATOM     16  C   UNL     1       2.507   6.295  19.323  0.00  0.00    +0.000 A 
ATOM     17  N   UNL     1       3.791   6.245  19.041  0.00  0.00    +0.000 NA
BRANCH  16  18
ATOM     18  C   UNL     1       1.618   7.469  19.057  0.00  0.00    +0.000 C 
ATOM     19  C   UNL     1       1.564   8.447  20.228  0.00  0.00    +0.000 C 
ATOM     20  C   UNL     1       1.031   9.729  19.602  0.00  0.00    +0.000 C 
ATOM     21  C   UNL     1       1.508   9.714  18.150  0.00  0.00    +0.000 C 
ATOM     22  C   UNL     1       2.136   8.344  17.915  0.00  0.00    +0.000 C 
ENDBRANCH  16  18
ENDBRANCH  12  13
ENDBRANCH   1  12
TORSDOF 7
ENDMDL
MODEL 2
REMARK VINA RESULT:      -6.7      2.540      5.394
REMARK  Name = 
REMARK  8 active torsions:
REMARK  status: ('A' for Active; 'I' for Inactive)
REMARK    1  A    between atoms: C_1  and  C_2
REMARK    2  A    between atoms: C_2  and  N_3
REMARK    3  A    between atoms: N_3  and  C_4
REMARK    4  A    between atoms: N_3  and  C_12
REMARK    5  A    between atoms: C_4  and  C_5
REMARK    6  A    between atoms: C_5  and  C_6
REMARK    7  A    between atoms: C_12  and  C_13
REMARK    8  A    between atoms: C_16  and  C_17
REMARK                            x       y       z     vdW  Elec       q    Type
REMARK                         _______ _______ _______ _____ _____    ______ ____
ROOT
ATOM      1  N   UNL     1       4.115   5.149  17.102  0.00  0.00    +0.000 NA
ENDROOT
BRANCH   1   3
ATOM      2  C   UNL     1       6.238   4.799  15.678  0.00  0.00    +0.000 C 
ATOM      3  C   UNL     1       5.126   5.721  16.167  0.00  0.00    +0.000 C 
ENDBRANCH   1   3
BRANCH   1   4
ATOM      4  C   UNL     1       4.339   3.687  17.324  0.00  0.00    +0.000 C 
BRANCH   4   5
ATOM      5  C   UNL     1       3.073   2.813  17.521  0.00  0.00    +0.000 C 
BRANCH   5   6
ATOM      6  C   UNL     1       2.496   2.963  18.910  0.00  0.00    +0.000 A 
ATOM      7  C   UNL     1       1.306   3.663  19.108  0.00  0.00    +0.000 A 
ATOM      8  C   UNL     1       0.818   3.814  20.409  0.00  0.00    +0.000 A 
ATOM      9  C   UNL     1       1.539   3.275  21.465  0.00  0.00    +0.000 A 
ATOM     10  C   UNL     1       2.711   2.594  21.185  0.00  0.00    +0.000 A 
ATOM     11  N   UNL     1       3.198   2.416  19.933  0.00  0.00    +0.000 NA
ENDBRANCH   5   6
ENDBRANCH   4   5
ENDBRANCH   1   4
BRANCH   1  12
ATOM     12  C   UNL     1       4.257   5.872  18.405  0.00  0.00    +0.000 C 
BRANCH  12  13
ATOM     13  C   UNL     1       3.234   6.968  18.584  0.00  0.00    +0.000 A 
ATOM     14  C   UNL     1       2.929   7.978  17.707  0.00  0.00    +0.000 A 
ATOM     15  S   UNL     1       1.739   9.010  18.357  0.00  0.00    +0.000 S 
ATOM     16  C   UNL     1       1.681   8.032  19.774  0.00  0.00    +0.000 A 
ATOM     17  N   UNL     1       2.495   6.999  19.768  0.00  0.00    +0.000 NA
BRANCH  16  18
ATOM     18  C   UNL     1       0.759   8.389  20.898  0.00  0.00    +0.000 C 
ATOM     19  C   UNL     1       1.504   8.811  22.161  0.00  0.00    +0.000 C 
ATOM     20  C   UNL     1       0.449   9.555  22.969  0.00  0.00    +0.000 C 
ATOM     21  C   UNL     1      -0.501  10.175  21.945  0.00  0.00    +0.000 C 
ATOM     22  C   UNL     1      -0.092   9.621  20.583  0.00  0.00    +0.000 C 
ENDBRANCH  16  18
ENDBRANCH  12  13
ENDBRANCH   1  12
TORSDOF 7
ENDMDL
MODEL 3
REMARK VINA RESULT:      -6.4      2.055      7.644
REMARK  Name = 
REMARK  8 active torsions:
REMARK  status: ('A' for Active; 'I' for Inactive)
REMARK    1  A    between atoms: C_1  and  C_2
REMARK    2  A    between atoms: C_2  and  N_3
REMARK    3  A    between atoms: N_3  and  C_4
REMARK    4  A    between atoms: N_3  and  C_12
REMARK    5  A    between atoms: C_4  and  C_5
REMARK    6  A    between atoms: C_5  and  C_6
REMARK    7  A    between atoms: C_12  and  C_13
REMARK    8  A    between atoms: C_16  and  C_17
REMARK                            x       y       z     vdW  Elec       q    Type
REMARK                         _______ _______ _______ _____ _____    ______ ____
ROOT
ATOM      1  N   UNL     1       2.425   4.573  18.632  0.00  0.00    +0.000 NA
ENDROOT
BRANCH   1   3
ATOM      2  C   UNL     1       1.453   2.892  20.331  0.00  0.00    +0.000 C 
ATOM      3  C   UNL     1       1.258   3.771  19.100  0.00  0.00    +0.000 C 
ENDBRANCH   1   3
BRANCH   1   4
ATOM      4  C   UNL     1       2.524   5.874  19.361  0.00  0.00    +0.000 C 
BRANCH   4   5
ATOM      5  C   UNL     1       2.553   7.158  18.491  0.00  0.00    +0.000 C 
BRANCH   5   6
ATOM      6  C   UNL     1       1.845   8.312  19.165  0.00  0.00    +0.000 A 
ATOM      7  C   UNL     1       1.450   8.214  20.498  0.00  0.00    +0.000 A 
ATOM      8  C   UNL     1       0.766   9.285  21.082  0.00  0.00    +0.000 A 
ATOM      9  C   UNL     1       0.490  10.406  20.313  0.00  0.00    +0.000 A 
ATOM     10  C   UNL     1       0.917  10.425  18.996  0.00  0.00    +0.000 A 
ATOM     11  N   UNL     1       1.597   9.411  18.410  0.00  0.00    +0.000 NA
ENDBRANCH   5   6
ENDBRANCH   4   5
ENDBRANCH   1   4
BRANCH   1  12
ATOM     12  C   UNL     1       3.655   3.764  18.900  0.00  0.00    +0.000 C 
BRANCH  12  13
ATOM     13  C   UNL     1       4.823   4.164  18.030  0.00  0.00    +0.000 A 
ATOM     14  C   UNL     1       6.085   4.518  18.435  0.00  0.00    +0.000 A 
ATOM     15  S   UNL     1       7.058   4.935  17.100  0.00  0.00    +0.000 S 
ATOM     16  C   UNL     1       5.739   4.596  16.047  0.00  0.00    +0.000 A 
ATOM     17  N   UNL     1       4.638   4.196  16.646  0.00  0.00    +0.000 NA
BRANCH  16  18
ATOM     18  C   UNL     1       5.892   4.772  14.568  0.00  0.00    +0.000 C 
ATOM     19  C   UNL     1       7.325   5.099  14.157  0.00  0.00    +0.000 C 
ATOM     20  C   UNL     1       7.356   4.771  12.670  0.00  0.00    +0.000 C 
ATOM     21  C   UNL     1       6.340   3.647  12.468  0.00  0.00    +0.000 C 
ATOM     22  C   UNL     1       5.609   3.482  13.796  0.00  0.00    +0.000 C 
ENDBRANCH  16  18
ENDBRANCH  12  13
ENDBRANCH   1  12
TORSDOF 7
ENDMDL
MODEL 4
REMARK VINA RESULT:      -6.4      2.980      7.522
REMARK  Name = 
REMARK  8 active torsions:
REMARK  status: ('A' for Active; 'I' for Inactive)
REMARK    1  A    between atoms: C_1  and  C_2
REMARK    2  A    between atoms: C_2  and  N_3
REMARK    3  A    between atoms: N_3  and  C_4
REMARK    4  A    between atoms: N_3  and  C_12
REMARK    5  A    between atoms: C_4  and  C_5
REMARK    6  A    between atoms: C_5  and  C_6
REMARK    7  A    between atoms: C_12  and  C_13
REMARK    8  A    between atoms: C_16  and  C_17
REMARK                            x       y       z     vdW  Elec       q    Type
REMARK                         _______ _______ _______ _____ _____    ______ ____
ROOT
ATOM      1  N   UNL     1       2.002   4.476  19.516  0.00  0.00    +0.000 NA
ENDROOT
BRANCH   1   3
ATOM      2  C   UNL     1       0.579   2.376  19.046  0.00  0.00    +0.000 C 
ATOM      3  C   UNL     1       0.909   3.559  19.950  0.00  0.00    +0.000 C 
ENDBRANCH   1   3
BRANCH   1   4
ATOM      4  C   UNL     1       2.061   5.701  20.370  0.00  0.00    +0.000 C 
BRANCH   4   5
ATOM      5  C   UNL     1       2.319   7.046  19.641  0.00  0.00    +0.000 C 
BRANCH   5   6
ATOM      6  C   UNL     1       1.530   8.180  20.255  0.00  0.00    +0.000 A 
ATOM      7  C   UNL     1       1.213   9.308  19.500  0.00  0.00    +0.000 A 
ATOM      8  C   UNL     1       0.514  10.355  20.108  0.00  0.00    +0.000 A 
ATOM      9  C   UNL     1       0.168  10.245  21.448  0.00  0.00    +0.000 A 
ATOM     10  C   UNL     1       0.519   9.091  22.127  0.00  0.00    +0.000 A 
ATOM     11  N   UNL     1       1.180   8.054  21.559  0.00  0.00    +0.000 NA
ENDBRANCH   5   6
ENDBRANCH   4   5
ENDBRANCH   1   4
BRANCH   1  12
ATOM     12  C   UNL     1       3.290   3.724  19.643  0.00  0.00    +0.000 C 
BRANCH  12  13
ATOM     13  C   UNL     1       4.260   4.026  18.526  0.00  0.00    +0.000 A 
ATOM     14  C   UNL     1       4.348   3.406  17.305  0.00  0.00    +0.000 A 
ATOM     15  S   UNL     1       5.628   4.053  16.386  0.00  0.00    +0.000 S 
ATOM     16  C   UNL     1       5.983   5.145  17.669  0.00  0.00    +0.000 A 
ATOM     17  N   UNL     1       5.199   5.041  18.720  0.00  0.00    +0.000 NA
BRANCH  16  18
ATOM     18  C   UNL     1       7.118   6.114  17.541  0.00  0.00    +0.000 C 
ATOM     19  C   UNL     1       6.655   7.523  17.183  0.00  0.00    +0.000 C 
ATOM     20  C   UNL     1       7.841   8.399  17.563  0.00  0.00    +0.000 C 
ATOM     21  C   UNL     1       8.531   7.687  18.726  0.00  0.00    +0.000 C 
ATOM     22  C   UNL     1       7.850   6.329  18.867  0.00  0.00    +0.000 C 
ENDBRANCH  16  18
ENDBRANCH  12  13
ENDBRANCH   1  12
TORSDOF 7
ENDMDL
MODEL 5
REMARK VINA RESULT:      -6.3      2.799      4.382
REMARK  Name = 
REMARK  8 active torsions:
REMARK  status: ('A' for Active; 'I' for Inactive)
REMARK    1  A    between atoms: C_1  and  C_2
REMARK    2  A    between atoms: C_2  and  N_3
REMARK    3  A    between atoms: N_3  and  C_4
REMARK    4  A    between atoms: N_3  and  C_12
REMARK    5  A    between atoms: C_4  and  C_5
REMARK    6  A    between atoms: C_5  and  C_6
REMARK    7  A    between atoms: C_12  and  C_13
REMARK    8  A    between atoms: C_16  and  C_17
REMARK                            x       y       z     vdW  Elec       q    Type
REMARK                         _______ _______ _______ _____ _____    ______ ____
ROOT
ATOM      1  N   UNL     1       3.507   4.123  19.367  0.00  0.00    +0.000 NA
ENDROOT
BRANCH   1   3
ATOM      2  C   UNL     1       1.614   3.019  20.729  0.00  0.00    +0.000 C 
ATOM      3  C   UNL     1       3.099   3.318  20.554  0.00  0.00    +0.000 C 
ENDBRANCH   1   3
BRANCH   1   4
ATOM      4  C   UNL     1       4.236   3.290  18.362  0.00  0.00    +0.000 C 
BRANCH   4   5
ATOM      5  C   UNL     1       4.860   4.042  17.158  0.00  0.00    +0.000 C 
BRANCH   5   6
ATOM      6  C   UNL     1       5.898   5.049  17.600  0.00  0.00    +0.000 A 
ATOM      7  C   UNL     1       5.995   6.286  16.965  0.00  0.00    +0.000 A 
ATOM      8  C   UNL     1       6.989   7.181  17.373  0.00  0.00    +0.000 A 
ATOM      9  C   UNL     1       7.856   6.805  18.389  0.00  0.00    +0.000 A 
ATOM     10  C   UNL     1       7.692   5.559  18.969  0.00  0.00    +0.000 A 
ATOM     11  N   UNL     1       6.728   4.680  18.607  0.00  0.00    +0.000 NA
ENDBRANCH   5   6
ENDBRANCH   4   5
ENDBRANCH   1   4
BRANCH   1  12
ATOM     12  C   UNL     1       2.256   4.661  18.745  0.00  0.00    +0.000 C 
BRANCH  12  13
ATOM     13  C   UNL     1       2.135   6.162  18.870  0.00  0.00    +0.000 A 
ATOM     14  C   UNL     1       2.419   7.105  17.915  0.00  0.00    +0.000 A 
ATOM     15  S   UNL     1       2.175   8.678  18.523  0.00  0.00    +0.000 S 
ATOM     16  C   UNL     1       1.681   8.007  20.030  0.00  0.00    +0.000 A 
ATOM     17  N   UNL     1       1.694   6.692  20.083  0.00  0.00    +0.000 NA
BRANCH  16  18
ATOM     18  C   UNL     1       1.287   8.905  21.162  0.00  0.00    +0.000 C 
ATOM     19  C   UNL     1       0.783  10.265  20.688  0.00  0.00    +0.000 C 
ATOM     20  C   UNL     1       0.021  10.805  21.891  0.00  0.00    +0.000 C 
ATOM     21  C   UNL     1      -0.524   9.580  22.625  0.00  0.00    +0.000 C 
ATOM     22  C   UNL     1       0.092   8.360  21.947  0.00  0.00    +0.000 C 
ENDBRANCH  16  18
ENDBRANCH  12  13
ENDBRANCH   1  12
TORSDOF 7
ENDMDL
MODEL 6
REMARK VINA RESULT:      -6.3      3.047      6.093
REMARK  Name = 
REMARK  8 active torsions:
REMARK  status: ('A' for Active; 'I' for Inactive)
REMARK    1  A    between atoms: C_1  and  C_2
REMARK    2  A    between atoms: C_2  and  N_3
REMARK    3  A    between atoms: N_3  and  C_4
REMARK    4  A    between atoms: N_3  and  C_12
REMARK    5  A    between atoms: C_4  and  C_5
REMARK    6  A    between atoms: C_5  and  C_6
REMARK    7  A    between atoms: C_12  and  C_13
REMARK    8  A    between atoms: C_16  and  C_17
REMARK                            x       y       z     vdW  Elec       q    Type
REMARK                         _______ _______ _______ _____ _____    ______ ____
ROOT
ATOM      1  N   UNL     1       6.781   6.980  18.044  0.00  0.00    +0.000 NA
ENDROOT
BRANCH   1   3
ATOM      2  C   UNL     1       7.436   4.624  17.223  0.00  0.00    +0.000 C 
ATOM      3  C   UNL     1       7.651   5.779  18.195  0.00  0.00    +0.000 C 
ENDBRANCH   1   3
BRANCH   1   4
ATOM      4  C   UNL     1       7.578   8.193  17.681  0.00  0.00    +0.000 C 
BRANCH   4   5
ATOM      5  C   UNL     1       8.751   8.562  18.627  0.00  0.00    +0.000 C 
BRANCH   5   6
ATOM      6  C   UNL     1       8.943  10.058  18.729  0.00  0.00    +0.000 A 
ATOM      7  C   UNL     1       9.482  10.623  19.883  0.00  0.00    +0.000 A 
ATOM      8  C   UNL     1       9.613  12.013  19.960  0.00  0.00    +0.000 A 
ATOM      9  C   UNL     1       9.191  12.788  18.889  0.00  0.00    +0.000 A 
ATOM     10  C   UNL     1       8.667  12.150  17.778  0.00  0.00    +0.000 A 
ATOM     11  N   UNL     1       8.545  10.805  17.669  0.00  0.00    +0.000 NA
ENDBRANCH   5   6
ENDBRANCH   4   5
ENDBRANCH   1   4
BRANCH   1  12
ATOM     12  C   UNL     1       5.806   6.687  16.947  0.00  0.00    +0.000 C 
BRANCH  12  13
ATOM     13  C   UNL     1       4.370   6.694  17.418  0.00  0.00    +0.000 A 
ATOM     14  C   UNL     1       3.575   7.786  17.658  0.00  0.00    +0.000 A 
ATOM     15  S   UNL     1       2.040   7.308  18.220  0.00  0.00    +0.000 S 
ATOM     16  C   UNL     1       2.518   5.659  18.091  0.00  0.00    +0.000 A 
ATOM     17  N   UNL     1       3.745   5.469  17.655  0.00  0.00    +0.000 NA
BRANCH  16  18
ATOM     18  C   UNL     1       1.566   4.567  18.469  0.00  0.00    +0.000 C 
ATOM     19  C   UNL     1       2.022   3.193  17.986  0.00  0.00    +0.000 C 
ATOM     20  C   UNL     1       1.219   2.224  18.844  0.00  0.00    +0.000 C 
ATOM     21  C   UNL     1       0.978   2.944  20.171  0.00  0.00    +0.000 C 
ATOM     22  C   UNL     1       1.475   4.374  19.984  0.00  0.00    +0.000 C 
ENDBRANCH  16  18
ENDBRANCH  12  13
ENDBRANCH   1  12
TORSDOF 7
ENDMDL
MODEL 7
REMARK VINA RESULT:      -6.3      2.762      4.417
REMARK  Name = 
REMARK  8 active torsions:
REMARK  status: ('A' for Active; 'I' for Inactive)
REMARK    1  A    between atoms: C_1  and  C_2
REMARK    2  A    between atoms: C_2  and  N_3
REMARK    3  A    between atoms: N_3  and  C_4
REMARK    4  A    between atoms: N_3  and  C_12
REMARK    5  A    between atoms: C_4  and  C_5
REMARK    6  A    between atoms: C_5  and  C_6
REMARK    7  A    between atoms: C_12  and  C_13
REMARK    8  A    between atoms: C_16  and  C_17
REMARK                            x       y       z     vdW  Elec       q    Type
REMARK                         _______ _______ _______ _____ _____    ______ ____
ROOT
ATOM      1  N   UNL     1       3.122   4.434  18.879  0.00  0.00    +0.000 NA
ENDROOT
BRANCH   1   3
ATOM      2  C   UNL     1       1.047   2.915  18.671  0.00  0.00    +0.000 C 
ATOM      3  C   UNL     1       1.640   4.292  18.952  0.00  0.00    +0.000 C 
ENDBRANCH   1   3
BRANCH   1   4
ATOM      4  C   UNL     1       3.584   4.650  17.474  0.00  0.00    +0.000 C 
BRANCH   4   5
ATOM      5  C   UNL     1       5.025   4.183  17.137  0.00  0.00    +0.000 C 
BRANCH   5   6
ATOM      6  C   UNL     1       6.064   5.171  17.617  0.00  0.00    +0.000 A 
ATOM      7  C   UNL     1       6.228   6.394  16.969  0.00  0.00    +0.000 A 
ATOM      8  C   UNL     1       7.221   7.269  17.415  0.00  0.00    +0.000 A 
ATOM      9  C   UNL     1       8.023   6.889  18.483  0.00  0.00    +0.000 A 
ATOM     10  C   UNL     1       7.796   5.658  19.073  0.00  0.00    +0.000 A 
ATOM     11  N   UNL     1       6.829   4.797  18.673  0.00  0.00    +0.000 NA
ENDBRANCH   5   6
ENDBRANCH   4   5
ENDBRANCH   1   4
BRANCH   1  12
ATOM     12  C   UNL     1       3.496   5.624  19.707  0.00  0.00    +0.000 C 
BRANCH  12  13
ATOM     13  C   UNL     1       2.733   6.870  19.325  0.00  0.00    +0.000 A 
ATOM     14  C   UNL     1       2.808   7.568  18.146  0.00  0.00    +0.000 A 
ATOM     15  S   UNL     1       1.796   8.937  18.183  0.00  0.00    +0.000 S 
ATOM     16  C   UNL     1       1.293   8.508  19.774  0.00  0.00    +0.000 A 
ATOM     17  N   UNL     1       1.841   7.413  20.253  0.00  0.00    +0.000 NA
BRANCH  16  18
ATOM     18  C   UNL     1       0.308   9.364  20.509  0.00  0.00    +0.000 C 
ATOM     19  C   UNL     1       0.266   9.063  22.005  0.00  0.00    +0.000 C 
ATOM     20  C   UNL     1      -0.395  10.298  22.602  0.00  0.00    +0.000 C 
ATOM     21  C   UNL     1      -0.017  11.459  21.683  0.00  0.00    +0.000 C 
ATOM     22  C   UNL     1       0.688  10.845  20.477  0.00  0.00    +0.000 C 
ENDBRANCH  16  18
ENDBRANCH  12  13
ENDBRANCH   1  12
TORSDOF 7
ENDMDL
MODEL 8
REMARK VINA RESULT:      -6.3      1.458      2.062
REMARK  Name = 
REMARK  8 active torsions:
REMARK  status: ('A' for Active; 'I' for Inactive)
REMARK    1  A    between atoms: C_1  and  C_2
REMARK    2  A    between atoms: C_2  and  N_3
REMARK    3  A    between atoms: N_3  and  C_4
REMARK    4  A    between atoms: N_3  and  C_12
REMARK    5  A    between atoms: C_4  and  C_5
REMARK    6  A    between atoms: C_5  and  C_6
REMARK    7  A    between atoms: C_12  and  C_13
REMARK    8  A    between atoms: C_16  and  C_17
REMARK                            x       y       z     vdW  Elec       q    Type
REMARK                         _______ _______ _______ _____ _____    ______ ____
ROOT
ATOM      1  N   UNL     1       5.630   5.490  18.065  0.00  0.00    +0.000 NA
ENDROOT
BRANCH   1   3
ATOM      2  C   UNL     1       7.952   6.109  19.003  0.00  0.00    +0.000 C 
ATOM      3  C   UNL     1       6.602   5.426  19.194  0.00  0.00    +0.000 C 
ENDBRANCH   1   3
BRANCH   1   4
ATOM      4  C   UNL     1       5.923   4.451  17.030  0.00  0.00    +0.000 C 
BRANCH   4   5
ATOM      5  C   UNL     1       5.019   4.452  15.770  0.00  0.00    +0.000 C 
BRANCH   5   6
ATOM      6  C   UNL     1       5.831   4.431  14.494  0.00  0.00    +0.000 A 
ATOM      7  C   UNL     1       5.449   3.618  13.428  0.00  0.00    +0.000 A 
ATOM      8  C   UNL     1       6.241   3.594  12.277  0.00  0.00    +0.000 A 
ATOM      9  C   UNL     1       7.391   4.371  12.235  0.00  0.00    +0.000 A 
ATOM     10  C   UNL     1       7.700   5.152  13.335  0.00  0.00    +0.000 A 
ATOM     11  N   UNL     1       6.942   5.209  14.456  0.00  0.00    +0.000 NA
ENDBRANCH   5   6
ENDBRANCH   4   5
ENDBRANCH   1   4
BRANCH   1  12
ATOM     12  C   UNL     1       4.269   5.243  18.637  0.00  0.00    +0.000 C 
BRANCH  12  13
ATOM     13  C   UNL     1       3.390   6.472  18.614  0.00  0.00    +0.000 A 
ATOM     14  C   UNL     1       3.331   7.440  17.644  0.00  0.00    +0.000 A 
ATOM     15  S   UNL     1       2.224   8.662  18.070  0.00  0.00    +0.000 S 
ATOM     16  C   UNL     1       1.866   7.814  19.527  0.00  0.00    +0.000 A 
ATOM     17  N   UNL     1       2.527   6.689  19.690  0.00  0.00    +0.000 NA
BRANCH  16  18
ATOM     18  C   UNL     1       0.874   8.373  20.499  0.00  0.00    +0.000 C 
ATOM     19  C   UNL     1       1.482   8.649  21.871  0.00  0.00    +0.000 C 
ATOM     20  C   UNL     1       0.493   9.609  22.517  0.00  0.00    +0.000 C 
ATOM     21  C   UNL     1      -0.135  10.399  21.368  0.00  0.00    +0.000 C 
ATOM     22  C   UNL     1       0.359   9.750  20.078  0.00  0.00    +0.000 C 
ENDBRANCH  16  18
ENDBRANCH  12  13
ENDBRANCH   1  12
TORSDOF 7
ENDMDL
MODEL 9
REMARK VINA RESULT:      -6.3      2.265      4.392
REMARK  Name = 
REMARK  8 active torsions:
REMARK  status: ('A' for Active; 'I' for Inactive)
REMARK    1  A    between atoms: C_1  and  C_2
REMARK    2  A    between atoms: C_2  and  N_3
REMARK    3  A    between atoms: N_3  and  C_4
REMARK    4  A    between atoms: N_3  and  C_12
REMARK    5  A    between atoms: C_4  and  C_5
REMARK    6  A    between atoms: C_5  and  C_6
REMARK    7  A    between atoms: C_12  and  C_13
REMARK    8  A    between atoms: C_16  and  C_17
REMARK                            x       y       z     vdW  Elec       q    Type
REMARK                         _______ _______ _______ _____ _____    ______ ____
ROOT
ATOM      1  N   UNL     1       2.743   5.426  20.076  0.00  0.00    +0.000 NA
ENDROOT
BRANCH   1   3
ATOM      2  C   UNL     1       1.097   3.544  20.714  0.00  0.00    +0.000 C 
ATOM      3  C   UNL     1       1.515   4.647  19.746  0.00  0.00    +0.000 C 
ENDBRANCH   1   3
BRANCH   1   4
ATOM      4  C   UNL     1       3.984   4.646  19.778  0.00  0.00    +0.000 C 
BRANCH   4   5
ATOM      5  C   UNL     1       3.973   3.791  18.483  0.00  0.00    +0.000 C 
BRANCH   5   6
ATOM      6  C   UNL     1       5.125   4.140  17.568  0.00  0.00    +0.000 A 
ATOM      7  C   UNL     1       4.943   4.172  16.186  0.00  0.00    +0.000 A 
ATOM      8  C   UNL     1       6.037   4.462  15.366  0.00  0.00    +0.000 A 
ATOM      9  C   UNL     1       7.273   4.697  15.951  0.00  0.00    +0.000 A 
ATOM     10  C   UNL     1       7.370   4.648  17.331  0.00  0.00    +0.000 A 
ATOM     11  N   UNL     1       6.324   4.387  18.151  0.00  0.00    +0.000 NA
ENDBRANCH   5   6
ENDBRANCH   4   5
ENDBRANCH   1   4
BRANCH   1  12
ATOM     12  C   UNL     1       2.725   6.662  19.232  0.00  0.00    +0.000 C 
BRANCH  12  13
ATOM     13  C   UNL     1       1.890   7.770  19.830  0.00  0.00    +0.000 A 
ATOM     14  C   UNL     1       1.553   7.945  21.149  0.00  0.00    +0.000 A 
ATOM     15  S   UNL     1       0.557   9.312  21.346  0.00  0.00    +0.000 S 
ATOM     16  C   UNL     1       0.648   9.609  19.652  0.00  0.00    +0.000 A 
ATOM     17  N   UNL     1       1.375   8.747  18.976  0.00  0.00    +0.000 NA
BRANCH  16  18
ATOM     18  C   UNL     1      -0.077  10.774  19.052  0.00  0.00    +0.000 C 
ATOM     19  C   UNL     1      -1.070  10.358  17.970  0.00  0.00    +0.000 C 
ATOM     20  C   UNL     1      -1.993  11.562  17.845  0.00  0.00    +0.000 C 
ATOM     21  C   UNL     1      -2.020  12.212  19.229  0.00  0.00    +0.000 C 
ATOM     22  C   UNL     1      -0.970  11.489  20.067  0.00  0.00    +0.000 C 
ENDBRANCH  16  18
ENDBRANCH  12  13
ENDBRANCH   1  12
TORSDOF 7
ENDMDL
