MODEL 1
REMARK VINA RESULT:      -8.4      0.000      0.000
REMARK  Name = 
REMARK  2 active torsions:
REMARK  status: ('A' for Active; 'I' for Inactive)
REMARK    1  A    between atoms: O_1  and  C_2
REMARK    2  A    between atoms: C_2  and  C_3
REMARK                            x       y       z     vdW  Elec       q    Type
REMARK                         _______ _______ _______ _____ _____    ______ ____
ROOT
ATOM      1  C   UNL     1       4.092   3.347  18.508  0.00  0.00    +0.000 C 
ATOM      2  C   UNL     1       4.684   4.085  17.313  0.00  0.00    +0.000 A 
ATOM      3  C   UNL     1       5.562   3.581  16.357  0.00  0.00    +0.000 A 
ATOM      4  C   UNL     1       5.976   4.425  15.329  0.00  0.00    +0.000 A 
ATOM      5  C   UNL     1       5.520   5.745  15.273  0.00  0.00    +0.000 A 
ATOM      6  C   UNL     1       4.645   6.248  16.246  0.00  0.00    +0.000 A 
ATOM      7  C   UNL     1       4.220   5.421  17.275  0.00  0.00    +0.000 A 
ATOM      8  C   UNL     1       3.340   5.656  18.418  0.00  0.00    +0.000 A 
ATOM      9  C   UNL     1       2.629   6.764  18.872  0.00  0.00    +0.000 A 
ATOM     10 BR   UNL     1       2.600   8.445  18.004  0.00  0.00    +0.000 Br
ATOM     11  C   UNL     1       1.872   6.657  20.051  0.00  0.00    +0.000 A 
ATOM     12  C   UNL     1       1.827   5.463  20.781  0.00  0.00    +0.000 A 
ATOM     13  C   UNL     1       2.532   4.349  20.344  0.00  0.00    +0.000 A 
ATOM     14  C   UNL     1       3.266   4.450  19.164  0.00  0.00    +0.000 A 
ENDROOT
BRANCH   1  15
ATOM     15  C   UNL     1       3.254   2.088  18.112  0.00  0.00    +0.000 C 
ATOM     16  F   UNL     1       2.407   2.402  17.092  0.00  0.00    +0.000 F 
ATOM     17  F   UNL     1       4.003   1.045  17.685  0.00  0.00    +0.000 F 
ATOM     18  F   UNL     1       2.473   1.626  19.117  0.00  0.00    +0.000 F 
ENDBRANCH   1  15
BRANCH   1  19
ATOM     19  O   UNL     1       5.180   3.056  19.407  0.00  0.00    +0.000 OA
ATOM     20  H   UNL     1       4.898   2.303  19.956  0.00  0.00    +0.000 HD
ENDBRANCH   1  19
TORSDOF 2
ENDMDL
MODEL 2
REMARK VINA RESULT:      -7.3      0.769      1.120
REMARK  Name = 
REMARK  2 active torsions:
REMARK  status: ('A' for Active; 'I' for Inactive)
REMARK    1  A    between atoms: O_1  and  C_2
REMARK    2  A    between atoms: C_2  and  C_3
REMARK                            x       y       z     vdW  Elec       q    Type
REMARK                         _______ _______ _______ _____ _____    ______ ____
ROOT
ATOM      1  C   UNL     1       3.588   3.943  18.641  0.00  0.00    +0.000 C 
ATOM      2  C   UNL     1       4.229   4.648  17.452  0.00  0.00    +0.000 A 
ATOM      3  C   UNL     1       5.067   4.092  16.488  0.00  0.00    +0.000 A 
ATOM      4  C   UNL     1       5.538   4.914  15.467  0.00  0.00    +0.000 A 
ATOM      5  C   UNL     1       5.178   6.264  15.425  0.00  0.00    +0.000 A 
ATOM      6  C   UNL     1       4.343   6.818  16.404  0.00  0.00    +0.000 A 
ATOM      7  C   UNL     1       3.861   6.014  17.427  0.00  0.00    +0.000 A 
ATOM      8  C   UNL     1       3.002   6.301  18.574  0.00  0.00    +0.000 A 
ATOM      9  C   UNL     1       2.373   7.452  19.040  0.00  0.00    +0.000 A 
ATOM     10 BR   UNL     1       2.463   9.139  18.188  0.00  0.00    +0.000 Br
ATOM     11  C   UNL     1       1.612   7.388  20.220  0.00  0.00    +0.000 A 
ATOM     12  C   UNL     1       1.483   6.194  20.939  0.00  0.00    +0.000 A 
ATOM     13  C   UNL     1       2.107   5.036  20.489  0.00  0.00    +0.000 A 
ATOM     14  C   UNL     1       2.844   5.097  19.309  0.00  0.00    +0.000 A 
ENDROOT
BRANCH   1  15
ATOM     15  C   UNL     1       2.661   2.751  18.235  0.00  0.00    +0.000 C 
ATOM     16  F   UNL     1       3.387   1.813  17.564  0.00  0.00    +0.000 F 
ATOM     17  F   UNL     1       2.091   2.119  19.287  0.00  0.00    +0.000 F 
ATOM     18  F   UNL     1       1.657   3.112  17.402  0.00  0.00    +0.000 F 
ENDBRANCH   1  15
BRANCH   1  19
ATOM     19  O   UNL     1       4.654   3.566  19.535  0.00  0.00    +0.000 OA
ATOM     20  H   UNL     1       5.282   4.310  19.554  0.00  0.00    +0.000 HD
ENDBRANCH   1  19
TORSDOF 2
ENDMDL
MODEL 3
REMARK VINA RESULT:      -7.0      2.557      4.272
REMARK  Name = 
REMARK  2 active torsions:
REMARK  status: ('A' for Active; 'I' for Inactive)
REMARK    1  A    between atoms: O_1  and  C_2
REMARK    2  A    between atoms: C_2  and  C_3
REMARK                            x       y       z     vdW  Elec       q    Type
REMARK                         _______ _______ _______ _____ _____    ______ ____
ROOT
ATOM      1  C   UNL     1       4.054   5.115  18.231  0.00  0.00    +0.000 C 
ATOM      2  C   UNL     1       3.474   4.365  19.423  0.00  0.00    +0.000 A 
ATOM      3  C   UNL     1       3.737   3.051  19.806  0.00  0.00    +0.000 A 
ATOM      4  C   UNL     1       3.108   2.557  20.946  0.00  0.00    +0.000 A 
ATOM      5  C   UNL     1       2.232   3.365  21.676  0.00  0.00    +0.000 A 
ATOM      6  C   UNL     1       1.964   4.682  21.277  0.00  0.00    +0.000 A 
ATOM      7  C   UNL     1       2.584   5.193  20.146  0.00  0.00    +0.000 A 
ATOM      8  C   UNL     1       2.498   6.495  19.488  0.00  0.00    +0.000 A 
ATOM      9  C   UNL     1       1.783   7.660  19.753  0.00  0.00    +0.000 A 
ATOM     10 BR   UNL     1       0.619   7.889  21.227  0.00  0.00    +0.000 Br
ATOM     11  C   UNL     1       1.916   8.758  18.886  0.00  0.00    +0.000 A 
ATOM     12  C   UNL     1       2.744   8.699  17.757  0.00  0.00    +0.000 A 
ATOM     13  C   UNL     1       3.461   7.542  17.477  0.00  0.00    +0.000 A 
ATOM     14  C   UNL     1       3.344   6.462  18.349  0.00  0.00    +0.000 A 
ENDROOT
BRANCH   1  15
ATOM     15  C   UNL     1       5.613   5.225  18.259  0.00  0.00    +0.000 C 
ATOM     16  F   UNL     1       6.030   5.529  19.521  0.00  0.00    +0.000 F 
ATOM     17  F   UNL     1       6.248   4.083  17.907  0.00  0.00    +0.000 F 
ATOM     18  F   UNL     1       6.097   6.206  17.460  0.00  0.00    +0.000 F 
ENDBRANCH   1  15
BRANCH   1  19
ATOM     19  O   UNL     1       3.543   4.482  17.042  0.00  0.00    +0.000 OA
ATOM     20  H   UNL     1       2.700   4.921  16.829  0.00  0.00    +0.000 HD
ENDBRANCH   1  19
TORSDOF 2
ENDMDL
MODEL 4
REMARK VINA RESULT:      -6.8      1.556      4.081
REMARK  Name = 
REMARK  2 active torsions:
REMARK  status: ('A' for Active; 'I' for Inactive)
REMARK    1  A    between atoms: O_1  and  C_2
REMARK    2  A    between atoms: C_2  and  C_3
REMARK                            x       y       z     vdW  Elec       q    Type
REMARK                         _______ _______ _______ _____ _____    ______ ____
ROOT
ATOM      1  C   UNL     1       3.123   3.248  17.739  0.00  0.00    +0.000 C 
ATOM      2  C   UNL     1       2.737   4.412  18.642  0.00  0.00    +0.000 A 
ATOM      3  C   UNL     1       1.671   4.473  19.537  0.00  0.00    +0.000 A 
ATOM      4  C   UNL     1       1.501   5.636  20.285  0.00  0.00    +0.000 A 
ATOM      5  C   UNL     1       2.380   6.711  20.128  0.00  0.00    +0.000 A 
ATOM      6  C   UNL     1       3.443   6.646  19.217  0.00  0.00    +0.000 A 
ATOM      7  C   UNL     1       3.631   5.495  18.465  0.00  0.00    +0.000 A 
ATOM      8  C   UNL     1       4.619   5.141  17.449  0.00  0.00    +0.000 A 
ATOM      9  C   UNL     1       5.700   5.813  16.884  0.00  0.00    +0.000 A 
ATOM     10 BR   UNL     1       6.245   7.559  17.368  0.00  0.00    +0.000 Br
ATOM     11  C   UNL     1       6.458   5.176  15.887  0.00  0.00    +0.000 A 
ATOM     12  C   UNL     1       6.140   3.886  15.443  0.00  0.00    +0.000 A 
ATOM     13  C   UNL     1       5.063   3.203  15.994  0.00  0.00    +0.000 A 
ATOM     14  C   UNL     1       4.326   3.827  16.997  0.00  0.00    +0.000 A 
ENDROOT
BRANCH   1  15
ATOM     15  C   UNL     1       3.443   1.931  18.518  0.00  0.00    +0.000 C 
ATOM     16  F   UNL     1       4.411   2.171  19.447  0.00  0.00    +0.000 F 
ATOM     17  F   UNL     1       2.383   1.421  19.188  0.00  0.00    +0.000 F 
ATOM     18  F   UNL     1       3.920   0.942  17.727  0.00  0.00    +0.000 F 
ENDBRANCH   1  15
BRANCH   1  19
ATOM     19  O   UNL     1       2.070   3.100  16.765  0.00  0.00    +0.000 OA
ATOM     20  H   UNL     1       1.739   2.188  16.845  0.00  0.00    +0.000 HD
ENDBRANCH   1  19
TORSDOF 2
ENDMDL
MODEL 5
REMARK VINA RESULT:      -6.7      2.427      4.483
REMARK  Name = 
REMARK  2 active torsions:
REMARK  status: ('A' for Active; 'I' for Inactive)
REMARK    1  A    between atoms: O_1  and  C_2
REMARK    2  A    between atoms: C_2  and  C_3
REMARK                            x       y       z     vdW  Elec       q    Type
REMARK                         _______ _______ _______ _____ _____    ______ ____
ROOT
ATOM      1  C   UNL     1       1.687   3.822  20.211  0.00  0.00    +0.000 C 
ATOM      2  C   UNL     1       1.733   5.344  20.169  0.00  0.00    +0.000 A 
ATOM      3  C   UNL     1       1.047   6.236  20.991  0.00  0.00    +0.000 A 
ATOM      4  C   UNL     1       1.241   7.601  20.793  0.00  0.00    +0.000 A 
ATOM      5  C   UNL     1       2.101   8.053  19.788  0.00  0.00    +0.000 A 
ATOM      6  C   UNL     1       2.779   7.150  18.958  0.00  0.00    +0.000 A 
ATOM      7  C   UNL     1       2.600   5.786  19.142  0.00  0.00    +0.000 A 
ATOM      8  C   UNL     1       3.147   4.625  18.443  0.00  0.00    +0.000 A 
ATOM      9  C   UNL     1       4.022   4.474  17.370  0.00  0.00    +0.000 A 
ATOM     10 BR   UNL     1       4.844   5.908  16.450  0.00  0.00    +0.000 Br
ATOM     11  C   UNL     1       4.336   3.180  16.920  0.00  0.00    +0.000 A 
ATOM     12  C   UNL     1       3.779   2.045  17.520  0.00  0.00    +0.000 A 
ATOM     13  C   UNL     1       2.902   2.179  18.590  0.00  0.00    +0.000 A 
ATOM     14  C   UNL     1       2.608   3.460  19.048  0.00  0.00    +0.000 A 
ENDROOT
BRANCH   1  15
ATOM     15  C   UNL     1       2.142   3.221  21.581  0.00  0.00    +0.000 C 
ATOM     16  F   UNL     1       1.110   2.534  22.147  0.00  0.00    +0.000 F 
ATOM     17  F   UNL     1       3.176   2.353  21.481  0.00  0.00    +0.000 F 
ATOM     18  F   UNL     1       2.505   4.162  22.485  0.00  0.00    +0.000 F 
ENDBRANCH   1  15
BRANCH   1  19
ATOM     19  O   UNL     1       0.356   3.427  19.823  0.00  0.00    +0.000 OA
ATOM     20  H   UNL     1      -0.240   3.699  20.543  0.00  0.00    +0.000 HD
ENDBRANCH   1  19
TORSDOF 2
ENDMDL
MODEL 6
REMARK VINA RESULT:      -6.5      1.653      2.524
REMARK  Name = 
REMARK  2 active torsions:
REMARK  status: ('A' for Active; 'I' for Inactive)
REMARK    1  A    between atoms: O_1  and  C_2
REMARK    2  A    between atoms: C_2  and  C_3
REMARK                            x       y       z     vdW  Elec       q    Type
REMARK                         _______ _______ _______ _____ _____    ______ ____
ROOT
ATOM      1  C   UNL     1       2.676   5.066  19.724  0.00  0.00    +0.000 C 
ATOM      2  C   UNL     1       3.502   5.382  18.484  0.00  0.00    +0.000 A 
ATOM      3  C   UNL     1       4.342   4.519  17.784  0.00  0.00    +0.000 A 
ATOM      4  C   UNL     1       5.002   5.008  16.658  0.00  0.00    +0.000 A 
ATOM      5  C   UNL     1       4.822   6.334  16.255  0.00  0.00    +0.000 A 
ATOM      6  C   UNL     1       3.984   7.199  16.971  0.00  0.00    +0.000 A 
ATOM      7  C   UNL     1       3.316   6.730  18.094  0.00  0.00    +0.000 A 
ATOM      8  C   UNL     1       2.405   7.380  19.032  0.00  0.00    +0.000 A 
ATOM      9  C   UNL     1       1.891   8.670  19.136  0.00  0.00    +0.000 A 
ATOM     10 BR   UNL     1       2.270  10.073  17.923  0.00  0.00    +0.000 Br
ATOM     11  C   UNL     1       1.029   8.981  20.201  0.00  0.00    +0.000 A 
ATOM     12  C   UNL     1       0.686   8.024  21.164  0.00  0.00    +0.000 A 
ATOM     13  C   UNL     1       1.192   6.733  21.077  0.00  0.00    +0.000 A 
ATOM     14  C   UNL     1       2.030   6.420  20.009  0.00  0.00    +0.000 A 
ENDROOT
BRANCH   1  15
ATOM     15  C   UNL     1       1.642   3.913  19.509  0.00  0.00    +0.000 C 
ATOM     16  F   UNL     1       2.286   2.712  19.515  0.00  0.00    +0.000 F 
ATOM     17  F   UNL     1       0.690   3.845  20.469  0.00  0.00    +0.000 F 
ATOM     18  F   UNL     1       0.997   3.985  18.321  0.00  0.00    +0.000 F 
ENDBRANCH   1  15
BRANCH   1  19
ATOM     19  O   UNL     1       3.602   4.816  20.799  0.00  0.00    +0.000 OA
ATOM     20  H   UNL     1       4.488   4.758  20.400  0.00  0.00    +0.000 HD
ENDBRANCH   1  19
TORSDOF 2
ENDMDL
MODEL 7
REMARK VINA RESULT:      -6.3      3.426      4.048
REMARK  Name = 
REMARK  2 active torsions:
REMARK  status: ('A' for Active; 'I' for Inactive)
REMARK    1  A    between atoms: O_1  and  C_2
REMARK    2  A    between atoms: C_2  and  C_3
REMARK                            x       y       z     vdW  Elec       q    Type
REMARK                         _______ _______ _______ _____ _____    ______ ____
ROOT
ATOM      1  C   UNL     1       6.187   6.083  17.748  0.00  0.00    +0.000 C 
ATOM      2  C   UNL     1       6.256   5.338  16.421  0.00  0.00    +0.000 A 
ATOM      3  C   UNL     1       7.168   5.534  15.386  0.00  0.00    +0.000 A 
ATOM      4  C   UNL     1       7.065   4.729  14.253  0.00  0.00    +0.000 A 
ATOM      5  C   UNL     1       6.064   3.758  14.165  0.00  0.00    +0.000 A 
ATOM      6  C   UNL     1       5.144   3.575  15.206  0.00  0.00    +0.000 A 
ATOM      7  C   UNL     1       5.232   4.365  16.344  0.00  0.00    +0.000 A 
ATOM      8  C   UNL     1       4.429   4.416  17.563  0.00  0.00    +0.000 A 
ATOM      9  C   UNL     1       3.315   3.711  18.011  0.00  0.00    +0.000 A 
ATOM     10 BR   UNL     1       2.472   2.318  17.046  0.00  0.00    +0.000 Br
ATOM     11  C   UNL     1       2.757   4.030  19.260  0.00  0.00    +0.000 A 
ATOM     12  C   UNL     1       3.292   5.050  20.057  0.00  0.00    +0.000 A 
ATOM     13  C   UNL     1       4.402   5.766  19.624  0.00  0.00    +0.000 A 
ATOM     14  C   UNL     1       4.966   5.434  18.394  0.00  0.00    +0.000 A 
ENDROOT
BRANCH   1  15
ATOM     15  C   UNL     1       7.490   5.958  18.604  0.00  0.00    +0.000 C 
ATOM     16  F   UNL     1       8.183   4.847  18.225  0.00  0.00    +0.000 F 
ATOM     17  F   UNL     1       8.336   7.006  18.469  0.00  0.00    +0.000 F 
ATOM     18  F   UNL     1       7.249   5.815  19.929  0.00  0.00    +0.000 F 
ENDBRANCH   1  15
BRANCH   1  19
ATOM     19  O   UNL     1       5.822   7.445  17.450  0.00  0.00    +0.000 OA
ATOM     20  H   UNL     1       4.896   7.430  17.152  0.00  0.00    +0.000 HD
ENDBRANCH   1  19
TORSDOF 2
ENDMDL
