MODEL 1
REMARK VINA RESULT:      -7.0      0.000      0.000
REMARK  Name = 
REMARK  7 active torsions:
REMARK  status: ('A' for Active; 'I' for Inactive)
REMARK    1  A    between atoms: C_1  and  C_2
REMARK    2  A    between atoms: C_2  and  C_3
REMARK    3  A    between atoms: C_2  and  N_4
REMARK    4  A    between atoms: N_7  and  CA_8
REMARK    5  A    between atoms: C_14  and  C_15
REMARK    6  A    between atoms: C_14  and  C_16
REMARK    7  A    between atoms: CA_17  and  C_18
REMARK                            x       y       z     vdW  Elec       q    Type
REMARK                         _______ _______ _______ _____ _____    ______ ____
ROOT
ATOM      1  CA  UNL     1       6.531   4.054  16.288  0.00  0.00    +0.000 C 
ATOM      2  C   UNL     1       6.579   4.560  17.761  0.00  0.00    +0.000 C 
ATOM      3  O   UNL     1       7.437   4.733  18.589  0.00  0.00    +0.000 OA
ATOM      4  N   UNL     1       5.249   4.591  17.782  0.00  0.00    +0.000 N 
ATOM      5  C   UNL     1       5.022   4.393  16.374  0.00  0.00    +0.000 C 
ATOM      6  S   UNL     1       3.762   3.079  16.459  0.00  0.00    +0.000 S 
ATOM      7  C   UNL     1       3.064   3.789  18.106  0.00  0.00    +0.000 C 
ATOM      8  C   UNL     1       1.681   4.385  17.820  0.00  0.00    +0.000 C 
ATOM      9  C   UNL     1       2.907   2.577  19.040  0.00  0.00    +0.000 C 
ATOM     10  CA  UNL     1       4.113   4.806  18.647  0.00  0.00    +0.000 C 
ENDROOT
BRANCH   1  14
ATOM     11  N   UNL     1       6.294   3.761  13.553  0.00  0.00    +0.000 N 
ATOM     12  C   UNL     1       7.125   4.782  13.939  0.00  0.00    +0.000 C 
ATOM     13  O   UNL     1       7.672   5.572  13.188  0.00  0.00    +0.000 OA
ATOM     14  N   UNL     1       7.304   4.847  15.294  0.00  0.00    +0.000 N 
ATOM     15  H   UNL     1       6.289   2.962  14.156  0.00  0.00    +0.000 HD
ATOM     16  H   UNL     1       7.982   5.538  15.599  0.00  0.00    +0.000 HD
BRANCH  11  18
ATOM     17  C   UNL     1       6.871   2.187  11.805  0.00  0.00    +0.000 C 
ATOM     18  C   UNL     1       6.101   3.460  12.153  0.00  0.00    +0.000 C 
ATOM     19  C   UNL     1       4.618   3.319  11.830  0.00  0.00    +0.000 C 
ENDBRANCH  11  18
ENDBRANCH   1  14
BRANCH  10  20
ATOM     20  C   UNL     1       3.666   6.300  18.618  0.00  0.00    +0.000 C 
ATOM     21  O   UNL     1       4.060   6.987  17.620  0.00  0.00    +0.000 OA
ATOM     22  OXT UNL     1       2.961   6.668  19.600  0.00  0.00    +0.000 OA
ENDBRANCH  10  20
TORSDOF 3
ENDMDL
MODEL 2
REMARK VINA RESULT:      -6.7      3.951      7.310
REMARK  Name = 
REMARK  7 active torsions:
REMARK  status: ('A' for Active; 'I' for Inactive)
REMARK    1  A    between atoms: C_1  and  C_2
REMARK    2  A    between atoms: C_2  and  C_3
REMARK    3  A    between atoms: C_2  and  N_4
REMARK    4  A    between atoms: N_7  and  CA_8
REMARK    5  A    between atoms: C_14  and  C_15
REMARK    6  A    between atoms: C_14  and  C_16
REMARK    7  A    between atoms: CA_17  and  C_18
REMARK                            x       y       z     vdW  Elec       q    Type
REMARK                         _______ _______ _______ _____ _____    ______ ____
ROOT
ATOM      1  CA  UNL     1       1.734   6.740  20.096  0.00  0.00    +0.000 C 
ATOM      2  C   UNL     1       2.563   6.955  18.794  0.00  0.00    +0.000 C 
ATOM      3  O   UNL     1       2.645   7.814  17.953  0.00  0.00    +0.000 OA
ATOM      4  N   UNL     1       3.049   5.723  18.914  0.00  0.00    +0.000 N 
ATOM      5  C   UNL     1       2.577   5.449  20.246  0.00  0.00    +0.000 C 
ATOM      6  S   UNL     1       1.842   3.805  19.967  0.00  0.00    +0.000 S 
ATOM      7  C   UNL     1       3.154   3.393  18.622  0.00  0.00    +0.000 C 
ATOM      8  C   UNL     1       4.088   2.313  19.180  0.00  0.00    +0.000 C 
ATOM      9  C   UNL     1       2.360   2.810  17.440  0.00  0.00    +0.000 C 
ATOM     10  CA  UNL     1       3.858   4.731  18.244  0.00  0.00    +0.000 C 
ENDROOT
BRANCH   1  14
ATOM     11  N   UNL     1       0.684   9.292  20.028  0.00  0.00    +0.000 N 
ATOM     12  C   UNL     1       1.329   8.981  21.197  0.00  0.00    +0.000 C 
ATOM     13  O   UNL     1       1.393   9.697  22.183  0.00  0.00    +0.000 OA
ATOM     14  N   UNL     1       1.925   7.751  21.172  0.00  0.00    +0.000 N 
ATOM     15  H   UNL     1       1.066   8.874  19.203  0.00  0.00    +0.000 HD
ATOM     16  H   UNL     1       2.482   7.532  21.992  0.00  0.00    +0.000 HD
BRANCH  11  18
ATOM     17  C   UNL     1       1.152  11.502  19.153  0.00  0.00    +0.000 C 
ATOM     18  C   UNL     1       0.115  10.606  19.828  0.00  0.00    +0.000 C 
ATOM     19  C   UNL     1      -1.167  10.521  19.008  0.00  0.00    +0.000 C 
ENDBRANCH  11  18
ENDBRANCH   1  14
BRANCH  10  20
ATOM     20  C   UNL     1       5.351   4.843  18.681  0.00  0.00    +0.000 C 
ATOM     21  O   UNL     1       5.566   5.362  19.824  0.00  0.00    +0.000 OA
ATOM     22  OXT UNL     1       6.189   4.408  17.842  0.00  0.00    +0.000 OA
ENDBRANCH  10  20
TORSDOF 3
ENDMDL
MODEL 3
REMARK VINA RESULT:      -6.6      0.636      1.217
REMARK  Name = 
REMARK  7 active torsions:
REMARK  status: ('A' for Active; 'I' for Inactive)
REMARK    1  A    between atoms: C_1  and  C_2
REMARK    2  A    between atoms: C_2  and  C_3
REMARK    3  A    between atoms: C_2  and  N_4
REMARK    4  A    between atoms: N_7  and  CA_8
REMARK    5  A    between atoms: C_14  and  C_15
REMARK    6  A    between atoms: C_14  and  C_16
REMARK    7  A    between atoms: CA_17  and  C_18
REMARK                            x       y       z     vdW  Elec       q    Type
REMARK                         _______ _______ _______ _____ _____    ______ ____
ROOT
ATOM      1  CA  UNL     1       6.461   4.223  16.826  0.00  0.00    +0.000 C 
ATOM      2  C   UNL     1       6.425   4.854  18.250  0.00  0.00    +0.000 C 
ATOM      3  O   UNL     1       7.242   5.188  19.070  0.00  0.00    +0.000 OA
ATOM      4  N   UNL     1       5.099   4.744  18.252  0.00  0.00    +0.000 N 
ATOM      5  C   UNL     1       4.924   4.405  16.864  0.00  0.00    +0.000 C 
ATOM      6  S   UNL     1       3.808   2.975  17.048  0.00  0.00    +0.000 S 
ATOM      7  C   UNL     1       3.005   3.743  18.618  0.00  0.00    +0.000 C 
ATOM      8  C   UNL     1       1.572   4.161  18.266  0.00  0.00    +0.000 C 
ATOM      9  C   UNL     1       2.957   2.605  19.652  0.00  0.00    +0.000 C 
ATOM     10  CA  UNL     1       3.929   4.909  19.082  0.00  0.00    +0.000 C 
ENDROOT
BRANCH   1  14
ATOM     11  N   UNL     1       6.309   3.681  14.123  0.00  0.00    +0.000 N 
ATOM     12  C   UNL     1       7.022   4.811  14.430  0.00  0.00    +0.000 C 
ATOM     13  O   UNL     1       7.498   5.590  13.621  0.00  0.00    +0.000 OA
ATOM     14  N   UNL     1       7.167   5.007  15.776  0.00  0.00    +0.000 N 
ATOM     15  H   UNL     1       6.374   2.939  14.792  0.00  0.00    +0.000 HD
ATOM     16  H   UNL     1       7.763   5.788  16.029  0.00  0.00    +0.000 HD
BRANCH  11  18
ATOM     17  C   UNL     1       4.777   3.605  12.248  0.00  0.00    +0.000 C 
ATOM     18  C   UNL     1       6.174   3.246  12.752  0.00  0.00    +0.000 C 
ATOM     19  C   UNL     1       7.258   3.868  11.879  0.00  0.00    +0.000 C 
ENDBRANCH  11  18
ENDBRANCH   1  14
BRANCH  10  20
ATOM     20  C   UNL     1       3.327   6.339  18.919  0.00  0.00    +0.000 C 
ATOM     21  O   UNL     1       2.583   6.748  19.868  0.00  0.00    +0.000 OA
ATOM     22  OXT UNL     1       3.642   6.934  17.850  0.00  0.00    +0.000 OA
ENDBRANCH  10  20
TORSDOF 3
ENDMDL
MODEL 4
REMARK VINA RESULT:      -6.3      2.614      6.284
REMARK  Name = 
REMARK  7 active torsions:
REMARK  status: ('A' for Active; 'I' for Inactive)
REMARK    1  A    between atoms: C_1  and  C_2
REMARK    2  A    between atoms: C_2  and  C_3
REMARK    3  A    between atoms: C_2  and  N_4
REMARK    4  A    between atoms: N_7  and  CA_8
REMARK    5  A    between atoms: C_14  and  C_15
REMARK    6  A    between atoms: C_14  and  C_16
REMARK    7  A    between atoms: CA_17  and  C_18
REMARK                            x       y       z     vdW  Elec       q    Type
REMARK                         _______ _______ _______ _____ _____    ______ ____
ROOT
ATOM      1  CA  UNL     1       2.948   6.131  18.066  0.00  0.00    +0.000 C 
ATOM      2  C   UNL     1       3.663   7.349  17.408  0.00  0.00    +0.000 C 
ATOM      3  O   UNL     1       3.354   8.471  17.100  0.00  0.00    +0.000 OA
ATOM      4  N   UNL     1       4.733   6.588  17.190  0.00  0.00    +0.000 N 
ATOM      5  C   UNL     1       4.340   5.456  17.989  0.00  0.00    +0.000 C 
ATOM      6  S   UNL     1       4.677   4.120  16.796  0.00  0.00    +0.000 S 
ATOM      7  C   UNL     1       6.144   5.105  16.034  0.00  0.00    +0.000 C 
ATOM      8  C   UNL     1       7.447   4.394  16.416  0.00  0.00    +0.000 C 
ATOM      9  C   UNL     1       5.950   5.017  14.511  0.00  0.00    +0.000 C 
ATOM     10  CA  UNL     1       6.027   6.572  16.549  0.00  0.00    +0.000 C 
ENDROOT
BRANCH   1  14
ATOM     11  N   UNL     1       1.636   4.196  19.535  0.00  0.00    +0.000 N 
ATOM     12  C   UNL     1       1.858   5.366  20.216  0.00  0.00    +0.000 C 
ATOM     13  O   UNL     1       1.595   5.561  21.391  0.00  0.00    +0.000 OA
ATOM     14  N   UNL     1       2.420   6.342  19.442  0.00  0.00    +0.000 N 
ATOM     15  H   UNL     1       1.465   4.298  18.554  0.00  0.00    +0.000 HD
ATOM     16  H   UNL     1       2.515   7.244  19.898  0.00  0.00    +0.000 HD
BRANCH  11  18
ATOM     17  C   UNL     1       0.576   2.063  19.098  0.00  0.00    +0.000 C 
ATOM     18  C   UNL     1       0.925   3.104  20.159  0.00  0.00    +0.000 C 
ATOM     19  C   UNL     1       1.752   2.495  21.286  0.00  0.00    +0.000 C 
ENDBRANCH  11  18
ENDBRANCH   1  14
BRANCH  10  20
ATOM     20  C   UNL     1       7.145   7.019  17.541  0.00  0.00    +0.000 C 
ATOM     21  O   UNL     1       7.225   6.365  18.631  0.00  0.00    +0.000 OA
ATOM     22  OXT UNL     1       7.849   7.993  17.151  0.00  0.00    +0.000 OA
ENDBRANCH  10  20
TORSDOF 3
ENDMDL
MODEL 5
REMARK VINA RESULT:      -6.2      4.226      7.690
REMARK  Name = 
REMARK  7 active torsions:
REMARK  status: ('A' for Active; 'I' for Inactive)
REMARK    1  A    between atoms: C_1  and  C_2
REMARK    2  A    between atoms: C_2  and  C_3
REMARK    3  A    between atoms: C_2  and  N_4
REMARK    4  A    between atoms: N_7  and  CA_8
REMARK    5  A    between atoms: C_14  and  C_15
REMARK    6  A    between atoms: C_14  and  C_16
REMARK    7  A    between atoms: CA_17  and  C_18
REMARK                            x       y       z     vdW  Elec       q    Type
REMARK                         _______ _______ _______ _____ _____    ______ ____
ROOT
ATOM      1  CA  UNL     1       2.293   8.324  18.523  0.00  0.00    +0.000 C 
ATOM      2  C   UNL     1       2.020   7.307  19.672  0.00  0.00    +0.000 C 
ATOM      3  O   UNL     1       1.565   7.362  20.786  0.00  0.00    +0.000 OA
ATOM      4  N   UNL     1       2.632   6.361  18.965  0.00  0.00    +0.000 N 
ATOM      5  C   UNL     1       2.732   7.075  17.719  0.00  0.00    +0.000 C 
ATOM      6  S   UNL     1       4.487   6.765  17.339  0.00  0.00    +0.000 S 
ATOM      7  C   UNL     1       4.417   5.041  18.191  0.00  0.00    +0.000 C 
ATOM      8  C   UNL     1       4.524   3.966  17.104  0.00  0.00    +0.000 C 
ATOM      9  C   UNL     1       5.665   4.976  19.089  0.00  0.00    +0.000 C 
ATOM     10  CA  UNL     1       3.100   4.996  19.025  0.00  0.00    +0.000 C 
ENDROOT
BRANCH   1  14
ATOM     11  N   UNL     1       0.780  10.122  19.972  0.00  0.00    +0.000 N 
ATOM     12  C   UNL     1       0.409  10.007  18.656  0.00  0.00    +0.000 C 
ATOM     13  O   UNL     1      -0.449  10.673  18.102  0.00  0.00    +0.000 OA
ATOM     14  N   UNL     1       1.107   9.042  17.983  0.00  0.00    +0.000 N 
ATOM     15  H   UNL     1       1.121   9.281  20.395  0.00  0.00    +0.000 HD
ATOM     16  H   UNL     1       0.793   8.877  17.032  0.00  0.00    +0.000 HD
BRANCH  11  18
ATOM     17  C   UNL     1      -0.097  10.308  22.222  0.00  0.00    +0.000 C 
ATOM     18  C   UNL     1       0.055  10.995  20.866  0.00  0.00    +0.000 C 
ATOM     19  C   UNL     1       0.763  12.339  21.000  0.00  0.00    +0.000 C 
ENDBRANCH  11  18
ENDBRANCH   1  14
BRANCH  10  20
ATOM     20  C   UNL     1       2.013   4.010  18.496  0.00  0.00    +0.000 C 
ATOM     21  O   UNL     1       1.329   4.409  17.498  0.00  0.00    +0.000 OA
ATOM     22  OXT UNL     1       1.927   2.919  19.127  0.00  0.00    +0.000 OA
ENDBRANCH  10  20
TORSDOF 3
ENDMDL
MODEL 6
REMARK VINA RESULT:      -6.0      4.771      7.019
REMARK  Name = 
REMARK  7 active torsions:
REMARK  status: ('A' for Active; 'I' for Inactive)
REMARK    1  A    between atoms: C_1  and  C_2
REMARK    2  A    between atoms: C_2  and  C_3
REMARK    3  A    between atoms: C_2  and  N_4
REMARK    4  A    between atoms: N_7  and  CA_8
REMARK    5  A    between atoms: C_14  and  C_15
REMARK    6  A    between atoms: C_14  and  C_16
REMARK    7  A    between atoms: CA_17  and  C_18
REMARK                            x       y       z     vdW  Elec       q    Type
REMARK                         _______ _______ _______ _____ _____    ______ ____
ROOT
ATOM      1  CA  UNL     1       3.061   6.711  19.023  0.00  0.00    +0.000 C 
ATOM      2  C   UNL     1       2.030   5.973  19.929  0.00  0.00    +0.000 C 
ATOM      3  O   UNL     1       1.296   6.281  20.834  0.00  0.00    +0.000 OA
ATOM      4  N   UNL     1       2.396   4.816  19.384  0.00  0.00    +0.000 N 
ATOM      5  C   UNL     1       3.187   5.345  18.303  0.00  0.00    +0.000 C 
ATOM      6  S   UNL     1       4.677   4.312  18.494  0.00  0.00    +0.000 S 
ATOM      7  C   UNL     1       3.626   2.830  19.128  0.00  0.00    +0.000 C 
ATOM      8  C   UNL     1       3.636   1.741  18.048  0.00  0.00    +0.000 C 
ATOM      9  C   UNL     1       4.361   2.309  20.375  0.00  0.00    +0.000 C 
ATOM     10  CA  UNL     1       2.213   3.387  19.478  0.00  0.00    +0.000 C 
ENDROOT
BRANCH   1  14
ATOM     11  N   UNL     1       1.619   8.844  20.019  0.00  0.00    +0.000 N 
ATOM     12  C   UNL     1       1.898   8.931  18.680  0.00  0.00    +0.000 C 
ATOM     13  O   UNL     1       1.631   9.880  17.961  0.00  0.00    +0.000 OA
ATOM     14  N   UNL     1       2.527   7.821  18.188  0.00  0.00    +0.000 N 
ATOM     15  H   UNL     1       1.467   7.917  20.365  0.00  0.00    +0.000 HD
ATOM     16  H   UNL     1       2.668   7.823  17.182  0.00  0.00    +0.000 HD
BRANCH  11  18
ATOM     17  C   UNL     1      -0.561   9.899  20.062  0.00  0.00    +0.000 C 
ATOM     18  C   UNL     1       0.837   9.867  20.676  0.00  0.00    +0.000 C 
ATOM     19  C   UNL     1       0.779   9.621  22.179  0.00  0.00    +0.000 C 
ENDBRANCH  11  18
ENDBRANCH   1  14
BRANCH  10  20
ATOM     20  C   UNL     1       1.060   2.910  18.541  0.00  0.00    +0.000 C 
ATOM     21  O   UNL     1       0.407   1.887  18.928  0.00  0.00    +0.000 OA
ATOM     22  OXT UNL     1       0.906   3.594  17.490  0.00  0.00    +0.000 OA
ENDBRANCH  10  20
TORSDOF 3
ENDMDL
MODEL 7
REMARK VINA RESULT:      -6.0      3.232      6.935
REMARK  Name = 
REMARK  7 active torsions:
REMARK  status: ('A' for Active; 'I' for Inactive)
REMARK    1  A    between atoms: C_1  and  C_2
REMARK    2  A    between atoms: C_2  and  C_3
REMARK    3  A    between atoms: C_2  and  N_4
REMARK    4  A    between atoms: N_7  and  CA_8
REMARK    5  A    between atoms: C_14  and  C_15
REMARK    6  A    between atoms: C_14  and  C_16
REMARK    7  A    between atoms: CA_17  and  C_18
REMARK                            x       y       z     vdW  Elec       q    Type
REMARK                         _______ _______ _______ _____ _____    ______ ____
ROOT
ATOM      1  CA  UNL     1       2.766   6.577  18.668  0.00  0.00    +0.000 C 
ATOM      2  C   UNL     1       3.457   7.624  17.744  0.00  0.00    +0.000 C 
ATOM      3  O   UNL     1       3.177   8.712  17.309  0.00  0.00    +0.000 OA
ATOM      4  N   UNL     1       4.437   6.755  17.512  0.00  0.00    +0.000 N 
ATOM      5  C   UNL     1       4.090   5.787  18.519  0.00  0.00    +0.000 C 
ATOM      6  S   UNL     1       4.176   4.270  17.513  0.00  0.00    +0.000 S 
ATOM      7  C   UNL     1       5.580   5.011  16.428  0.00  0.00    +0.000 C 
ATOM      8  C   UNL     1       6.878   4.258  16.745  0.00  0.00    +0.000 C 
ATOM      9  C   UNL     1       5.172   4.720  14.973  0.00  0.00    +0.000 C 
ATOM     10  CA  UNL     1       5.626   6.542  16.721  0.00  0.00    +0.000 C 
ENDROOT
BRANCH   1  14
ATOM     11  N   UNL     1       1.190   8.764  19.261  0.00  0.00    +0.000 N 
ATOM     12  C   UNL     1       1.590   8.046  20.358  0.00  0.00    +0.000 C 
ATOM     13  O   UNL     1       1.244   8.260  21.509  0.00  0.00    +0.000 OA
ATOM     14  N   UNL     1       2.448   7.027  20.051  0.00  0.00    +0.000 N 
ATOM     15  H   UNL     1       1.847   8.796  18.507  0.00  0.00    +0.000 HD
ATOM     16  H   UNL     1       2.827   6.534  20.853  0.00  0.00    +0.000 HD
BRANCH  11  18
ATOM     17  C   UNL     1       1.305  11.183  19.343  0.00  0.00    +0.000 C 
ATOM     18  C   UNL     1       0.392   9.960  19.414  0.00  0.00    +0.000 C 
ATOM     19  C   UNL     1      -0.702  10.019  18.355  0.00  0.00    +0.000 C 
ENDBRANCH  11  18
ENDBRANCH   1  14
BRANCH  10  20
ATOM     20  C   UNL     1       6.897   7.034  17.481  0.00  0.00    +0.000 C 
ATOM     21  O   UNL     1       7.563   7.963  16.920  0.00  0.00    +0.000 OA
ATOM     22  OXT UNL     1       7.128   6.446  18.575  0.00  0.00    +0.000 OA
ENDBRANCH  10  20
TORSDOF 3
ENDMDL
MODEL 8
REMARK VINA RESULT:      -5.9      3.720      7.205
REMARK  Name = 
REMARK  7 active torsions:
REMARK  status: ('A' for Active; 'I' for Inactive)
REMARK    1  A    between atoms: C_1  and  C_2
REMARK    2  A    between atoms: C_2  and  C_3
REMARK    3  A    between atoms: C_2  and  N_4
REMARK    4  A    between atoms: N_7  and  CA_8
REMARK    5  A    between atoms: C_14  and  C_15
REMARK    6  A    between atoms: C_14  and  C_16
REMARK    7  A    between atoms: CA_17  and  C_18
REMARK                            x       y       z     vdW  Elec       q    Type
REMARK                         _______ _______ _______ _____ _____    ______ ____
ROOT
ATOM      1  CA  UNL     1       2.958   7.890  18.207  0.00  0.00    +0.000 C 
ATOM      2  C   UNL     1       2.793   6.726  19.230  0.00  0.00    +0.000 C 
ATOM      3  O   UNL     1       2.249   6.581  20.295  0.00  0.00    +0.000 OA
ATOM      4  N   UNL     1       3.627   5.986  18.505  0.00  0.00    +0.000 N 
ATOM      5  C   UNL     1       3.687   6.832  17.342  0.00  0.00    +0.000 C 
ATOM      6  S   UNL     1       5.494   6.886  17.109  0.00  0.00    +0.000 S 
ATOM      7  C   UNL     1       5.685   5.099  17.796  0.00  0.00    +0.000 C 
ATOM      8  C   UNL     1       6.080   4.180  16.634  0.00  0.00    +0.000 C 
ATOM      9  C   UNL     1       6.847   5.167  18.801  0.00  0.00    +0.000 C 
ATOM     10  CA  UNL     1       4.339   4.729  18.490  0.00  0.00    +0.000 C 
ENDROOT
BRANCH   1  14
ATOM     11  N   UNL     1       1.124   9.407  19.605  0.00  0.00    +0.000 N 
ATOM     12  C   UNL     1       0.837   9.267  18.271  0.00  0.00    +0.000 C 
ATOM     13  O   UNL     1      -0.084   9.809  17.685  0.00  0.00    +0.000 OA
ATOM     14  N   UNL     1       1.703   8.434  17.619  0.00  0.00    +0.000 N 
ATOM     15  H   UNL     1       1.568   8.618  20.032  0.00  0.00    +0.000 HD
ATOM     16  H   UNL     1       1.463   8.245  16.651  0.00  0.00    +0.000 HD
BRANCH  11  18
ATOM     17  C   UNL     1      -0.086   9.286  21.699  0.00  0.00    +0.000 C 
ATOM     18  C   UNL     1       0.235  10.142  20.475  0.00  0.00    +0.000 C 
ATOM     19  C   UNL     1       0.852  11.477  20.876  0.00  0.00    +0.000 C 
ENDBRANCH  11  18
ENDBRANCH   1  14
BRANCH  10  20
ATOM     20  C   UNL     1       3.503   3.624  17.774  0.00  0.00    +0.000 C 
ATOM     21  O   UNL     1       2.618   4.030  16.953  0.00  0.00    +0.000 OA
ATOM     22  OXT UNL     1       3.797   2.438  18.096  0.00  0.00    +0.000 OA
ENDBRANCH  10  20
TORSDOF 3
ENDMDL
MODEL 9
REMARK VINA RESULT:      -5.8      3.952      7.452
REMARK  Name = 
REMARK  7 active torsions:
REMARK  status: ('A' for Active; 'I' for Inactive)
REMARK    1  A    between atoms: C_1  and  C_2
REMARK    2  A    between atoms: C_2  and  C_3
REMARK    3  A    between atoms: C_2  and  N_4
REMARK    4  A    between atoms: N_7  and  CA_8
REMARK    5  A    between atoms: C_14  and  C_15
REMARK    6  A    between atoms: C_14  and  C_16
REMARK    7  A    between atoms: CA_17  and  C_18
REMARK                            x       y       z     vdW  Elec       q    Type
REMARK                         _______ _______ _______ _____ _____    ______ ____
ROOT
ATOM      1  CA  UNL     1       1.730   6.784  20.082  0.00  0.00    +0.000 C 
ATOM      2  C   UNL     1       2.516   6.992  18.752  0.00  0.00    +0.000 C 
ATOM      3  O   UNL     1       2.566   7.841  17.900  0.00  0.00    +0.000 OA
ATOM      4  N   UNL     1       3.016   5.764  18.870  0.00  0.00    +0.000 N 
ATOM      5  C   UNL     1       2.588   5.502  20.219  0.00  0.00    +0.000 C 
ATOM      6  S   UNL     1       1.858   3.849  19.982  0.00  0.00    +0.000 S 
ATOM      7  C   UNL     1       3.132   3.432  18.601  0.00  0.00    +0.000 C 
ATOM      8  C   UNL     1       4.092   2.366  19.141  0.00  0.00    +0.000 C 
ATOM      9  C   UNL     1       2.307   2.830  17.450  0.00  0.00    +0.000 C 
ATOM     10  CA  UNL     1       3.813   4.772  18.187  0.00  0.00    +0.000 C 
ENDROOT
BRANCH   1  14
ATOM     11  N   UNL     1       0.734   9.357  19.974  0.00  0.00    +0.000 N 
ATOM     12  C   UNL     1       1.376   9.052  21.146  0.00  0.00    +0.000 C 
ATOM     13  O   UNL     1       1.459   9.783  22.119  0.00  0.00    +0.000 OA
ATOM     14  N   UNL     1       1.945   7.808  21.140  0.00  0.00    +0.000 N 
ATOM     15  H   UNL     1       1.106   8.917  19.155  0.00  0.00    +0.000 HD
ATOM     16  H   UNL     1       2.500   7.591  21.962  0.00  0.00    +0.000 HD
BRANCH  11  18
ATOM     17  C   UNL     1      -0.947  10.923  20.740  0.00  0.00    +0.000 C 
ATOM     18  C   UNL     1       0.194  10.679  19.754  0.00  0.00    +0.000 C 
ATOM     19  C   UNL     1       1.282  11.738  19.889  0.00  0.00    +0.000 C 
ENDBRANCH  11  18
ENDBRANCH   1  14
BRANCH  10  20
ATOM     20  C   UNL     1       5.318   4.901  18.577  0.00  0.00    +0.000 C 
ATOM     21  O   UNL     1       6.158   4.453  17.731  0.00  0.00    +0.000 OA
ATOM     22  OXT UNL     1       5.536   5.434  19.701  0.00  0.00    +0.000 OA
ENDBRANCH  10  20
TORSDOF 3
ENDMDL
