MODEL 1
REMARK VINA RESULT:      -7.0      0.000      0.000
REMARK  Name = 
REMARK  10 active torsions:
REMARK  status: ('A' for Active; 'I' for Inactive)
REMARK    1  A    between atoms: C_1  and  O_2
REMARK    2  A    between atoms: O_2  and  C_3
REMARK    3  A    between atoms: C_6  and  C_7
REMARK    4  A    between atoms: N_9  and  N_10
REMARK    5  A    between atoms: N_10  and  C_19
REMARK    6  A    between atoms: C_11  and  C_13
REMARK    7  A    between atoms: C_17  and  C_18
REMARK    8  A    between atoms: C_19  and  C_20
REMARK    9  A    between atoms: C_19  and  C_21
REMARK   10  A    between atoms: C_19  and  C_22
REMARK                            x       y       z     vdW  Elec       q    Type
REMARK                         _______ _______ _______ _____ _____    ______ ____
ROOT
ATOM      1  N   UNL     1       3.888   5.562  18.785  0.00  0.00    +0.000 N 
ATOM      2  C   UNL     1       4.836   6.180  17.895  0.00  0.00    +0.000 C 
ATOM      3  O   UNL     1       4.899   7.422  17.906  0.00  0.00    +0.000 OA
ENDROOT
BRANCH   2   4
ATOM      4  C   UNL     1       5.731   5.470  16.944  0.00  0.00    +0.000 A 
ATOM      5  S   UNL     1       5.472   5.134  15.282  0.00  0.00    +0.000 S 
ATOM      6  N   UNL     1       6.933   4.434  15.005  0.00  0.00    +0.000 NA
ATOM      7  N   UNL     1       7.686   4.426  16.079  0.00  0.00    +0.000 NA
ATOM      8  C   UNL     1       7.041   5.011  17.172  0.00  0.00    +0.000 A 
ATOM      9  C   UNL     1       7.844   5.052  18.420  0.00  0.00    +0.000 C 
ENDBRANCH   2   4
BRANCH   1  12
ATOM     10  C   UNL     1       2.119   7.316  18.991  0.00  0.00    +0.000 C 
ATOM     11  O   UNL     1       1.752   7.241  17.821  0.00  0.00    +0.000 OA
ATOM     12  N   UNL     1       3.052   6.459  19.580  0.00  0.00    +0.000 N 
ATOM     13  H   UNL     1       3.402   6.666  20.504  0.00  0.00    +0.000 HD
BRANCH  10  17
ATOM     14  C   UNL     1       0.455  10.409  21.563  0.00  0.00    +0.000 A 
ATOM     15  C   UNL     1       0.637  10.657  20.201  0.00  0.00    +0.000 A 
ATOM     16  C   UNL     1       1.215   9.694  19.352  0.00  0.00    +0.000 A 
ATOM     17  C   UNL     1       1.619   8.459  19.858  0.00  0.00    +0.000 A 
ATOM     18  C   UNL     1       1.500   8.239  21.247  0.00  0.00    +0.000 A 
ATOM     19  C   UNL     1       0.920   9.201  22.092  0.00  0.00    +0.000 A 
BRANCH  14  21
ATOM     20  C   UNL     1      -1.266  11.015  23.079  0.00  0.00    +0.000 C 
ATOM     21  O   UNL     1      -0.162  11.401  22.266  0.00  0.00    +0.000 OA
ENDBRANCH  14  21
ENDBRANCH  10  17
ENDBRANCH   1  12
BRANCH   1  22
ATOM     22  C   UNL     1       3.387   4.143  18.822  0.00  0.00    +0.000 C 
ATOM     23  C   UNL     1       2.281   3.840  19.883  0.00  0.00    +0.000 C 
ATOM     24  C   UNL     1       2.672   3.830  17.483  0.00  0.00    +0.000 C 
ATOM     25  C   UNL     1       4.532   3.199  19.250  0.00  0.00    +0.000 C 
ENDBRANCH   1  22
TORSDOF 5
ENDMDL
MODEL 2
REMARK VINA RESULT:      -6.9      0.323      1.030
REMARK  Name = 
REMARK  10 active torsions:
REMARK  status: ('A' for Active; 'I' for Inactive)
REMARK    1  A    between atoms: C_1  and  O_2
REMARK    2  A    between atoms: O_2  and  C_3
REMARK    3  A    between atoms: C_6  and  C_7
REMARK    4  A    between atoms: N_9  and  N_10
REMARK    5  A    between atoms: N_10  and  C_19
REMARK    6  A    between atoms: C_11  and  C_13
REMARK    7  A    between atoms: C_17  and  C_18
REMARK    8  A    between atoms: C_19  and  C_20
REMARK    9  A    between atoms: C_19  and  C_21
REMARK   10  A    between atoms: C_19  and  C_22
REMARK                            x       y       z     vdW  Elec       q    Type
REMARK                         _______ _______ _______ _____ _____    ______ ____
ROOT
ATOM      1  N   UNL     1       3.867   5.586  18.876  0.00  0.00    +0.000 N 
ATOM      2  C   UNL     1       4.826   6.220  18.011  0.00  0.00    +0.000 C 
ATOM      3  O   UNL     1       4.839   7.464  17.993  0.00  0.00    +0.000 OA
ENDROOT
BRANCH   2   4
ATOM      4  C   UNL     1       5.789   5.525  17.115  0.00  0.00    +0.000 A 
ATOM      5  S   UNL     1       5.612   5.135  15.455  0.00  0.00    +0.000 S 
ATOM      6  N   UNL     1       7.111   4.492  15.255  0.00  0.00    +0.000 NA
ATOM      7  N   UNL     1       7.818   4.544  16.358  0.00  0.00    +0.000 NA
ATOM      8  C   UNL     1       7.106   5.129  17.408  0.00  0.00    +0.000 A 
ATOM      9  C   UNL     1       7.855   5.237  18.686  0.00  0.00    +0.000 C 
ENDBRANCH   2   4
BRANCH   1  12
ATOM     10  C   UNL     1       2.058   7.309  18.962  0.00  0.00    +0.000 C 
ATOM     11  O   UNL     1       1.774   7.230  17.770  0.00  0.00    +0.000 OA
ATOM     12  N   UNL     1       2.963   6.467  19.613  0.00  0.00    +0.000 N 
ATOM     13  H   UNL     1       3.245   6.677  20.559  0.00  0.00    +0.000 HD
BRANCH  10  17
ATOM     14  C   UNL     1       0.628  10.728  21.244  0.00  0.00    +0.000 A 
ATOM     15  C   UNL     1       0.955   9.540  21.900  0.00  0.00    +0.000 A 
ATOM     16  C   UNL     1       1.376   8.402  21.185  0.00  0.00    +0.000 A 
ATOM     17  C   UNL     1       1.480   8.441  19.795  0.00  0.00    +0.000 A 
ATOM     18  C   UNL     1       1.080   9.620  19.131  0.00  0.00    +0.000 A 
ATOM     19  C   UNL     1       0.662  10.755  19.846  0.00  0.00    +0.000 A 
BRANCH  14  21
ATOM     20  C   UNL     1      -1.041  11.763  22.577  0.00  0.00    +0.000 C 
ATOM     21  O   UNL     1       0.284  11.772  22.053  0.00  0.00    +0.000 OA
ENDBRANCH  14  21
ENDBRANCH  10  17
ENDBRANCH   1  12
BRANCH   1  22
ATOM     22  C   UNL     1       3.421   4.149  18.928  0.00  0.00    +0.000 C 
ATOM     23  C   UNL     1       2.310   3.819  19.976  0.00  0.00    +0.000 C 
ATOM     24  C   UNL     1       2.743   3.786  17.584  0.00  0.00    +0.000 C 
ATOM     25  C   UNL     1       4.596   3.258  19.391  0.00  0.00    +0.000 C 
ENDBRANCH   1  22
TORSDOF 5
ENDMDL
MODEL 3
REMARK VINA RESULT:      -6.7      0.679      1.530
REMARK  Name = 
REMARK  10 active torsions:
REMARK  status: ('A' for Active; 'I' for Inactive)
REMARK    1  A    between atoms: C_1  and  O_2
REMARK    2  A    between atoms: O_2  and  C_3
REMARK    3  A    between atoms: C_6  and  C_7
REMARK    4  A    between atoms: N_9  and  N_10
REMARK    5  A    between atoms: N_10  and  C_19
REMARK    6  A    between atoms: C_11  and  C_13
REMARK    7  A    between atoms: C_17  and  C_18
REMARK    8  A    between atoms: C_19  and  C_20
REMARK    9  A    between atoms: C_19  and  C_21
REMARK   10  A    between atoms: C_19  and  C_22
REMARK                            x       y       z     vdW  Elec       q    Type
REMARK                         _______ _______ _______ _____ _____    ______ ____
ROOT
ATOM      1  N   UNL     1       3.877   5.670  18.951  0.00  0.00    +0.000 N 
ATOM      2  C   UNL     1       4.831   6.282  18.064  0.00  0.00    +0.000 C 
ATOM      3  O   UNL     1       4.837   7.525  18.006  0.00  0.00    +0.000 OA
ENDROOT
BRANCH   2   4
ATOM      4  C   UNL     1       5.796   5.564  17.190  0.00  0.00    +0.000 A 
ATOM      5  S   UNL     1       5.619   5.121  15.543  0.00  0.00    +0.000 S 
ATOM      6  N   UNL     1       7.121   4.480  15.361  0.00  0.00    +0.000 NA
ATOM      7  N   UNL     1       7.830   4.571  16.461  0.00  0.00    +0.000 NA
ATOM      8  C   UNL     1       7.116   5.185  17.493  0.00  0.00    +0.000 A 
ATOM      9  C   UNL     1       7.866   5.337  18.765  0.00  0.00    +0.000 C 
ENDBRANCH   2   4
BRANCH   1  12
ATOM     10  C   UNL     1       2.049   7.375  18.985  0.00  0.00    +0.000 C 
ATOM     11  O   UNL     1       1.755   7.246  17.800  0.00  0.00    +0.000 OA
ATOM     12  N   UNL     1       2.968   6.569  19.661  0.00  0.00    +0.000 N 
ATOM     13  H   UNL     1       3.256   6.820  20.595  0.00  0.00    +0.000 HD
BRANCH  10  17
ATOM     14  C   UNL     1       0.615  10.857  21.168  0.00  0.00    +0.000 A 
ATOM     15  C   UNL     1       0.846   9.656  21.843  0.00  0.00    +0.000 A 
ATOM     16  C   UNL     1       1.265   8.500  21.157  0.00  0.00    +0.000 A 
ATOM     17  C   UNL     1       1.464   8.532  19.778  0.00  0.00    +0.000 A 
ATOM     18  C   UNL     1       1.161   9.725  19.090  0.00  0.00    +0.000 A 
ATOM     19  C   UNL     1       0.744  10.879  19.776  0.00  0.00    +0.000 A 
BRANCH  14  21
ATOM     20  C   UNL     1       0.344  13.207  21.356  0.00  0.00    +0.000 C 
ATOM     21  O   UNL     1       0.261  11.916  21.953  0.00  0.00    +0.000 OA
ENDBRANCH  14  21
ENDBRANCH  10  17
ENDBRANCH   1  12
BRANCH   1  22
ATOM     22  C   UNL     1       3.440   4.233  19.050  0.00  0.00    +0.000 C 
ATOM     23  C   UNL     1       4.584   3.184  19.217  0.00  0.00    +0.000 C 
ATOM     24  C   UNL     1       2.615   4.050  20.349  0.00  0.00    +0.000 C 
ATOM     25  C   UNL     1       2.776   3.800  17.724  0.00  0.00    +0.000 C 
ENDBRANCH   1  22
TORSDOF 5
ENDMDL
MODEL 4
REMARK VINA RESULT:      -6.4      0.917      1.281
REMARK  Name = 
REMARK  10 active torsions:
REMARK  status: ('A' for Active; 'I' for Inactive)
REMARK    1  A    between atoms: C_1  and  O_2
REMARK    2  A    between atoms: O_2  and  C_3
REMARK    3  A    between atoms: C_6  and  C_7
REMARK    4  A    between atoms: N_9  and  N_10
REMARK    5  A    between atoms: N_10  and  C_19
REMARK    6  A    between atoms: C_11  and  C_13
REMARK    7  A    between atoms: C_17  and  C_18
REMARK    8  A    between atoms: C_19  and  C_20
REMARK    9  A    between atoms: C_19  and  C_21
REMARK   10  A    between atoms: C_19  and  C_22
REMARK                            x       y       z     vdW  Elec       q    Type
REMARK                         _______ _______ _______ _____ _____    ______ ____
ROOT
ATOM      1  N   UNL     1       4.004   5.573  18.968  0.00  0.00    +0.000 N 
ATOM      2  C   UNL     1       5.082   6.211  18.261  0.00  0.00    +0.000 C 
ATOM      3  O   UNL     1       5.137   7.454  18.310  0.00  0.00    +0.000 OA
ENDROOT
BRANCH   2   4
ATOM      4  C   UNL     1       6.127   5.524  17.456  0.00  0.00    +0.000 A 
ATOM      5  S   UNL     1       7.515   4.681  18.006  0.00  0.00    +0.000 S 
ATOM      6  N   UNL     1       8.032   4.191  16.526  0.00  0.00    +0.000 NA
ATOM      7  N   UNL     1       7.227   4.586  15.568  0.00  0.00    +0.000 NA
ATOM      8  C   UNL     1       6.149   5.322  16.065  0.00  0.00    +0.000 A 
ATOM      9  C   UNL     1       5.185   5.787  15.036  0.00  0.00    +0.000 C 
ENDBRANCH   2   4
BRANCH   1  12
ATOM     10  C   UNL     1       2.195   7.298  18.915  0.00  0.00    +0.000 C 
ATOM     11  O   UNL     1       2.009   7.225  17.704  0.00  0.00    +0.000 OA
ATOM     12  N   UNL     1       3.043   6.451  19.634  0.00  0.00    +0.000 N 
ATOM     13  H   UNL     1       3.247   6.657  20.601  0.00  0.00    +0.000 HD
BRANCH  10  17
ATOM     14  C   UNL     1       0.124  10.337  21.244  0.00  0.00    +0.000 A 
ATOM     15  C   UNL     1       0.415  10.567  19.898  0.00  0.00    +0.000 A 
ATOM     16  C   UNL     1       1.124   9.623  19.130  0.00  0.00    +0.000 A 
ATOM     17  C   UNL     1       1.551   8.426  19.704  0.00  0.00    +0.000 A 
ATOM     18  C   UNL     1       1.319   8.229  21.081  0.00  0.00    +0.000 A 
ATOM     19  C   UNL     1       0.610   9.171  21.845  0.00  0.00    +0.000 A 
BRANCH  14  21
ATOM     20  C   UNL     1      -1.227  10.948  23.096  0.00  0.00    +0.000 C 
ATOM     21  O   UNL     1      -0.612  11.305  21.862  0.00  0.00    +0.000 OA
ENDBRANCH  14  21
ENDBRANCH  10  17
ENDBRANCH   1  12
BRANCH   1  22
ATOM     22  C   UNL     1       3.510   4.153  18.891  0.00  0.00    +0.000 C 
ATOM     23  C   UNL     1       2.232   3.831  19.729  0.00  0.00    +0.000 C 
ATOM     24  C   UNL     1       3.051   3.861  17.441  0.00  0.00    +0.000 C 
ATOM     25  C   UNL     1       4.564   3.204  19.504  0.00  0.00    +0.000 C 
ENDBRANCH   1  22
TORSDOF 5
ENDMDL
MODEL 5
REMARK VINA RESULT:      -6.4      0.928      1.828
REMARK  Name = 
REMARK  10 active torsions:
REMARK  status: ('A' for Active; 'I' for Inactive)
REMARK    1  A    between atoms: C_1  and  O_2
REMARK    2  A    between atoms: O_2  and  C_3
REMARK    3  A    between atoms: C_6  and  C_7
REMARK    4  A    between atoms: N_9  and  N_10
REMARK    5  A    between atoms: N_10  and  C_19
REMARK    6  A    between atoms: C_11  and  C_13
REMARK    7  A    between atoms: C_17  and  C_18
REMARK    8  A    between atoms: C_19  and  C_20
REMARK    9  A    between atoms: C_19  and  C_21
REMARK   10  A    between atoms: C_19  and  C_22
REMARK                            x       y       z     vdW  Elec       q    Type
REMARK                         _______ _______ _______ _____ _____    ______ ____
ROOT
ATOM      1  N   UNL     1       4.002   5.527  19.070  0.00  0.00    +0.000 N 
ATOM      2  C   UNL     1       5.056   6.190  18.348  0.00  0.00    +0.000 C 
ATOM      3  O   UNL     1       5.081   7.433  18.395  0.00  0.00    +0.000 OA
ENDROOT
BRANCH   2   4
ATOM      4  C   UNL     1       6.105   5.527  17.529  0.00  0.00    +0.000 A 
ATOM      5  S   UNL     1       7.505   4.692  18.062  0.00  0.00    +0.000 S 
ATOM      6  N   UNL     1       8.022   4.229  16.573  0.00  0.00    +0.000 NA
ATOM      7  N   UNL     1       7.209   4.629  15.624  0.00  0.00    +0.000 NA
ATOM      8  C   UNL     1       6.124   5.345  16.135  0.00  0.00    +0.000 A 
ATOM      9  C   UNL     1       5.151   5.814  15.116  0.00  0.00    +0.000 C 
ENDBRANCH   2   4
BRANCH   1  12
ATOM     10  C   UNL     1       2.194   7.253  19.043  0.00  0.00    +0.000 C 
ATOM     11  O   UNL     1       2.028   7.220  17.827  0.00  0.00    +0.000 OA
ATOM     12  N   UNL     1       3.029   6.383  19.748  0.00  0.00    +0.000 N 
ATOM     13  H   UNL     1       3.217   6.557  20.724  0.00  0.00    +0.000 HD
BRANCH  10  17
ATOM     14  C   UNL     1       0.542  10.592  21.295  0.00  0.00    +0.000 A 
ATOM     15  C   UNL     1       0.829   9.388  21.942  0.00  0.00    +0.000 A 
ATOM     16  C   UNL     1       1.320   8.275  21.232  0.00  0.00    +0.000 A 
ATOM     17  C   UNL     1       1.536   8.355  19.857  0.00  0.00    +0.000 A 
ATOM     18  C   UNL     1       1.178   9.548  19.196  0.00  0.00    +0.000 A 
ATOM     19  C   UNL     1       0.689  10.658  19.906  0.00  0.00    +0.000 A 
BRANCH  14  21
ATOM     20  C   UNL     1      -1.081  11.386  22.833  0.00  0.00    +0.000 C 
ATOM     21  O   UNL     1       0.121  11.608  22.101  0.00  0.00    +0.000 OA
ENDBRANCH  14  21
ENDBRANCH  10  17
ENDBRANCH   1  12
BRANCH   1  22
ATOM     22  C   UNL     1       3.541   4.096  19.001  0.00  0.00    +0.000 C 
ATOM     23  C   UNL     1       4.613   3.018  19.359  0.00  0.00    +0.000 C 
ATOM     24  C   UNL     1       2.452   3.868  20.079  0.00  0.00    +0.000 C 
ATOM     25  C   UNL     1       3.177   3.738  17.542  0.00  0.00    +0.000 C 
ENDBRANCH   1  22
TORSDOF 5
ENDMDL
MODEL 6
REMARK VINA RESULT:      -6.3      5.295      9.876
REMARK  Name = 
REMARK  10 active torsions:
REMARK  status: ('A' for Active; 'I' for Inactive)
REMARK    1  A    between atoms: C_1  and  O_2
REMARK    2  A    between atoms: O_2  and  C_3
REMARK    3  A    between atoms: C_6  and  C_7
REMARK    4  A    between atoms: N_9  and  N_10
REMARK    5  A    between atoms: N_10  and  C_19
REMARK    6  A    between atoms: C_11  and  C_13
REMARK    7  A    between atoms: C_17  and  C_18
REMARK    8  A    between atoms: C_19  and  C_20
REMARK    9  A    between atoms: C_19  and  C_21
REMARK   10  A    between atoms: C_19  and  C_22
REMARK                            x       y       z     vdW  Elec       q    Type
REMARK                         _______ _______ _______ _____ _____    ______ ____
ROOT
ATOM      1  N   UNL     1      -1.371  11.682  21.264  0.00  0.00    +0.000 N 
ATOM      2  C   UNL     1      -1.590  11.849  22.677  0.00  0.00    +0.000 C 
ATOM      3  O   UNL     1      -1.127  10.973  23.431  0.00  0.00    +0.000 OA
ENDROOT
BRANCH   2   4
ATOM      4  C   UNL     1      -2.341  12.960  23.319  0.00  0.00    +0.000 A 
ATOM      5  S   UNL     1      -3.893  12.918  24.046  0.00  0.00    +0.000 S 
ATOM      6  N   UNL     1      -3.902  14.482  24.552  0.00  0.00    +0.000 NA
ATOM      7  N   UNL     1      -2.788  15.104  24.246  0.00  0.00    +0.000 NA
ATOM      8  C   UNL     1      -1.895  14.270  23.569  0.00  0.00    +0.000 A 
ATOM      9  C   UNL     1      -0.603  14.905  23.206  0.00  0.00    +0.000 C 
ENDBRANCH   2   4
BRANCH   1  12
ATOM     10  C   UNL     1       0.718  10.438  20.684  0.00  0.00    +0.000 C 
ATOM     11  O   UNL     1       1.482  11.312  21.084  0.00  0.00    +0.000 OA
ATOM     12  N   UNL     1      -0.669  10.470  20.846  0.00  0.00    +0.000 N 
ATOM     13  H   UNL     1      -1.240   9.784  20.374  0.00  0.00    +0.000 HD
BRANCH  10  17
ATOM     14  C   UNL     1       2.549   7.121  18.540  0.00  0.00    +0.000 A 
ATOM     15  C   UNL     1       2.181   8.279  17.852  0.00  0.00    +0.000 A 
ATOM     16  C   UNL     1       1.545   9.350  18.508  0.00  0.00    +0.000 A 
ATOM     17  C   UNL     1       1.270   9.277  19.873  0.00  0.00    +0.000 A 
ATOM     18  C   UNL     1       1.578   8.079  20.550  0.00  0.00    +0.000 A 
ATOM     19  C   UNL     1       2.215   7.011  19.894  0.00  0.00    +0.000 A 
BRANCH  14  21
ATOM     20  C   UNL     1       2.667   4.859  17.834  0.00  0.00    +0.000 C 
ATOM     21  O   UNL     1       3.203   6.179  17.802  0.00  0.00    +0.000 OA
ENDBRANCH  14  21
ENDBRANCH  10  17
ENDBRANCH   1  12
BRANCH   1  22
ATOM     22  C   UNL     1      -2.009  12.393  20.101  0.00  0.00    +0.000 C 
ATOM     23  C   UNL     1      -3.486  12.856  20.314  0.00  0.00    +0.000 C 
ATOM     24  C   UNL     1      -1.263  13.729  19.860  0.00  0.00    +0.000 C 
ATOM     25  C   UNL     1      -2.129  11.424  18.903  0.00  0.00    +0.000 C 
ENDBRANCH   1  22
TORSDOF 5
ENDMDL
MODEL 7
REMARK VINA RESULT:      -6.2      5.296     10.050
REMARK  Name = 
REMARK  10 active torsions:
REMARK  status: ('A' for Active; 'I' for Inactive)
REMARK    1  A    between atoms: C_1  and  O_2
REMARK    2  A    between atoms: O_2  and  C_3
REMARK    3  A    between atoms: C_6  and  C_7
REMARK    4  A    between atoms: N_9  and  N_10
REMARK    5  A    between atoms: N_10  and  C_19
REMARK    6  A    between atoms: C_11  and  C_13
REMARK    7  A    between atoms: C_17  and  C_18
REMARK    8  A    between atoms: C_19  and  C_20
REMARK    9  A    between atoms: C_19  and  C_21
REMARK   10  A    between atoms: C_19  and  C_22
REMARK                            x       y       z     vdW  Elec       q    Type
REMARK                         _______ _______ _______ _____ _____    ______ ____
ROOT
ATOM      1  N   UNL     1      -1.283  11.998  21.289  0.00  0.00    +0.000 N 
ATOM      2  C   UNL     1      -1.414  12.216  22.705  0.00  0.00    +0.000 C 
ATOM      3  O   UNL     1      -0.949  11.342  23.460  0.00  0.00    +0.000 OA
ENDROOT
BRANCH   2   4
ATOM      4  C   UNL     1      -2.075  13.379  23.353  0.00  0.00    +0.000 A 
ATOM      5  S   UNL     1      -1.596  15.026  23.333  0.00  0.00    +0.000 S 
ATOM      6  N   UNL     1      -2.881  15.602  24.181  0.00  0.00    +0.000 NA
ATOM      7  N   UNL     1      -3.725  14.651  24.501  0.00  0.00    +0.000 NA
ATOM      8  C   UNL     1      -3.303  13.402  24.038  0.00  0.00    +0.000 A 
ATOM      9  C   UNL     1      -4.223  12.278  24.349  0.00  0.00    +0.000 C 
ENDBRANCH   2   4
BRANCH   1  12
ATOM     10  C   UNL     1       0.722  10.611  20.737  0.00  0.00    +0.000 C 
ATOM     11  O   UNL     1       1.539  11.422  21.163  0.00  0.00    +0.000 OA
ATOM     12  N   UNL     1      -0.662  10.742  20.871  0.00  0.00    +0.000 N 
ATOM     13  H   UNL     1      -1.271  10.105  20.379  0.00  0.00    +0.000 HD
BRANCH  10  17
ATOM     14  C   UNL     1       2.365   7.210  18.574  0.00  0.00    +0.000 A 
ATOM     15  C   UNL     1       1.985   8.360  17.880  0.00  0.00    +0.000 A 
ATOM     16  C   UNL     1       1.407   9.458  18.545  0.00  0.00    +0.000 A 
ATOM     17  C   UNL     1       1.206   9.421  19.924  0.00  0.00    +0.000 A 
ATOM     18  C   UNL     1       1.524   8.231  20.611  0.00  0.00    +0.000 A 
ATOM     19  C   UNL     1       2.102   7.136  19.945  0.00  0.00    +0.000 A 
BRANCH  14  21
ATOM     20  C   UNL     1       2.606   4.891  18.128  0.00  0.00    +0.000 C 
ATOM     21  O   UNL     1       2.959   6.237  17.823  0.00  0.00    +0.000 OA
ENDBRANCH  14  21
ENDBRANCH  10  17
ENDBRANCH   1  12
BRANCH   1  22
ATOM     22  C   UNL     1      -1.953  12.704  20.141  0.00  0.00    +0.000 C 
ATOM     23  C   UNL     1      -1.925  11.955  18.771  0.00  0.00    +0.000 C 
ATOM     24  C   UNL     1      -3.469  12.816  20.439  0.00  0.00    +0.000 C 
ATOM     25  C   UNL     1      -1.196  14.014  19.825  0.00  0.00    +0.000 C 
ENDBRANCH   1  22
TORSDOF 5
ENDMDL
MODEL 8
REMARK VINA RESULT:      -6.2      1.076      1.211
REMARK  Name = 
REMARK  10 active torsions:
REMARK  status: ('A' for Active; 'I' for Inactive)
REMARK    1  A    between atoms: C_1  and  O_2
REMARK    2  A    between atoms: O_2  and  C_3
REMARK    3  A    between atoms: C_6  and  C_7
REMARK    4  A    between atoms: N_9  and  N_10
REMARK    5  A    between atoms: N_10  and  C_19
REMARK    6  A    between atoms: C_11  and  C_13
REMARK    7  A    between atoms: C_17  and  C_18
REMARK    8  A    between atoms: C_19  and  C_20
REMARK    9  A    between atoms: C_19  and  C_21
REMARK   10  A    between atoms: C_19  and  C_22
REMARK                            x       y       z     vdW  Elec       q    Type
REMARK                         _______ _______ _______ _____ _____    ______ ____
ROOT
ATOM      1  N   UNL     1       3.599   6.111  18.753  0.00  0.00    +0.000 N 
ATOM      2  C   UNL     1       4.663   6.508  17.869  0.00  0.00    +0.000 C 
ATOM      3  O   UNL     1       4.809   7.727  17.667  0.00  0.00    +0.000 OA
ENDROOT
BRANCH   2   4
ATOM      4  C   UNL     1       5.592   5.592  17.155  0.00  0.00    +0.000 A 
ATOM      5  S   UNL     1       5.344   4.763  15.675  0.00  0.00    +0.000 S 
ATOM      6  N   UNL     1       6.840   4.087  15.589  0.00  0.00    +0.000 NA
ATOM      7  N   UNL     1       7.596   4.437  16.602  0.00  0.00    +0.000 NA
ATOM      8  C   UNL     1       6.925   5.289  17.484  0.00  0.00    +0.000 A 
ATOM      9  C   UNL     1       7.729   5.741  18.647  0.00  0.00    +0.000 C 
ENDBRANCH   2   4
BRANCH   1  12
ATOM     10  C   UNL     1       1.918   7.939  18.468  0.00  0.00    +0.000 C 
ATOM     11  O   UNL     1       1.635   7.650  17.309  0.00  0.00    +0.000 OA
ATOM     12  N   UNL     1       2.755   7.179  19.288  0.00  0.00    +0.000 N 
ATOM     13  H   UNL     1       3.046   7.549  20.181  0.00  0.00    +0.000 HD
BRANCH  10  17
ATOM     14  C   UNL     1       0.203  11.572  20.145  0.00  0.00    +0.000 A 
ATOM     15  C   UNL     1       0.917  11.626  18.947  0.00  0.00    +0.000 A 
ATOM     16  C   UNL     1       1.523  10.477  18.403  0.00  0.00    +0.000 A 
ATOM     17  C   UNL     1       1.417   9.249  19.055  0.00  0.00    +0.000 A 
ATOM     18  C   UNL     1       0.757   9.212  20.300  0.00  0.00    +0.000 A 
ATOM     19  C   UNL     1       0.151  10.360  20.840  0.00  0.00    +0.000 A 
BRANCH  14  21
ATOM     20  C   UNL     1       0.065  13.289  21.776  0.00  0.00    +0.000 C 
ATOM     21  O   UNL     1      -0.379  12.742  20.539  0.00  0.00    +0.000 OA
ENDBRANCH  14  21
ENDBRANCH  10  17
ENDBRANCH   1  12
BRANCH   1  22
ATOM     22  C   UNL     1       3.001   4.750  18.990  0.00  0.00    +0.000 C 
ATOM     23  C   UNL     1       1.933   4.663  20.127  0.00  0.00    +0.000 C 
ATOM     24  C   UNL     1       2.198   4.331  17.733  0.00  0.00    +0.000 C 
ATOM     25  C   UNL     1       4.098   3.781  19.483  0.00  0.00    +0.000 C 
ENDBRANCH   1  22
TORSDOF 5
ENDMDL
MODEL 9
REMARK VINA RESULT:      -6.0      5.310     10.071
REMARK  Name = 
REMARK  10 active torsions:
REMARK  status: ('A' for Active; 'I' for Inactive)
REMARK    1  A    between atoms: C_1  and  O_2
REMARK    2  A    between atoms: O_2  and  C_3
REMARK    3  A    between atoms: C_6  and  C_7
REMARK    4  A    between atoms: N_9  and  N_10
REMARK    5  A    between atoms: N_10  and  C_19
REMARK    6  A    between atoms: C_11  and  C_13
REMARK    7  A    between atoms: C_17  and  C_18
REMARK    8  A    between atoms: C_19  and  C_20
REMARK    9  A    between atoms: C_19  and  C_21
REMARK   10  A    between atoms: C_19  and  C_22
REMARK                            x       y       z     vdW  Elec       q    Type
REMARK                         _______ _______ _______ _____ _____    ______ ____
ROOT
ATOM      1  N   UNL     1      -1.223  12.050  21.343  0.00  0.00    +0.000 N 
ATOM      2  C   UNL     1      -1.317  12.283  22.760  0.00  0.00    +0.000 C 
ATOM      3  O   UNL     1      -0.818  11.426  23.510  0.00  0.00    +0.000 OA
ENDROOT
BRANCH   2   4
ATOM      4  C   UNL     1      -1.978  13.445  23.412  0.00  0.00    +0.000 A 
ATOM      5  S   UNL     1      -1.474  15.083  23.437  0.00  0.00    +0.000 S 
ATOM      6  N   UNL     1      -2.772  15.663  24.262  0.00  0.00    +0.000 NA
ATOM      7  N   UNL     1      -3.638  14.719  24.541  0.00  0.00    +0.000 NA
ATOM      8  C   UNL     1      -3.223  13.473  24.065  0.00  0.00    +0.000 A 
ATOM      9  C   UNL     1      -4.167  12.358  24.331  0.00  0.00    +0.000 C 
ENDBRANCH   2   4
BRANCH   1  12
ATOM     10  C   UNL     1       0.780  10.702  20.699  0.00  0.00    +0.000 C 
ATOM     11  O   UNL     1       1.599  11.548  21.045  0.00  0.00    +0.000 OA
ATOM     12  N   UNL     1      -0.595  10.799  20.922  0.00  0.00    +0.000 N 
ATOM     13  H   UNL     1      -1.217  10.131  20.491  0.00  0.00    +0.000 HD
BRANCH  10  17
ATOM     14  C   UNL     1       2.365   7.263  18.552  0.00  0.00    +0.000 A 
ATOM     15  C   UNL     1       2.009   8.418  17.853  0.00  0.00    +0.000 A 
ATOM     16  C   UNL     1       1.451   9.529  18.513  0.00  0.00    +0.000 A 
ATOM     17  C   UNL     1       1.244   9.500  19.892  0.00  0.00    +0.000 A 
ATOM     18  C   UNL     1       1.537   8.306  20.583  0.00  0.00    +0.000 A 
ATOM     19  C   UNL     1       2.096   7.198  19.923  0.00  0.00    +0.000 A 
BRANCH  14  21
ATOM     20  C   UNL     1       4.267   6.519  17.344  0.00  0.00    +0.000 C 
ATOM     21  O   UNL     1       2.942   6.277  17.806  0.00  0.00    +0.000 OA
ENDBRANCH  14  21
ENDBRANCH  10  17
ENDBRANCH   1  12
BRANCH   1  22
ATOM     22  C   UNL     1      -1.937  12.733  20.206  0.00  0.00    +0.000 C 
ATOM     23  C   UNL     1      -3.392  13.214  20.508  0.00  0.00    +0.000 C 
ATOM     24  C   UNL     1      -1.201  14.055  19.875  0.00  0.00    +0.000 C 
ATOM     25  C   UNL     1      -2.146  11.731  19.049  0.00  0.00    +0.000 C 
ENDBRANCH   1  22
TORSDOF 5
ENDMDL
