MODEL 1
REMARK VINA RESULT:      -7.4      0.000      0.000
REMARK  Name = 
REMARK  6 active torsions:
REMARK  status: ('A' for Active; 'I' for Inactive)
REMARK    1  A    between atoms: C_3  and  C_4
REMARK    2  A    between atoms: C_6  and  O_7
REMARK    3  A    between atoms: O_7  and  C_8
REMARK    4  A    between atoms: C_9  and  C_10
REMARK    5  A    between atoms: C_14  and  C_15
REMARK    6  A    between atoms: C_17  and  C_18
REMARK                            x       y       z     vdW  Elec       q    Type
REMARK                         _______ _______ _______ _____ _____    ______ ____
ROOT
ATOM      1  C   UNL     1       1.676   8.076  20.538  0.00  0.00    +0.000 C 
ATOM      2  C   UNL     1       1.980   7.276  19.503  0.00  0.00    +0.000 C 
ATOM      3  C   UNL     1       2.278   7.812  18.128  0.00  0.00    +0.000 C 
ATOM      4  C   UNL     1       2.194   9.289  17.758  0.00  0.00    +0.000 C 
ATOM      5  C   UNL     1       3.681   7.299  17.911  0.00  0.00    +0.000 C 
ATOM      6  C   UNL     1       3.562   5.834  17.408  0.00  0.00    +0.000 C 
ATOM      7  C   UNL     1       3.278   4.929  18.716  0.00  0.00    +0.000 C 
ATOM      8  C   UNL     1       4.683   4.758  19.357  0.00  0.00    +0.000 C 
ATOM      9  C   UNL     1       2.024   5.734  19.494  0.00  0.00    +0.000 C 
ATOM     10  C   UNL     1       1.477   5.086  20.778  0.00  0.00    +0.000 C 
ATOM     11  C   UNL     1       1.095   3.664  20.428  0.00  0.00    +0.000 C 
ATOM     12  C   UNL     1       2.137   2.955  19.945  0.00  0.00    +0.000 C 
ATOM     13  C   UNL     1       2.708   3.434  18.569  0.00  0.00    +0.000 C 
ENDROOT
BRANCH   6  14
ATOM     14  O   UNL     1       4.740   5.529  16.640  0.00  0.00    +0.000 OA
ATOM     15  C   UNL     1       5.481   6.711  16.255  0.00  0.00    +0.000 C 
ENDBRANCH   6  14
BRANCH  12  16
ATOM     16  C   UNL     1       3.064   2.478  21.022  0.00  0.00    +0.000 C 
ATOM     17  O   UNL     1       2.724   2.363  22.197  0.00  0.00    +0.000 OA
ENDBRANCH  12  16
BRANCH  13  18
ATOM     18  C   UNL     1       3.600   2.348  17.999  0.00  0.00    +0.000 C 
ATOM     19  O   UNL     1       3.577   1.154  18.293  0.00  0.00    +0.000 OA
ENDBRANCH  13  18
TORSDOF 3
ENDMDL
MODEL 2
REMARK VINA RESULT:      -7.1      1.459      4.071
REMARK  Name = 
REMARK  6 active torsions:
REMARK  status: ('A' for Active; 'I' for Inactive)
REMARK    1  A    between atoms: C_3  and  C_4
REMARK    2  A    between atoms: C_6  and  O_7
REMARK    3  A    between atoms: O_7  and  C_8
REMARK    4  A    between atoms: C_9  and  C_10
REMARK    5  A    between atoms: C_14  and  C_15
REMARK    6  A    between atoms: C_17  and  C_18
REMARK                            x       y       z     vdW  Elec       q    Type
REMARK                         _______ _______ _______ _____ _____    ______ ____
ROOT
ATOM      1  C   UNL     1       1.967   8.771  18.351  0.00  0.00    +0.000 C 
ATOM      2  C   UNL     1       2.290   7.706  19.102  0.00  0.00    +0.000 C 
ATOM      3  C   UNL     1       1.707   7.475  20.470  0.00  0.00    +0.000 C 
ATOM      4  C   UNL     1       0.762   8.449  21.163  0.00  0.00    +0.000 C 
ATOM      5  C   UNL     1       1.030   6.138  20.278  0.00  0.00    +0.000 C 
ATOM      6  C   UNL     1       2.116   5.043  20.462  0.00  0.00    +0.000 C 
ATOM      7  C   UNL     1       2.941   4.987  19.075  0.00  0.00    +0.000 C 
ATOM      8  C   UNL     1       2.029   4.145  18.138  0.00  0.00    +0.000 C 
ATOM      9  C   UNL     1       3.309   6.598  18.764  0.00  0.00    +0.000 C 
ATOM     10  C   UNL     1       4.152   6.885  17.508  0.00  0.00    +0.000 C 
ATOM     11  C   UNL     1       5.401   6.036  17.610  0.00  0.00    +0.000 C 
ATOM     12  C   UNL     1       5.122   4.719  17.703  0.00  0.00    +0.000 C 
ATOM     13  C   UNL     1       4.377   4.270  19.003  0.00  0.00    +0.000 C 
ENDROOT
BRANCH   6  14
ATOM     14  O   UNL     1       1.462   3.834  20.887  0.00  0.00    +0.000 OA
ATOM     15  C   UNL     1       2.160   3.165  21.964  0.00  0.00    +0.000 C 
ENDBRANCH   6  14
BRANCH  12  16
ATOM     16  C   UNL     1       4.769   4.105  16.381  0.00  0.00    +0.000 C 
ATOM     17  O   UNL     1       5.610   3.681  15.593  0.00  0.00    +0.000 OA
ENDBRANCH  12  16
BRANCH  13  18
ATOM     18  C   UNL     1       4.465   2.761  19.128  0.00  0.00    +0.000 C 
ATOM     19  O   UNL     1       4.917   2.131  20.082  0.00  0.00    +0.000 OA
ENDBRANCH  13  18
TORSDOF 3
ENDMDL
MODEL 3
REMARK VINA RESULT:      -6.4      1.800      3.818
REMARK  Name = 
REMARK  6 active torsions:
REMARK  status: ('A' for Active; 'I' for Inactive)
REMARK    1  A    between atoms: C_3  and  C_4
REMARK    2  A    between atoms: C_6  and  O_7
REMARK    3  A    between atoms: O_7  and  C_8
REMARK    4  A    between atoms: C_9  and  C_10
REMARK    5  A    between atoms: C_14  and  C_15
REMARK    6  A    between atoms: C_17  and  C_18
REMARK                            x       y       z     vdW  Elec       q    Type
REMARK                         _______ _______ _______ _____ _____    ______ ____
ROOT
ATOM      1  C   UNL     1       5.612   4.347  15.744  0.00  0.00    +0.000 C 
ATOM      2  C   UNL     1       5.127   4.727  16.937  0.00  0.00    +0.000 C 
ATOM      3  C   UNL     1       5.447   6.064  17.550  0.00  0.00    +0.000 C 
ATOM      4  C   UNL     1       6.399   7.077  16.924  0.00  0.00    +0.000 C 
ATOM      5  C   UNL     1       4.067   6.661  17.689  0.00  0.00    +0.000 C 
ATOM      6  C   UNL     1       3.457   6.107  19.006  0.00  0.00    +0.000 C 
ATOM      7  C   UNL     1       2.936   4.616  18.670  0.00  0.00    +0.000 C 
ATOM      8  C   UNL     1       1.575   4.853  17.957  0.00  0.00    +0.000 C 
ATOM      9  C   UNL     1       4.245   3.900  17.896  0.00  0.00    +0.000 C 
ATOM     10  C   UNL     1       4.084   2.427  17.481  0.00  0.00    +0.000 C 
ATOM     11  C   UNL     1       3.681   1.659  18.722  0.00  0.00    +0.000 C 
ATOM     12  C   UNL     1       2.539   2.127  19.268  0.00  0.00    +0.000 C 
ATOM     13  C   UNL     1       2.606   3.577  19.851  0.00  0.00    +0.000 C 
ENDROOT
BRANCH   6  14
ATOM     14  O   UNL     1       2.482   7.054  19.478  0.00  0.00    +0.000 OA
ATOM     15  C   UNL     1       2.294   8.167  18.572  0.00  0.00    +0.000 C 
ENDBRANCH   6  14
BRANCH  12  16
ATOM     16  C   UNL     1       1.314   1.662  18.540  0.00  0.00    +0.000 C 
ATOM     17  O   UNL     1       0.183   2.062  18.806  0.00  0.00    +0.000 OA
ENDBRANCH  12  16
BRANCH  13  18
ATOM     18  C   UNL     1       1.395   3.812  20.734  0.00  0.00    +0.000 C 
ATOM     19  O   UNL     1       1.071   3.154  21.721  0.00  0.00    +0.000 OA
ENDBRANCH  13  18
TORSDOF 3
ENDMDL
MODEL 4
REMARK VINA RESULT:      -6.3      2.339      5.225
REMARK  Name = 
REMARK  6 active torsions:
REMARK  status: ('A' for Active; 'I' for Inactive)
REMARK    1  A    between atoms: C_3  and  C_4
REMARK    2  A    between atoms: C_6  and  O_7
REMARK    3  A    between atoms: O_7  and  C_8
REMARK    4  A    between atoms: C_9  and  C_10
REMARK    5  A    between atoms: C_14  and  C_15
REMARK    6  A    between atoms: C_17  and  C_18
REMARK                            x       y       z     vdW  Elec       q    Type
REMARK                         _______ _______ _______ _____ _____    ______ ____
ROOT
ATOM      1  C   UNL     1       3.153   1.455  18.208  0.00  0.00    +0.000 C 
ATOM      2  C   UNL     1       2.986   2.771  18.000  0.00  0.00    +0.000 C 
ATOM      3  C   UNL     1       1.707   3.487  18.345  0.00  0.00    +0.000 C 
ATOM      4  C   UNL     1       0.465   2.789  18.886  0.00  0.00    +0.000 C 
ATOM      5  C   UNL     1       2.204   4.513  19.336  0.00  0.00    +0.000 C 
ATOM      6  C   UNL     1       2.756   5.712  18.517  0.00  0.00    +0.000 C 
ATOM      7  C   UNL     1       4.227   5.275  18.013  0.00  0.00    +0.000 C 
ATOM      8  C   UNL     1       5.127   5.510  19.259  0.00  0.00    +0.000 C 
ATOM      9  C   UNL     1       3.986   3.750  17.350  0.00  0.00    +0.000 C 
ATOM     10  C   UNL     1       5.213   3.065  16.724  0.00  0.00    +0.000 C 
ATOM     11  C   UNL     1       5.789   4.030  15.710  0.00  0.00    +0.000 C 
ATOM     12  C   UNL     1       6.135   5.211  16.263  0.00  0.00    +0.000 C 
ATOM     13  C   UNL     1       4.956   6.073  16.824  0.00  0.00    +0.000 C 
ENDROOT
BRANCH   6  14
ATOM     14  O   UNL     1       2.665   6.890  19.338  0.00  0.00    +0.000 OA
ATOM     15  C   UNL     1       2.176   8.044  18.614  0.00  0.00    +0.000 C 
ENDBRANCH   6  14
BRANCH  12  16
ATOM     16  C   UNL     1       7.440   5.150  16.997  0.00  0.00    +0.000 C 
ATOM     17  O   UNL     1       8.154   4.149  17.014  0.00  0.00    +0.000 OA
ENDBRANCH  12  16
BRANCH  13  18
ATOM     18  C   UNL     1       5.448   7.487  17.065  0.00  0.00    +0.000 C 
ATOM     19  O   UNL     1       6.591   7.904  16.889  0.00  0.00    +0.000 OA
ENDBRANCH  13  18
TORSDOF 3
ENDMDL
MODEL 5
REMARK VINA RESULT:      -6.3      2.320      5.536
REMARK  Name = 
REMARK  6 active torsions:
REMARK  status: ('A' for Active; 'I' for Inactive)
REMARK    1  A    between atoms: C_3  and  C_4
REMARK    2  A    between atoms: C_6  and  O_7
REMARK    3  A    between atoms: O_7  and  C_8
REMARK    4  A    between atoms: C_9  and  C_10
REMARK    5  A    between atoms: C_14  and  C_15
REMARK    6  A    between atoms: C_17  and  C_18
REMARK                            x       y       z     vdW  Elec       q    Type
REMARK                         _______ _______ _______ _____ _____    ______ ____
ROOT
ATOM      1  C   UNL     1       3.632   1.328  18.042  0.00  0.00    +0.000 C 
ATOM      2  C   UNL     1       3.148   2.579  17.966  0.00  0.00    +0.000 C 
ATOM      3  C   UNL     1       1.778   2.946  18.470  0.00  0.00    +0.000 C 
ATOM      4  C   UNL     1       0.787   1.939  19.040  0.00  0.00    +0.000 C 
ATOM      5  C   UNL     1       2.118   3.990  19.507  0.00  0.00    +0.000 C 
ATOM      6  C   UNL     1       2.299   5.340  18.759  0.00  0.00    +0.000 C 
ATOM      7  C   UNL     1       3.776   5.299  18.107  0.00  0.00    +0.000 C 
ATOM      8  C   UNL     1       4.713   5.653  19.296  0.00  0.00    +0.000 C 
ATOM      9  C   UNL     1       3.829   3.809  17.331  0.00  0.00    +0.000 C 
ATOM     10  C   UNL     1       5.116   3.478  16.554  0.00  0.00    +0.000 C 
ATOM     11  C   UNL     1       5.355   4.620  15.589  0.00  0.00    +0.000 C 
ATOM     12  C   UNL     1       5.471   5.809  16.216  0.00  0.00    +0.000 C 
ATOM     13  C   UNL     1       4.185   6.326  16.941  0.00  0.00    +0.000 C 
ENDROOT
BRANCH   6  14
ATOM     14  O   UNL     1       2.019   6.403  19.687  0.00  0.00    +0.000 OA
ATOM     15  C   UNL     1       1.426   5.933  20.920  0.00  0.00    +0.000 C 
ENDBRANCH   6  14
BRANCH  12  16
ATOM     16  C   UNL     1       6.820   6.007  16.840  0.00  0.00    +0.000 C 
ATOM     17  O   UNL     1       7.646   6.809  16.411  0.00  0.00    +0.000 OA
ENDBRANCH  12  16
BRANCH  13  18
ATOM     18  C   UNL     1       4.359   7.797  17.269  0.00  0.00    +0.000 C 
ATOM     19  O   UNL     1       3.488   8.564  17.672  0.00  0.00    +0.000 OA
ENDBRANCH  13  18
TORSDOF 3
ENDMDL
MODEL 6
REMARK VINA RESULT:      -6.0      1.955      4.929
REMARK  Name = 
REMARK  6 active torsions:
REMARK  status: ('A' for Active; 'I' for Inactive)
REMARK    1  A    between atoms: C_3  and  C_4
REMARK    2  A    between atoms: C_6  and  O_7
REMARK    3  A    between atoms: O_7  and  C_8
REMARK    4  A    between atoms: C_9  and  C_10
REMARK    5  A    between atoms: C_14  and  C_15
REMARK    6  A    between atoms: C_17  and  C_18
REMARK                            x       y       z     vdW  Elec       q    Type
REMARK                         _______ _______ _______ _____ _____    ______ ____
ROOT
ATOM      1  C   UNL     1       1.877   7.727  17.910  0.00  0.00    +0.000 C 
ATOM      2  C   UNL     1       2.807   6.952  18.491  0.00  0.00    +0.000 C 
ATOM      3  C   UNL     1       2.597   6.311  19.837  0.00  0.00    +0.000 C 
ATOM      4  C   UNL     1       1.359   6.533  20.697  0.00  0.00    +0.000 C 
ATOM      5  C   UNL     1       2.737   4.848  19.490  0.00  0.00    +0.000 C 
ATOM      6  C   UNL     1       4.256   4.522  19.475  0.00  0.00    +0.000 C 
ATOM      7  C   UNL     1       4.819   5.060  18.060  0.00  0.00    +0.000 C 
ATOM      8  C   UNL     1       4.412   3.947  17.055  0.00  0.00    +0.000 C 
ATOM      9  C   UNL     1       4.219   6.627  17.961  0.00  0.00    +0.000 C 
ATOM     10  C   UNL     1       4.626   7.448  16.724  0.00  0.00    +0.000 C 
ATOM     11  C   UNL     1       6.138   7.423  16.655  0.00  0.00    +0.000 C 
ATOM     12  C   UNL     1       6.630   6.169  16.576  0.00  0.00    +0.000 C 
ATOM     13  C   UNL     1       6.397   5.265  17.831  0.00  0.00    +0.000 C 
ENDROOT
BRANCH   6  14
ATOM     14  O   UNL     1       4.413   3.119  19.755  0.00  0.00    +0.000 OA
ATOM     15  C   UNL     1       3.248   2.538  20.386  0.00  0.00    +0.000 C 
ENDBRANCH   6  14
BRANCH  12  16
ATOM     16  C   UNL     1       6.522   5.589  15.198  0.00  0.00    +0.000 C 
ATOM     17  O   UNL     1       7.487   5.457  14.449  0.00  0.00    +0.000 OA
ENDBRANCH  12  16
BRANCH  13  18
ATOM     18  C   UNL     1       7.301   4.051  17.741  0.00  0.00    +0.000 C 
ATOM     19  O   UNL     1       8.528   4.046  17.822  0.00  0.00    +0.000 OA
ENDBRANCH  13  18
TORSDOF 3
ENDMDL
MODEL 7
REMARK VINA RESULT:      -6.0      1.974      4.428
REMARK  Name = 
REMARK  6 active torsions:
REMARK  status: ('A' for Active; 'I' for Inactive)
REMARK    1  A    between atoms: C_3  and  C_4
REMARK    2  A    between atoms: C_6  and  O_7
REMARK    3  A    between atoms: O_7  and  C_8
REMARK    4  A    between atoms: C_9  and  C_10
REMARK    5  A    between atoms: C_14  and  C_15
REMARK    6  A    between atoms: C_17  and  C_18
REMARK                            x       y       z     vdW  Elec       q    Type
REMARK                         _______ _______ _______ _____ _____    ______ ____
ROOT
ATOM      1  C   UNL     1       5.989   6.928  15.985  0.00  0.00    +0.000 C 
ATOM      2  C   UNL     1       5.143   5.960  16.371  0.00  0.00    +0.000 C 
ATOM      3  C   UNL     1       5.286   4.533  15.915  0.00  0.00    +0.000 C 
ATOM      4  C   UNL     1       6.345   4.063  14.924  0.00  0.00    +0.000 C 
ATOM      5  C   UNL     1       5.453   3.818  17.235  0.00  0.00    +0.000 C 
ATOM      6  C   UNL     1       4.030   3.580  17.811  0.00  0.00    +0.000 C 
ATOM      7  C   UNL     1       3.568   4.984  18.465  0.00  0.00    +0.000 C 
ATOM      8  C   UNL     1       4.292   5.005  19.840  0.00  0.00    +0.000 C 
ATOM      9  C   UNL     1       3.891   6.111  17.260  0.00  0.00    +0.000 C 
ATOM     10  C   UNL     1       3.509   7.572  17.558  0.00  0.00    +0.000 C 
ATOM     11  C   UNL     1       2.047   7.576  17.950  0.00  0.00    +0.000 C 
ATOM     12  C   UNL     1       1.799   6.792  19.020  0.00  0.00    +0.000 C 
ATOM     13  C   UNL     1       2.023   5.258  18.808  0.00  0.00    +0.000 C 
ENDROOT
BRANCH   6  14
ATOM     14  O   UNL     1       4.088   2.437  18.683  0.00  0.00    +0.000 OA
ATOM     15  C   UNL     1       3.087   1.440  18.369  0.00  0.00    +0.000 C 
ENDBRANCH   6  14
BRANCH  12  16
ATOM     16  C   UNL     1       2.184   7.439  20.316  0.00  0.00    +0.000 C 
ATOM     17  O   UNL     1       1.362   7.813  21.150  0.00  0.00    +0.000 OA
ENDBRANCH  12  16
BRANCH  13  18
ATOM     18  C   UNL     1       1.366   4.501  19.946  0.00  0.00    +0.000 C 
ATOM     19  O   UNL     1       0.709   3.466  19.852  0.00  0.00    +0.000 OA
ENDBRANCH  13  18
TORSDOF 3
ENDMDL
MODEL 8
REMARK VINA RESULT:      -5.9      2.368      4.179
REMARK  Name = 
REMARK  6 active torsions:
REMARK  status: ('A' for Active; 'I' for Inactive)
REMARK    1  A    between atoms: C_3  and  C_4
REMARK    2  A    between atoms: C_6  and  O_7
REMARK    3  A    between atoms: O_7  and  C_8
REMARK    4  A    between atoms: C_9  and  C_10
REMARK    5  A    between atoms: C_14  and  C_15
REMARK    6  A    between atoms: C_17  and  C_18
REMARK                            x       y       z     vdW  Elec       q    Type
REMARK                         _______ _______ _______ _____ _____    ______ ____
ROOT
ATOM      1  C   UNL     1       4.744   4.651  14.647  0.00  0.00    +0.000 C 
ATOM      2  C   UNL     1       5.180   4.290  15.864  0.00  0.00    +0.000 C 
ATOM      3  C   UNL     1       6.621   4.425  16.279  0.00  0.00    +0.000 C 
ATOM      4  C   UNL     1       7.728   4.908  15.350  0.00  0.00    +0.000 C 
ATOM      5  C   UNL     1       6.498   5.347  17.469  0.00  0.00    +0.000 C 
ATOM      6  C   UNL     1       6.138   4.466  18.697  0.00  0.00    +0.000 C 
ATOM      7  C   UNL     1       4.555   4.163  18.586  0.00  0.00    +0.000 C 
ATOM      8  C   UNL     1       3.893   5.461  19.126  0.00  0.00    +0.000 C 
ATOM      9  C   UNL     1       4.358   3.644  16.999  0.00  0.00    +0.000 C 
ATOM     10  C   UNL     1       2.939   3.222  16.580  0.00  0.00    +0.000 C 
ATOM     11  C   UNL     1       2.478   2.175  17.571  0.00  0.00    +0.000 C 
ATOM     12  C   UNL     1       2.482   2.631  18.841  0.00  0.00    +0.000 C 
ATOM     13  C   UNL     1       3.887   2.975  19.437  0.00  0.00    +0.000 C 
ENDROOT
BRANCH   6  14
ATOM     14  O   UNL     1       6.596   5.144  19.881  0.00  0.00    +0.000 OA
ATOM     15  C   UNL     1       7.854   5.831  19.684  0.00  0.00    +0.000 C 
ENDBRANCH   6  14
BRANCH  12  16
ATOM     16  C   UNL     1       1.298   3.496  19.152  0.00  0.00    +0.000 C 
ATOM     17  O   UNL     1       0.414   3.167  19.939  0.00  0.00    +0.000 OA
ENDBRANCH  12  16
BRANCH  13  18
ATOM     18  C   UNL     1       3.765   3.113  20.943  0.00  0.00    +0.000 C 
ATOM     19  O   UNL     1       3.260   2.299  21.713  0.00  0.00    +0.000 OA
ENDBRANCH  13  18
TORSDOF 3
ENDMDL
MODEL 9
REMARK VINA RESULT:      -5.8      1.794      5.024
REMARK  Name = 
REMARK  6 active torsions:
REMARK  status: ('A' for Active; 'I' for Inactive)
REMARK    1  A    between atoms: C_3  and  C_4
REMARK    2  A    between atoms: C_6  and  O_7
REMARK    3  A    between atoms: O_7  and  C_8
REMARK    4  A    between atoms: C_9  and  C_10
REMARK    5  A    between atoms: C_14  and  C_15
REMARK    6  A    between atoms: C_17  and  C_18
REMARK                            x       y       z     vdW  Elec       q    Type
REMARK                         _______ _______ _______ _____ _____    ______ ____
ROOT
ATOM      1  C   UNL     1       0.524   4.609  19.791  0.00  0.00    +0.000 C 
ATOM      2  C   UNL     1       1.816   4.322  20.018  0.00  0.00    +0.000 C 
ATOM      3  C   UNL     1       2.253   3.358  21.089  0.00  0.00    +0.000 C 
ATOM      4  C   UNL     1       1.294   2.678  22.059  0.00  0.00    +0.000 C 
ATOM      5  C   UNL     1       2.989   2.324  20.270  0.00  0.00    +0.000 C 
ATOM      6  C   UNL     1       4.430   2.859  20.043  0.00  0.00    +0.000 C 
ATOM      7  C   UNL     1       4.326   3.941  18.848  0.00  0.00    +0.000 C 
ATOM      8  C   UNL     1       4.280   3.068  17.563  0.00  0.00    +0.000 C 
ATOM      9  C   UNL     1       3.047   4.928  19.313  0.00  0.00    +0.000 C 
ATOM     10  C   UNL     1       2.717   6.114  18.390  0.00  0.00    +0.000 C 
ATOM     11  C   UNL     1       3.996   6.904  18.210  0.00  0.00    +0.000 C 
ATOM     12  C   UNL     1       4.992   6.159  17.688  0.00  0.00    +0.000 C 
ATOM     13  C   UNL     1       5.514   4.992  18.589  0.00  0.00    +0.000 C 
ENDROOT
BRANCH   6  14
ATOM     14  O   UNL     1       5.296   1.729  19.833  0.00  0.00    +0.000 OA
ATOM     15  C   UNL     1       5.424   0.893  21.007  0.00  0.00    +0.000 C 
ENDBRANCH   6  14
BRANCH  12  16
ATOM     16  C   UNL     1       4.861   5.969  16.207  0.00  0.00    +0.000 C 
ATOM     17  O   UNL     1       5.302   6.769  15.386  0.00  0.00    +0.000 OA
ENDBRANCH  12  16
BRANCH  13  18
ATOM     18  C   UNL     1       6.840   4.499  18.040  0.00  0.00    +0.000 C 
ATOM     19  O   UNL     1       7.752   5.194  17.598  0.00  0.00    +0.000 OA
ENDBRANCH  13  18
TORSDOF 3
ENDMDL
