MODEL 1
REMARK VINA RESULT:      -8.3      0.000      0.000
REMARK  Name = 
REMARK  13 active torsions:
REMARK  status: ('A' for Active; 'I' for Inactive)
REMARK    1  A    between atoms: C_1  and  C_2
REMARK    2  A    between atoms: C_2  and  C_3
REMARK    3  A    between atoms: C_3  and  N_4
REMARK    4  A    between atoms: N_4  and  C_5
REMARK    5  A    between atoms: C_5  and  C_6
REMARK    6  A    between atoms: C_6  and  C_7
REMARK    7  A    between atoms: C_8  and  C_10
REMARK    8  A    between atoms: C_15  and  C_16
REMARK    9  A    between atoms: N_18  and  C_19
REMARK   10  A    between atoms: C_23  and  C_24
REMARK   11  A    between atoms: C_24  and  N_25
REMARK   12  A    between atoms: N_25  and  C_26
REMARK   13  A    between atoms: N_25  and  C_27
REMARK                            x       y       z     vdW  Elec       q    Type
REMARK                         _______ _______ _______ _____ _____    ______ ____
ROOT
ATOM      1  C   UNL     1       3.111   5.520  17.972  0.00  0.00    +0.000 C 
ATOM      2  C   UNL     1       3.342   6.851  17.923  0.00  0.00    +0.000 C 
ATOM      3  C   UNL     1       2.487   7.859  18.591  0.00  0.00    +0.000 A 
ATOM      4  C   UNL     1       2.236   9.050  17.887  0.00  0.00    +0.000 A 
ATOM      5  C   UNL     1       1.379  10.022  18.414  0.00  0.00    +0.000 A 
ATOM      6  C   UNL     1       0.771   9.835  19.660  0.00  0.00    +0.000 A 
ATOM      7  C   UNL     1       1.041   8.675  20.383  0.00  0.00    +0.000 A 
ATOM      8  C   UNL     1       1.894   7.686  19.866  0.00  0.00    +0.000 A 
ATOM      9  N   UNL     1       2.117   6.590  20.715  0.00  0.00    +0.000 NA
ATOM     10  C   UNL     1       2.143   5.378  20.254  0.00  0.00    +0.000 C 
ATOM     11  N   UNL     1       2.313   4.354  21.150  0.00  0.00    +0.000 N 
ATOM     12  C   UNL     1       1.971   5.007  18.793  0.00  0.00    +0.000 C 
ATOM     13  H   UNL     1       2.651   4.670  22.052  0.00  0.00    +0.000 HD
ATOM     14  H   UNL     1       2.758   3.507  20.817  0.00  0.00    +0.000 HD
ENDROOT
BRANCH   6  15
ATOM     15  C   UNL     1      -0.209  10.853  20.122  0.00  0.00    +0.000 C 
ATOM     16  O   UNL     1      -1.096  11.171  19.338  0.00  0.00    +0.000 OA
ATOM     17  N   UNL     1      -0.004  11.409  21.375  0.00  0.00    +0.000 N 
ATOM     18  H   UNL     1       0.871  11.219  21.851  0.00  0.00    +0.000 HD
BRANCH  17  19
ATOM     19  C   UNL     1      -0.812  12.443  21.926  0.00  0.00    +0.000 A 
ATOM     20  C   UNL     1      -0.349  13.731  22.199  0.00  0.00    +0.000 A 
ATOM     21  N   UNL     1      -1.091  14.717  22.765  0.00  0.00    +0.000 NA
ATOM     22  C   UNL     1      -2.350  14.395  23.116  0.00  0.00    +0.000 A 
ATOM     23  C   UNL     1      -2.924  13.145  22.902  0.00  0.00    +0.000 A 
ATOM     24  C   UNL     1      -2.146  12.173  22.250  0.00  0.00    +0.000 A 
BRANCH  23  25
ATOM     25  C   UNL     1      -4.317  12.865  23.414  0.00  0.00    +0.000 C 
BRANCH  25  26
ATOM     26  N   UNL     1      -5.373  13.613  22.703  0.00  0.00    +0.000 NA
ATOM     27  C   UNL     1      -6.284  12.725  21.969  0.00  0.00    +0.000 C 
ATOM     28  C   UNL     1      -6.151  14.406  23.661  0.00  0.00    +0.000 C 
ENDBRANCH  25  26
ENDBRANCH  23  25
ENDBRANCH  17  19
ENDBRANCH   6  15
BRANCH   1  30
ATOM     29  N   UNL     1       5.340   5.110  16.749  0.00  0.00    +0.000 N 
ATOM     30  C   UNL     1       4.079   4.646  17.191  0.00  0.00    +0.000 C 
ATOM     31  O   UNL     1       3.731   3.482  16.954  0.00  0.00    +0.000 OA
BRANCH  29  32
ATOM     32  C   UNL     1       6.167   4.144  15.999  0.00  0.00    +0.000 C 
BRANCH  32  34
ATOM     33  C   UNL     1       5.573   3.906  13.514  0.00  0.00    +0.000 C 
ATOM     34  C   UNL     1       6.504   4.517  14.549  0.00  0.00    +0.000 C 
ENDBRANCH  32  34
ENDBRANCH  29  32
BRANCH  29  35
ATOM     35  C   UNL     1       5.924   6.381  17.169  0.00  0.00    +0.000 C 
BRANCH  35  36
ATOM     36  C   UNL     1       7.392   6.504  17.572  0.00  0.00    +0.000 C 
ATOM     37  C   UNL     1       7.772   7.984  17.641  0.00  0.00    +0.000 C 
ENDBRANCH  35  36
ENDBRANCH  29  35
ENDBRANCH   1  30
TORSDOF 9
ENDMDL
MODEL 2
REMARK VINA RESULT:      -8.2      1.729      2.074
REMARK  Name = 
REMARK  13 active torsions:
REMARK  status: ('A' for Active; 'I' for Inactive)
REMARK    1  A    between atoms: C_1  and  C_2
REMARK    2  A    between atoms: C_2  and  C_3
REMARK    3  A    between atoms: C_3  and  N_4
REMARK    4  A    between atoms: N_4  and  C_5
REMARK    5  A    between atoms: C_5  and  C_6
REMARK    6  A    between atoms: C_6  and  C_7
REMARK    7  A    between atoms: C_8  and  C_10
REMARK    8  A    between atoms: C_15  and  C_16
REMARK    9  A    between atoms: N_18  and  C_19
REMARK   10  A    between atoms: C_23  and  C_24
REMARK   11  A    between atoms: C_24  and  N_25
REMARK   12  A    between atoms: N_25  and  C_26
REMARK   13  A    between atoms: N_25  and  C_27
REMARK                            x       y       z     vdW  Elec       q    Type
REMARK                         _______ _______ _______ _____ _____    ______ ____
ROOT
ATOM      1  C   UNL     1       2.904   5.462  18.124  0.00  0.00    +0.000 C 
ATOM      2  C   UNL     1       3.105   6.799  18.079  0.00  0.00    +0.000 C 
ATOM      3  C   UNL     1       2.265   7.781  18.803  0.00  0.00    +0.000 A 
ATOM      4  C   UNL     1       1.953   8.974  18.128  0.00  0.00    +0.000 A 
ATOM      5  C   UNL     1       1.105   9.922  18.712  0.00  0.00    +0.000 A 
ATOM      6  C   UNL     1       0.567   9.708  19.985  0.00  0.00    +0.000 A 
ATOM      7  C   UNL     1       0.899   8.545  20.679  0.00  0.00    +0.000 A 
ATOM      8  C   UNL     1       1.744   7.581  20.105  0.00  0.00    +0.000 A 
ATOM      9  N   UNL     1       2.033   6.479  20.927  0.00  0.00    +0.000 NA
ATOM     10  C   UNL     1       2.060   5.274  20.451  0.00  0.00    +0.000 C 
ATOM     11  N   UNL     1       2.297   4.244  21.323  0.00  0.00    +0.000 N 
ATOM     12  C   UNL     1       1.819   4.916  18.996  0.00  0.00    +0.000 C 
ATOM     13  H   UNL     1       2.676   4.556  22.210  0.00  0.00    +0.000 HD
ATOM     14  H   UNL     1       2.742   3.410  20.957  0.00  0.00    +0.000 HD
ENDROOT
BRANCH   6  15
ATOM     15  C   UNL     1      -0.408  10.699  20.511  0.00  0.00    +0.000 C 
ATOM     16  O   UNL     1      -0.614  10.693  21.720  0.00  0.00    +0.000 OA
ATOM     17  N   UNL     1      -1.055  11.504  19.588  0.00  0.00    +0.000 N 
ATOM     18  H   UNL     1      -0.956  11.286  18.603  0.00  0.00    +0.000 HD
BRANCH  17  19
ATOM     19  C   UNL     1      -2.064  12.449  19.927  0.00  0.00    +0.000 A 
ATOM     20  C   UNL     1      -1.805  13.684  20.524  0.00  0.00    +0.000 A 
ATOM     21  N   UNL     1      -2.756  14.579  20.895  0.00  0.00    +0.000 NA
ATOM     22  C   UNL     1      -4.037  14.211  20.698  0.00  0.00    +0.000 A 
ATOM     23  C   UNL     1      -4.422  13.006  20.118  0.00  0.00    +0.000 A 
ATOM     24  C   UNL     1      -3.406  12.137  19.684  0.00  0.00    +0.000 A 
BRANCH  23  25
ATOM     25  C   UNL     1      -5.888  12.657  20.023  0.00  0.00    +0.000 C 
BRANCH  25  26
ATOM     26  N   UNL     1      -6.152  11.387  19.316  0.00  0.00    +0.000 NA
ATOM     27  C   UNL     1      -7.028  10.495  20.085  0.00  0.00    +0.000 C 
ATOM     28  C   UNL     1      -6.775  11.662  18.017  0.00  0.00    +0.000 C 
ENDBRANCH  25  26
ENDBRANCH  23  25
ENDBRANCH  17  19
ENDBRANCH   6  15
BRANCH   1  30
ATOM     29  N   UNL     1       5.050   5.128  16.739  0.00  0.00    +0.000 N 
ATOM     30  C   UNL     1       3.847   4.618  17.281  0.00  0.00    +0.000 C 
ATOM     31  O   UNL     1       3.534   3.437  17.087  0.00  0.00    +0.000 OA
BRANCH  29  32
ATOM     32  C   UNL     1       5.859   4.187  15.940  0.00  0.00    +0.000 C 
BRANCH  32  34
ATOM     33  C   UNL     1       7.196   4.874  13.860  0.00  0.00    +0.000 C 
ATOM     34  C   UNL     1       5.862   4.409  14.422  0.00  0.00    +0.000 C 
ENDBRANCH  32  34
ENDBRANCH  29  32
BRANCH  29  35
ATOM     35  C   UNL     1       5.608   6.431  17.096  0.00  0.00    +0.000 C 
BRANCH  35  36
ATOM     36  C   UNL     1       7.066   6.599  17.517  0.00  0.00    +0.000 C 
ATOM     37  C   UNL     1       7.302   5.842  18.825  0.00  0.00    +0.000 C 
ENDBRANCH  35  36
ENDBRANCH  29  35
ENDBRANCH   1  30
TORSDOF 9
ENDMDL
MODEL 3
REMARK VINA RESULT:      -8.2      1.300      2.500
REMARK  Name = 
REMARK  13 active torsions:
REMARK  status: ('A' for Active; 'I' for Inactive)
REMARK    1  A    between atoms: C_1  and  C_2
REMARK    2  A    between atoms: C_2  and  C_3
REMARK    3  A    between atoms: C_3  and  N_4
REMARK    4  A    between atoms: N_4  and  C_5
REMARK    5  A    between atoms: C_5  and  C_6
REMARK    6  A    between atoms: C_6  and  C_7
REMARK    7  A    between atoms: C_8  and  C_10
REMARK    8  A    between atoms: C_15  and  C_16
REMARK    9  A    between atoms: N_18  and  C_19
REMARK   10  A    between atoms: C_23  and  C_24
REMARK   11  A    between atoms: C_24  and  N_25
REMARK   12  A    between atoms: N_25  and  C_26
REMARK   13  A    between atoms: N_25  and  C_27
REMARK                            x       y       z     vdW  Elec       q    Type
REMARK                         _______ _______ _______ _____ _____    ______ ____
ROOT
ATOM      1  C   UNL     1       2.862   5.417  18.140  0.00  0.00    +0.000 C 
ATOM      2  C   UNL     1       3.085   6.750  18.076  0.00  0.00    +0.000 C 
ATOM      3  C   UNL     1       2.276   7.754  18.803  0.00  0.00    +0.000 A 
ATOM      4  C   UNL     1       1.971   8.944  18.119  0.00  0.00    +0.000 A 
ATOM      5  C   UNL     1       1.151   9.914  18.705  0.00  0.00    +0.000 A 
ATOM      6  C   UNL     1       0.632   9.725  19.991  0.00  0.00    +0.000 A 
ATOM      7  C   UNL     1       0.956   8.565  20.692  0.00  0.00    +0.000 A 
ATOM      8  C   UNL     1       1.775   7.579  20.116  0.00  0.00    +0.000 A 
ATOM      9  N   UNL     1       2.059   6.483  20.946  0.00  0.00    +0.000 NA
ATOM     10  C   UNL     1       2.057   5.272  20.484  0.00  0.00    +0.000 C 
ATOM     11  N   UNL     1       2.293   4.248  21.365  0.00  0.00    +0.000 N 
ATOM     12  C   UNL     1       1.784   4.900  19.039  0.00  0.00    +0.000 C 
ATOM     13  H   UNL     1       2.692   4.565  22.242  0.00  0.00    +0.000 HD
ATOM     14  H   UNL     1       2.716   3.403  21.002  0.00  0.00    +0.000 HD
ENDROOT
BRANCH   6  15
ATOM     15  C   UNL     1      -0.316  10.739  20.521  0.00  0.00    +0.000 C 
ATOM     16  O   UNL     1      -1.064  11.280  19.714  0.00  0.00    +0.000 OA
ATOM     17  N   UNL     1      -0.234  11.040  21.871  0.00  0.00    +0.000 N 
ATOM     18  H   UNL     1       0.552  10.680  22.400  0.00  0.00    +0.000 HD
BRANCH  17  19
ATOM     19  C   UNL     1      -1.023  12.037  22.512  0.00  0.00    +0.000 A 
ATOM     20  C   UNL     1      -2.253  11.785  23.120  0.00  0.00    +0.000 A 
ATOM     21  N   UNL     1      -3.039  12.729  23.697  0.00  0.00    +0.000 NA
ATOM     22  C   UNL     1      -2.598  14.000  23.632  0.00  0.00    +0.000 A 
ATOM     23  C   UNL     1      -1.393  14.379  23.047  0.00  0.00    +0.000 A 
ATOM     24  C   UNL     1      -0.575  13.363  22.523  0.00  0.00    +0.000 A 
BRANCH  23  25
ATOM     25  C   UNL     1      -1.036  15.843  22.951  0.00  0.00    +0.000 C 
BRANCH  25  26
ATOM     26  N   UNL     1       0.293  16.092  22.360  0.00  0.00    +0.000 NA
ATOM     27  C   UNL     1       0.209  16.838  21.098  0.00  0.00    +0.000 C 
ATOM     28  C   UNL     1       1.124  16.848  23.305  0.00  0.00    +0.000 C 
ENDBRANCH  25  26
ENDBRANCH  23  25
ENDBRANCH  17  19
ENDBRANCH   6  15
BRANCH   1  30
ATOM     29  N   UNL     1       5.172   4.757  17.212  0.00  0.00    +0.000 N 
ATOM     30  C   UNL     1       3.776   4.546  17.292  0.00  0.00    +0.000 C 
ATOM     31  O   UNL     1       3.254   3.615  16.667  0.00  0.00    +0.000 OA
BRANCH  29  32
ATOM     32  C   UNL     1       5.925   3.830  16.343  0.00  0.00    +0.000 C 
BRANCH  32  34
ATOM     33  C   UNL     1       7.038   4.955  14.323  0.00  0.00    +0.000 C 
ATOM     34  C   UNL     1       5.878   4.118  14.837  0.00  0.00    +0.000 C 
ENDBRANCH  32  34
ENDBRANCH  29  32
BRANCH  29  35
ATOM     35  C   UNL     1       5.900   5.681  18.079  0.00  0.00    +0.000 C 
BRANCH  35  36
ATOM     36  C   UNL     1       7.391   5.957  17.896  0.00  0.00    +0.000 C 
ATOM     37  C   UNL     1       7.588   7.430  17.533  0.00  0.00    +0.000 C 
ENDBRANCH  35  36
ENDBRANCH  29  35
ENDBRANCH   1  30
TORSDOF 9
ENDMDL
MODEL 4
REMARK VINA RESULT:      -8.2      1.248      2.055
REMARK  Name = 
REMARK  13 active torsions:
REMARK  status: ('A' for Active; 'I' for Inactive)
REMARK    1  A    between atoms: C_1  and  C_2
REMARK    2  A    between atoms: C_2  and  C_3
REMARK    3  A    between atoms: C_3  and  N_4
REMARK    4  A    between atoms: N_4  and  C_5
REMARK    5  A    between atoms: C_5  and  C_6
REMARK    6  A    between atoms: C_6  and  C_7
REMARK    7  A    between atoms: C_8  and  C_10
REMARK    8  A    between atoms: C_15  and  C_16
REMARK    9  A    between atoms: N_18  and  C_19
REMARK   10  A    between atoms: C_23  and  C_24
REMARK   11  A    between atoms: C_24  and  N_25
REMARK   12  A    between atoms: N_25  and  C_26
REMARK   13  A    between atoms: N_25  and  C_27
REMARK                            x       y       z     vdW  Elec       q    Type
REMARK                         _______ _______ _______ _____ _____    ______ ____
ROOT
ATOM      1  C   UNL     1       3.208   5.443  17.891  0.00  0.00    +0.000 C 
ATOM      2  C   UNL     1       3.390   6.783  17.896  0.00  0.00    +0.000 C 
ATOM      3  C   UNL     1       2.505   7.731  18.611  0.00  0.00    +0.000 A 
ATOM      4  C   UNL     1       2.204   8.939  17.958  0.00  0.00    +0.000 A 
ATOM      5  C   UNL     1       1.318   9.857  18.532  0.00  0.00    +0.000 A 
ATOM      6  C   UNL     1       0.728   9.597  19.773  0.00  0.00    +0.000 A 
ATOM      7  C   UNL     1       1.047   8.419  20.446  0.00  0.00    +0.000 A 
ATOM      8  C   UNL     1       1.931   7.484  19.881  0.00  0.00    +0.000 A 
ATOM      9  N   UNL     1       2.200   6.362  20.683  0.00  0.00    +0.000 NA
ATOM     10  C   UNL     1       2.266   5.173  20.172  0.00  0.00    +0.000 C 
ATOM     11  N   UNL     1       2.481   4.120  21.023  0.00  0.00    +0.000 N 
ATOM     12  C   UNL     1       2.095   4.855  18.698  0.00  0.00    +0.000 C 
ATOM     13  H   UNL     1       2.815   4.410  21.935  0.00  0.00    +0.000 HD
ATOM     14  H   UNL     1       2.953   3.304  20.653  0.00  0.00    +0.000 HD
ENDROOT
BRANCH   6  15
ATOM     15  C   UNL     1      -0.284  10.558  20.284  0.00  0.00    +0.000 C 
ATOM     16  O   UNL     1      -1.197  10.864  19.526  0.00  0.00    +0.000 OA
ATOM     17  N   UNL     1      -0.078  11.084  21.550  0.00  0.00    +0.000 N 
ATOM     18  H   UNL     1       0.812  10.916  22.004  0.00  0.00    +0.000 HD
BRANCH  17  19
ATOM     19  C   UNL     1      -0.917  12.066  22.148  0.00  0.00    +0.000 A 
ATOM     20  C   UNL     1      -1.994  11.766  22.983  0.00  0.00    +0.000 A 
ATOM     21  N   UNL     1      -2.832  12.686  23.527  0.00  0.00    +0.000 NA
ATOM     22  C   UNL     1      -2.611  13.971  23.192  0.00  0.00    +0.000 A 
ATOM     23  C   UNL     1      -1.575  14.396  22.366  0.00  0.00    +0.000 A 
ATOM     24  C   UNL     1      -0.688  13.420  21.879  0.00  0.00    +0.000 A 
BRANCH  23  25
ATOM     25  C   UNL     1      -1.470  15.854  21.985  0.00  0.00    +0.000 C 
BRANCH  25  26
ATOM     26  N   UNL     1      -2.022  16.160  20.650  0.00  0.00    +0.000 NA
ATOM     27  C   UNL     1      -3.116  17.137  20.712  0.00  0.00    +0.000 C 
ATOM     28  C   UNL     1      -0.961  16.687  19.784  0.00  0.00    +0.000 C 
ENDBRANCH  25  26
ENDBRANCH  23  25
ENDBRANCH  17  19
ENDBRANCH   6  15
BRANCH   1  30
ATOM     29  N   UNL     1       5.439   5.166  16.634  0.00  0.00    +0.000 N 
ATOM     30  C   UNL     1       4.200   4.638  17.067  0.00  0.00    +0.000 C 
ATOM     31  O   UNL     1       3.893   3.473  16.786  0.00  0.00    +0.000 OA
BRANCH  29  32
ATOM     32  C   UNL     1       6.294   4.262  15.839  0.00  0.00    +0.000 C 
BRANCH  32  34
ATOM     33  C   UNL     1       6.044   3.788  13.329  0.00  0.00    +0.000 C 
ATOM     34  C   UNL     1       6.604   4.707  14.403  0.00  0.00    +0.000 C 
ENDBRANCH  32  34
ENDBRANCH  29  32
BRANCH  29  35
ATOM     35  C   UNL     1       5.980   6.440  17.100  0.00  0.00    +0.000 C 
BRANCH  35  36
ATOM     36  C   UNL     1       7.412   6.573  17.612  0.00  0.00    +0.000 C 
ATOM     37  C   UNL     1       7.802   8.052  17.637  0.00  0.00    +0.000 C 
ENDBRANCH  35  36
ENDBRANCH  29  35
ENDBRANCH   1  30
TORSDOF 9
ENDMDL
MODEL 5
REMARK VINA RESULT:      -8.1      1.362      1.450
REMARK  Name = 
REMARK  13 active torsions:
REMARK  status: ('A' for Active; 'I' for Inactive)
REMARK    1  A    between atoms: C_1  and  C_2
REMARK    2  A    between atoms: C_2  and  C_3
REMARK    3  A    between atoms: C_3  and  N_4
REMARK    4  A    between atoms: N_4  and  C_5
REMARK    5  A    between atoms: C_5  and  C_6
REMARK    6  A    between atoms: C_6  and  C_7
REMARK    7  A    between atoms: C_8  and  C_10
REMARK    8  A    between atoms: C_15  and  C_16
REMARK    9  A    between atoms: N_18  and  C_19
REMARK   10  A    between atoms: C_23  and  C_24
REMARK   11  A    between atoms: C_24  and  N_25
REMARK   12  A    between atoms: N_25  and  C_26
REMARK   13  A    between atoms: N_25  and  C_27
REMARK                            x       y       z     vdW  Elec       q    Type
REMARK                         _______ _______ _______ _____ _____    ______ ____
ROOT
ATOM      1  C   UNL     1       2.748   5.372  18.124  0.00  0.00    +0.000 C 
ATOM      2  C   UNL     1       2.999   6.697  18.026  0.00  0.00    +0.000 C 
ATOM      3  C   UNL     1       2.254   7.733  18.776  0.00  0.00    +0.000 A 
ATOM      4  C   UNL     1       1.943   8.920  18.088  0.00  0.00    +0.000 A 
ATOM      5  C   UNL     1       1.179   9.919  18.700  0.00  0.00    +0.000 A 
ATOM      6  C   UNL     1       0.723   9.763  20.013  0.00  0.00    +0.000 A 
ATOM      7  C   UNL     1       1.054   8.607  20.717  0.00  0.00    +0.000 A 
ATOM      8  C   UNL     1       1.817   7.592  20.116  0.00  0.00    +0.000 A 
ATOM      9  N   UNL     1       2.118   6.502  20.949  0.00  0.00    +0.000 NA
ATOM     10  C   UNL     1       2.063   5.284  20.509  0.00  0.00    +0.000 C 
ATOM     11  N   UNL     1       2.318   4.269  21.394  0.00  0.00    +0.000 N 
ATOM     12  C   UNL     1       1.706   4.897  19.086  0.00  0.00    +0.000 C 
ATOM     13  H   UNL     1       2.770   4.589  22.243  0.00  0.00    +0.000 HD
ATOM     14  H   UNL     1       2.701   3.407  21.024  0.00  0.00    +0.000 HD
ENDROOT
BRANCH   6  15
ATOM     15  C   UNL     1      -0.171  10.809  20.574  0.00  0.00    +0.000 C 
ATOM     16  O   UNL     1      -0.428  10.741  21.771  0.00  0.00    +0.000 OA
ATOM     17  N   UNL     1      -0.697  11.737  19.689  0.00  0.00    +0.000 N 
ATOM     18  H   UNL     1      -0.579  11.578  18.695  0.00  0.00    +0.000 HD
BRANCH  17  19
ATOM     19  C   UNL     1      -1.622  12.754  20.061  0.00  0.00    +0.000 A 
ATOM     20  C   UNL     1      -1.254  14.059  20.389  0.00  0.00    +0.000 A 
ATOM     21  N   UNL     1      -2.115  15.029  20.787  0.00  0.00    +0.000 NA
ATOM     22  C   UNL     1      -3.409  14.673  20.904  0.00  0.00    +0.000 A 
ATOM     23  C   UNL     1      -3.898  13.403  20.611  0.00  0.00    +0.000 A 
ATOM     24  C   UNL     1      -2.985  12.447  20.136  0.00  0.00    +0.000 A 
BRANCH  23  25
ATOM     25  C   UNL     1      -5.354  13.087  20.860  0.00  0.00    +0.000 C 
BRANCH  25  26
ATOM     26  N   UNL     1      -5.990  13.967  21.860  0.00  0.00    +0.000 NA
ATOM     27  C   UNL     1      -7.289  14.478  21.403  0.00  0.00    +0.000 C 
ATOM     28  C   UNL     1      -6.183  13.235  23.116  0.00  0.00    +0.000 C 
ENDBRANCH  25  26
ENDBRANCH  23  25
ENDBRANCH  17  19
ENDBRANCH   6  15
BRANCH   1  30
ATOM     29  N   UNL     1       4.969   4.698  17.009  0.00  0.00    +0.000 N 
ATOM     30  C   UNL     1       3.594   4.465  17.245  0.00  0.00    +0.000 C 
ATOM     31  O   UNL     1       3.037   3.484  16.738  0.00  0.00    +0.000 OA
BRANCH  29  32
ATOM     32  C   UNL     1       5.656   3.731  16.130  0.00  0.00    +0.000 C 
BRANCH  32  34
ATOM     33  C   UNL     1       6.086   3.889  13.605  0.00  0.00    +0.000 C 
ATOM     34  C   UNL     1       6.508   4.323  15.000  0.00  0.00    +0.000 C 
ENDBRANCH  32  34
ENDBRANCH  29  32
BRANCH  29  35
ATOM     35  C   UNL     1       5.756   5.692  17.736  0.00  0.00    +0.000 C 
BRANCH  35  36
ATOM     36  C   UNL     1       6.423   5.376  19.072  0.00  0.00    +0.000 C 
ATOM     37  C   UNL     1       7.867   5.881  19.045  0.00  0.00    +0.000 C 
ENDBRANCH  35  36
ENDBRANCH  29  35
ENDBRANCH   1  30
TORSDOF 9
ENDMDL
MODEL 6
REMARK VINA RESULT:      -8.1      1.050      1.233
REMARK  Name = 
REMARK  13 active torsions:
REMARK  status: ('A' for Active; 'I' for Inactive)
REMARK    1  A    between atoms: C_1  and  C_2
REMARK    2  A    between atoms: C_2  and  C_3
REMARK    3  A    between atoms: C_3  and  N_4
REMARK    4  A    between atoms: N_4  and  C_5
REMARK    5  A    between atoms: C_5  and  C_6
REMARK    6  A    between atoms: C_6  and  C_7
REMARK    7  A    between atoms: C_8  and  C_10
REMARK    8  A    between atoms: C_15  and  C_16
REMARK    9  A    between atoms: N_18  and  C_19
REMARK   10  A    between atoms: C_23  and  C_24
REMARK   11  A    between atoms: C_24  and  N_25
REMARK   12  A    between atoms: N_25  and  C_26
REMARK   13  A    between atoms: N_25  and  C_27
REMARK                            x       y       z     vdW  Elec       q    Type
REMARK                         _______ _______ _______ _____ _____    ______ ____
ROOT
ATOM      1  C   UNL     1       3.244   5.740  17.898  0.00  0.00    +0.000 C 
ATOM      2  C   UNL     1       3.413   7.076  17.770  0.00  0.00    +0.000 C 
ATOM      3  C   UNL     1       2.503   8.080  18.366  0.00  0.00    +0.000 A 
ATOM      4  C   UNL     1       2.205   9.212  17.588  0.00  0.00    +0.000 A 
ATOM      5  C   UNL     1       1.297  10.173  18.047  0.00  0.00    +0.000 A 
ATOM      6  C   UNL     1       0.683  10.033  19.297  0.00  0.00    +0.000 A 
ATOM      7  C   UNL     1       0.999   8.933  20.091  0.00  0.00    +0.000 A 
ATOM      8  C   UNL     1       1.904   7.956  19.643  0.00  0.00    +0.000 A 
ATOM      9  N   UNL     1       2.167   6.925  20.560  0.00  0.00    +0.000 NA
ATOM     10  C   UNL     1       2.257   5.691  20.175  0.00  0.00    +0.000 C 
ATOM     11  N   UNL     1       2.463   4.732  21.133  0.00  0.00    +0.000 N 
ATOM     12  C   UNL     1       2.120   5.224  18.737  0.00  0.00    +0.000 C 
ATOM     13  H   UNL     1       2.775   5.118  22.017  0.00  0.00    +0.000 HD
ATOM     14  H   UNL     1       2.952   3.889  20.857  0.00  0.00    +0.000 HD
ENDROOT
BRANCH   6  15
ATOM     15  C   UNL     1      -0.349  11.029  19.686  0.00  0.00    +0.000 C 
ATOM     16  O   UNL     1      -1.520  10.731  19.476  0.00  0.00    +0.000 OA
ATOM     17  N   UNL     1       0.095  12.239  20.193  0.00  0.00    +0.000 N 
ATOM     18  H   UNL     1       1.084  12.454  20.135  0.00  0.00    +0.000 HD
BRANCH  17  19
ATOM     19  C   UNL     1      -0.765  13.318  20.544  0.00  0.00    +0.000 A 
ATOM     20  C   UNL     1      -0.716  14.578  19.948  0.00  0.00    +0.000 A 
ATOM     21  N   UNL     1      -1.497  15.632  20.299  0.00  0.00    +0.000 NA
ATOM     22  C   UNL     1      -2.348  15.434  21.324  0.00  0.00    +0.000 A 
ATOM     23  C   UNL     1      -2.485  14.226  22.001  0.00  0.00    +0.000 A 
ATOM     24  C   UNL     1      -1.708  13.140  21.563  0.00  0.00    +0.000 A 
BRANCH  23  25
ATOM     25  C   UNL     1      -3.408  14.138  23.194  0.00  0.00    +0.000 C 
BRANCH  25  26
ATOM     26  N   UNL     1      -4.138  12.859  23.287  0.00  0.00    +0.000 NA
ATOM     27  C   UNL     1      -4.339  12.434  24.678  0.00  0.00    +0.000 C 
ATOM     28  C   UNL     1      -5.445  12.984  22.634  0.00  0.00    +0.000 C 
ENDBRANCH  25  26
ENDBRANCH  23  25
ENDBRANCH  17  19
ENDBRANCH   6  15
BRANCH   1  30
ATOM     29  N   UNL     1       5.645   5.166  17.160  0.00  0.00    +0.000 N 
ATOM     30  C   UNL     1       4.262   4.867  17.180  0.00  0.00    +0.000 C 
ATOM     31  O   UNL     1       3.840   3.855  16.608  0.00  0.00    +0.000 OA
BRANCH  29  32
ATOM     32  C   UNL     1       6.507   4.225  16.419  0.00  0.00    +0.000 C 
BRANCH  32  34
ATOM     33  C   UNL     1       6.045   3.872  13.919  0.00  0.00    +0.000 C 
ATOM     34  C   UNL     1       6.852   4.611  14.974  0.00  0.00    +0.000 C 
ENDBRANCH  32  34
ENDBRANCH  29  32
BRANCH  29  35
ATOM     35  C   UNL     1       6.258   6.204  17.985  0.00  0.00    +0.000 C 
BRANCH  35  36
ATOM     36  C   UNL     1       7.065   7.349  17.377  0.00  0.00    +0.000 C 
ATOM     37  C   UNL     1       8.192   7.735  18.337  0.00  0.00    +0.000 C 
ENDBRANCH  35  36
ENDBRANCH  29  35
ENDBRANCH   1  30
TORSDOF 9
ENDMDL
MODEL 7
REMARK VINA RESULT:      -8.0      2.050     11.488
REMARK  Name = 
REMARK  13 active torsions:
REMARK  status: ('A' for Active; 'I' for Inactive)
REMARK    1  A    between atoms: C_1  and  C_2
REMARK    2  A    between atoms: C_2  and  C_3
REMARK    3  A    between atoms: C_3  and  N_4
REMARK    4  A    between atoms: N_4  and  C_5
REMARK    5  A    between atoms: C_5  and  C_6
REMARK    6  A    between atoms: C_6  and  C_7
REMARK    7  A    between atoms: C_8  and  C_10
REMARK    8  A    between atoms: C_15  and  C_16
REMARK    9  A    between atoms: N_18  and  C_19
REMARK   10  A    between atoms: C_23  and  C_24
REMARK   11  A    between atoms: C_24  and  N_25
REMARK   12  A    between atoms: N_25  and  C_26
REMARK   13  A    between atoms: N_25  and  C_27
REMARK                            x       y       z     vdW  Elec       q    Type
REMARK                         _______ _______ _______ _____ _____    ______ ____
ROOT
ATOM      1  C   UNL     1      -2.287  12.234  22.256  0.00  0.00    +0.000 C 
ATOM      2  C   UNL     1      -1.305  11.476  22.796  0.00  0.00    +0.000 C 
ATOM      3  C   UNL     1      -0.408  10.606  22.002  0.00  0.00    +0.000 A 
ATOM      4  C   UNL     1      -0.087   9.352  22.550  0.00  0.00    +0.000 A 
ATOM      5  C   UNL     1       0.696   8.440  21.832  0.00  0.00    +0.000 A 
ATOM      6  C   UNL     1       1.187   8.768  20.564  0.00  0.00    +0.000 A 
ATOM      7  C   UNL     1       0.905  10.022  20.027  0.00  0.00    +0.000 A 
ATOM      8  C   UNL     1       0.117  10.947  20.732  0.00  0.00    +0.000 A 
ATOM      9  N   UNL     1      -0.053  12.188  20.097  0.00  0.00    +0.000 NA
ATOM     10  C   UNL     1      -1.201  12.790  20.094  0.00  0.00    +0.000 C 
ATOM     11  N   UNL     1      -1.305  13.973  19.409  0.00  0.00    +0.000 N 
ATOM     12  C   UNL     1      -2.453  12.262  20.771  0.00  0.00    +0.000 C 
ATOM     13  H   UNL     1      -0.403  14.381  19.187  0.00  0.00    +0.000 HD
ATOM     14  H   UNL     1      -1.991  14.644  19.732  0.00  0.00    +0.000 HD
ENDROOT
BRANCH   6  15
ATOM     15  C   UNL     1       1.924   7.723  19.806  0.00  0.00    +0.000 C 
ATOM     16  O   UNL     1       2.095   7.918  18.608  0.00  0.00    +0.000 OA
ATOM     17  N   UNL     1       2.300   6.583  20.498  0.00  0.00    +0.000 N 
ATOM     18  H   UNL     1       1.932   6.440  21.431  0.00  0.00    +0.000 HD
BRANCH  17  19
ATOM     19  C   UNL     1       2.947   5.466  19.897  0.00  0.00    +0.000 A 
ATOM     20  C   UNL     1       2.425   4.172  19.894  0.00  0.00    +0.000 A 
ATOM     21  N   UNL     1       3.046   3.087  19.365  0.00  0.00    +0.000 NA
ATOM     22  C   UNL     1       4.271   3.291  18.846  0.00  0.00    +0.000 A 
ATOM     23  C   UNL     1       4.901   4.531  18.794  0.00  0.00    +0.000 A 
ATOM     24  C   UNL     1       4.196   5.641  19.290  0.00  0.00    +0.000 A 
BRANCH  23  25
ATOM     25  C   UNL     1       6.313   4.632  18.268  0.00  0.00    +0.000 C 
BRANCH  25  26
ATOM     26  N   UNL     1       6.446   5.511  17.090  0.00  0.00    +0.000 NA
ATOM     27  C   UNL     1       7.334   6.652  17.345  0.00  0.00    +0.000 C 
ATOM     28  C   UNL     1       6.971   4.745  15.954  0.00  0.00    +0.000 C 
ENDBRANCH  25  26
ENDBRANCH  23  25
ENDBRANCH  17  19
ENDBRANCH   6  15
BRANCH   1  30
ATOM     29  N   UNL     1      -2.769  14.327  23.678  0.00  0.00    +0.000 N 
ATOM     30  C   UNL     1      -3.130  13.032  23.238  0.00  0.00    +0.000 C 
ATOM     31  O   UNL     1      -4.175  12.510  23.645  0.00  0.00    +0.000 OA
BRANCH  29  32
ATOM     32  C   UNL     1      -3.689  14.973  24.636  0.00  0.00    +0.000 C 
BRANCH  32  34
ATOM     33  C   UNL     1      -6.055  15.535  23.819  0.00  0.00    +0.000 C 
ATOM     34  C   UNL     1      -4.639  16.031  24.060  0.00  0.00    +0.000 C 
ENDBRANCH  32  34
ENDBRANCH  29  32
BRANCH  29  35
ATOM     35  C   UNL     1      -1.683  15.106  23.089  0.00  0.00    +0.000 C 
BRANCH  35  36
ATOM     36  C   UNL     1      -1.931  16.144  21.997  0.00  0.00    +0.000 C 
ATOM     37  C   UNL     1      -0.920  17.282  22.147  0.00  0.00    +0.000 C 
ENDBRANCH  35  36
ENDBRANCH  29  35
ENDBRANCH   1  30
TORSDOF 9
ENDMDL
MODEL 8
REMARK VINA RESULT:      -8.0      1.012      1.258
REMARK  Name = 
REMARK  13 active torsions:
REMARK  status: ('A' for Active; 'I' for Inactive)
REMARK    1  A    between atoms: C_1  and  C_2
REMARK    2  A    between atoms: C_2  and  C_3
REMARK    3  A    between atoms: C_3  and  N_4
REMARK    4  A    between atoms: N_4  and  C_5
REMARK    5  A    between atoms: C_5  and  C_6
REMARK    6  A    between atoms: C_6  and  C_7
REMARK    7  A    between atoms: C_8  and  C_10
REMARK    8  A    between atoms: C_15  and  C_16
REMARK    9  A    between atoms: N_18  and  C_19
REMARK   10  A    between atoms: C_23  and  C_24
REMARK   11  A    between atoms: C_24  and  N_25
REMARK   12  A    between atoms: N_25  and  C_26
REMARK   13  A    between atoms: N_25  and  C_27
REMARK                            x       y       z     vdW  Elec       q    Type
REMARK                         _______ _______ _______ _____ _____    ______ ____
ROOT
ATOM      1  C   UNL     1       2.734   5.628  18.102  0.00  0.00    +0.000 C 
ATOM      2  C   UNL     1       2.988   6.946  17.933  0.00  0.00    +0.000 C 
ATOM      3  C   UNL     1       2.225   8.023  18.603  0.00  0.00    +0.000 A 
ATOM      4  C   UNL     1       1.931   9.167  17.840  0.00  0.00    +0.000 A 
ATOM      5  C   UNL     1       1.152  10.199  18.374  0.00  0.00    +0.000 A 
ATOM      6  C   UNL     1       0.665  10.119  19.683  0.00  0.00    +0.000 A 
ATOM      7  C   UNL     1       0.980   9.006  20.461  0.00  0.00    +0.000 A 
ATOM      8  C   UNL     1       1.757   7.959  19.938  0.00  0.00    +0.000 A 
ATOM      9  N   UNL     1       2.037   6.920  20.841  0.00  0.00    +0.000 NA
ATOM     10  C   UNL     1       1.993   5.678  20.471  0.00  0.00    +0.000 C 
ATOM     11  N   UNL     1       2.227   4.717  21.419  0.00  0.00    +0.000 N 
ATOM     12  C   UNL     1       1.670   5.208  19.064  0.00  0.00    +0.000 C 
ATOM     13  H   UNL     1       2.659   5.086  22.259  0.00  0.00    +0.000 HD
ATOM     14  H   UNL     1       2.619   3.836  21.109  0.00  0.00    +0.000 HD
ENDROOT
BRANCH   6  15
ATOM     15  C   UNL     1      -0.243  11.195  20.161  0.00  0.00    +0.000 C 
ATOM     16  O   UNL     1      -0.402  12.160  19.422  0.00  0.00    +0.000 OA
ATOM     17  N   UNL     1      -0.782  11.054  21.429  0.00  0.00    +0.000 N 
ATOM     18  H   UNL     1      -0.424  10.318  22.028  0.00  0.00    +0.000 HD
BRANCH  17  19
ATOM     19  C   UNL     1      -1.609  12.030  22.054  0.00  0.00    +0.000 A 
ATOM     20  C   UNL     1      -1.172  12.892  23.060  0.00  0.00    +0.000 A 
ATOM     21  N   UNL     1      -1.957  13.798  23.698  0.00  0.00    +0.000 NA
ATOM     22  C   UNL     1      -3.256  13.823  23.344  0.00  0.00    +0.000 A 
ATOM     23  C   UNL     1      -3.812  13.011  22.360  0.00  0.00    +0.000 A 
ATOM     24  C   UNL     1      -2.952  12.135  21.675  0.00  0.00    +0.000 A 
BRANCH  23  25
ATOM     25  C   UNL     1      -5.299  13.060  22.102  0.00  0.00    +0.000 C 
BRANCH  25  26
ATOM     26  N   UNL     1      -5.743  12.166  21.015  0.00  0.00    +0.000 NA
ATOM     27  C   UNL     1      -7.080  11.612  21.262  0.00  0.00    +0.000 C 
ATOM     28  C   UNL     1      -5.759  12.899  19.744  0.00  0.00    +0.000 C 
ENDBRANCH  25  26
ENDBRANCH  23  25
ENDBRANCH  17  19
ENDBRANCH   6  15
BRANCH   1  30
ATOM     29  N   UNL     1       5.011   4.634  17.421  0.00  0.00    +0.000 N 
ATOM     30  C   UNL     1       3.602   4.673  17.298  0.00  0.00    +0.000 C 
ATOM     31  O   UNL     1       3.028   3.901  16.520  0.00  0.00    +0.000 OA
BRANCH  29  32
ATOM     32  C   UNL     1       5.715   3.654  16.570  0.00  0.00    +0.000 C 
BRANCH  32  34
ATOM     33  C   UNL     1       5.812   4.038  14.035  0.00  0.00    +0.000 C 
ATOM     34  C   UNL     1       6.497   4.224  15.379  0.00  0.00    +0.000 C 
ENDBRANCH  32  34
ENDBRANCH  29  32
BRANCH  29  35
ATOM     35  C   UNL     1       5.750   5.343  18.463  0.00  0.00    +0.000 C 
BRANCH  35  36
ATOM     36  C   UNL     1       6.898   6.295  18.135  0.00  0.00    +0.000 C 
ATOM     37  C   UNL     1       8.093   5.969  19.032  0.00  0.00    +0.000 C 
ENDBRANCH  35  36
ENDBRANCH  29  35
ENDBRANCH   1  30
TORSDOF 9
ENDMDL
MODEL 9
REMARK VINA RESULT:      -7.9      1.730      2.237
REMARK  Name = 
REMARK  13 active torsions:
REMARK  status: ('A' for Active; 'I' for Inactive)
REMARK    1  A    between atoms: C_1  and  C_2
REMARK    2  A    between atoms: C_2  and  C_3
REMARK    3  A    between atoms: C_3  and  N_4
REMARK    4  A    between atoms: N_4  and  C_5
REMARK    5  A    between atoms: C_5  and  C_6
REMARK    6  A    between atoms: C_6  and  C_7
REMARK    7  A    between atoms: C_8  and  C_10
REMARK    8  A    between atoms: C_15  and  C_16
REMARK    9  A    between atoms: N_18  and  C_19
REMARK   10  A    between atoms: C_23  and  C_24
REMARK   11  A    between atoms: C_24  and  N_25
REMARK   12  A    between atoms: N_25  and  C_26
REMARK   13  A    between atoms: N_25  and  C_27
REMARK                            x       y       z     vdW  Elec       q    Type
REMARK                         _______ _______ _______ _____ _____    ______ ____
ROOT
ATOM      1  C   UNL     1       2.986   5.578  18.119  0.00  0.00    +0.000 C 
ATOM      2  C   UNL     1       3.204   6.902  17.952  0.00  0.00    +0.000 C 
ATOM      3  C   UNL     1       2.362   7.957  18.562  0.00  0.00    +0.000 A 
ATOM      4  C   UNL     1       2.077   9.083  17.770  0.00  0.00    +0.000 A 
ATOM      5  C   UNL     1       1.230  10.091  18.242  0.00  0.00    +0.000 A 
ATOM      6  C   UNL     1       0.664  10.005  19.519  0.00  0.00    +0.000 A 
ATOM      7  C   UNL     1       0.967   8.911  20.326  0.00  0.00    +0.000 A 
ATOM      8  C   UNL     1       1.812   7.887  19.865  0.00  0.00    +0.000 A 
ATOM      9  N   UNL     1       2.071   6.867  20.795  0.00  0.00    +0.000 NA
ATOM     10  C   UNL     1       2.094   5.621  20.436  0.00  0.00    +0.000 C 
ATOM     11  N   UNL     1       2.301   4.677  21.407  0.00  0.00    +0.000 N 
ATOM     12  C   UNL     1       1.878   5.128  19.017  0.00  0.00    +0.000 C 
ATOM     13  H   UNL     1       2.665   5.069  22.268  0.00  0.00    +0.000 HD
ATOM     14  H   UNL     1       2.743   3.808  21.132  0.00  0.00    +0.000 HD
ENDROOT
BRANCH   6  15
ATOM     15  C   UNL     1      -0.310  11.051  19.927  0.00  0.00    +0.000 C 
ATOM     16  O   UNL     1      -1.467  10.918  19.544  0.00  0.00    +0.000 OA
ATOM     17  N   UNL     1       0.180  12.127  20.649  0.00  0.00    +0.000 N 
ATOM     18  H   UNL     1       1.185  12.235  20.735  0.00  0.00    +0.000 HD
BRANCH  17  19
ATOM     19  C   UNL     1      -0.610  13.241  21.050  0.00  0.00    +0.000 A 
ATOM     20  C   UNL     1      -1.090  14.212  20.170  0.00  0.00    +0.000 A 
ATOM     21  N   UNL     1      -1.808  15.304  20.539  0.00  0.00    +0.000 NA
ATOM     22  C   UNL     1      -2.028  15.461  21.858  0.00  0.00    +0.000 A 
ATOM     23  C   UNL     1      -1.597  14.566  22.833  0.00  0.00    +0.000 A 
ATOM     24  C   UNL     1      -0.917  13.413  22.405  0.00  0.00    +0.000 A 
BRANCH  23  25
ATOM     25  C   UNL     1      -1.822  14.884  24.292  0.00  0.00    +0.000 C 
BRANCH  25  26
ATOM     26  N   UNL     1      -0.636  15.445  24.968  0.00  0.00    +0.000 NA
ATOM     27  C   UNL     1      -0.167  16.682  24.331  0.00  0.00    +0.000 C 
ATOM     28  C   UNL     1      -0.950  15.723  26.374  0.00  0.00    +0.000 C 
ENDBRANCH  25  26
ENDBRANCH  23  25
ENDBRANCH  17  19
ENDBRANCH   6  15
BRANCH   1  30
ATOM     29  N   UNL     1       5.343   4.771  17.464  0.00  0.00    +0.000 N 
ATOM     30  C   UNL     1       3.936   4.648  17.382  0.00  0.00    +0.000 C 
ATOM     31  O   UNL     1       3.434   3.747  16.698  0.00  0.00    +0.000 OA
BRANCH  29  32
ATOM     32  C   UNL     1       6.132   3.795  16.688  0.00  0.00    +0.000 C 
BRANCH  32  34
ATOM     33  C   UNL     1       5.816   5.483  14.781  0.00  0.00    +0.000 C 
ATOM     34  C   UNL     1       6.420   4.160  15.225  0.00  0.00    +0.000 C 
ENDBRANCH  32  34
ENDBRANCH  29  32
BRANCH  29  35
ATOM     35  C   UNL     1       6.021   5.653  18.411  0.00  0.00    +0.000 C 
BRANCH  35  36
ATOM     36  C   UNL     1       7.487   6.045  18.244  0.00  0.00    +0.000 C 
ATOM     37  C   UNL     1       7.567   7.403  17.545  0.00  0.00    +0.000 C 
ENDBRANCH  35  36
ENDBRANCH  29  35
ENDBRANCH   1  30
TORSDOF 9
ENDMDL
