MODEL 1
REMARK VINA RESULT:      -8.5      0.000      0.000
REMARK  Name = 
REMARK  12 active torsions:
REMARK  status: ('A' for Active; 'I' for Inactive)
REMARK    1  A    between atoms: C_1  and  C_2
REMARK    2  A    between atoms: C_2  and  C_3
REMARK    3  A    between atoms: C_6  and  S_7
REMARK    4  A    between atoms: S_7  and  C_8
REMARK    5  A    between atoms: C_10  and  C_11
REMARK    6  A    between atoms: N_13  and  C_14
REMARK    7  A    between atoms: C_14  and  C_15
REMARK    8  A    between atoms: C_15  and  C_16
REMARK    9  A    between atoms: C_16  and  O_17
REMARK   10  A    between atoms: O_17  and  C_18
REMARK   11  A    between atoms: C_18  and  C_19
REMARK   12  A    between atoms: C_18  and  C_20
REMARK                            x       y       z     vdW  Elec       q    Type
REMARK                         _______ _______ _______ _____ _____    ______ ____
ROOT
ATOM      1  C   UNL     1       2.844   6.766  18.173  0.00  0.00    +0.000 A 
ATOM      2  C   UNL     1       4.090   6.506  18.679  0.00  0.00    +0.000 A 
ATOM      3  C   UNL     1       4.551   5.189  18.600  0.00  0.00    +0.000 A 
ATOM      4  C   UNL     1       3.637   4.139  18.586  0.00  0.00    +0.000 A 
ATOM      5  C   UNL     1       3.979   2.797  18.921  0.00  0.00    +0.000 A 
ATOM      6  C   UNL     1       3.032   1.796  18.881  0.00  0.00    +0.000 A 
ATOM      7  C   UNL     1       1.740   2.111  18.493  0.00  0.00    +0.000 A 
ATOM      8  C   UNL     1       1.409   3.437  18.162  0.00  0.00    +0.000 A 
ATOM      9  C   UNL     1       2.326   4.477  18.222  0.00  0.00    +0.000 A 
ATOM     10  N   UNL     1       1.969   5.759  17.938  0.00  0.00    +0.000 NA
ENDROOT
BRANCH   3  11
ATOM     11  C   UNL     1       5.867   4.939  17.920  0.00  0.00    +0.000 C 
ATOM     12  O   UNL     1       6.818   4.415  18.494  0.00  0.00    +0.000 OA
ATOM     13  N   UNL     1       5.874   5.159  16.564  0.00  0.00    +0.000 N 
ATOM     14  H   UNL     1       5.024   5.427  16.083  0.00  0.00    +0.000 HD
BRANCH  13  15
ATOM     15  C   UNL     1       6.913   4.618  15.724  0.00  0.00    +0.000 C 
BRANCH  15  16
ATOM     16  C   UNL     1       6.275   3.718  14.677  0.00  0.00    +0.000 C 
BRANCH  16  17
ATOM     17  C   UNL     1       6.291   4.425  13.330  0.00  0.00    +0.000 C 
BRANCH  17  18
ATOM     18  O   UNL     1       6.631   3.493  12.313  0.00  0.00    +0.000 OA
BRANCH  18  19
ATOM     19  C   UNL     1       5.574   2.565  12.044  0.00  0.00    +0.000 C 
ATOM     20  C   UNL     1       4.377   3.260  11.397  0.00  0.00    +0.000 C 
ATOM     21  C   UNL     1       6.143   1.510  11.111  0.00  0.00    +0.000 C 
ENDBRANCH  18  19
ENDBRANCH  17  18
ENDBRANCH  16  17
ENDBRANCH  15  16
ENDBRANCH  13  15
ENDBRANCH   3  11
BRANCH   1  22
ATOM     22  S   UNL     1       2.275   8.443  17.934  0.00  0.00    +0.000 S 
BRANCH  22  26
ATOM     23  C   UNL     1      -0.065   9.697  21.785  0.00  0.00    +0.000 A 
ATOM     24  C   UNL     1      -0.327  10.355  20.567  0.00  0.00    +0.000 A 
ATOM     25  C   UNL     1       0.368  10.016  19.384  0.00  0.00    +0.000 A 
ATOM     26  C   UNL     1       1.358   9.032  19.371  0.00  0.00    +0.000 A 
ATOM     27  C   UNL     1       1.601   8.372  20.594  0.00  0.00    +0.000 A 
ATOM     28  C   UNL     1       0.902   8.695  21.777  0.00  0.00    +0.000 A 
BRANCH  23  30
ATOM     29  C   UNL     1      -1.438  11.461  23.030  0.00  0.00    +0.000 C 
ATOM     30  C   UNL     1      -0.797  10.078  23.056  0.00  0.00    +0.000 C 
ENDBRANCH  23  30
ENDBRANCH  22  26
ENDBRANCH   1  22
TORSDOF 9
ENDMDL
MODEL 2
REMARK VINA RESULT:      -8.0      1.856      2.706
REMARK  Name = 
REMARK  12 active torsions:
REMARK  status: ('A' for Active; 'I' for Inactive)
REMARK    1  A    between atoms: C_1  and  C_2
REMARK    2  A    between atoms: C_2  and  C_3
REMARK    3  A    between atoms: C_6  and  S_7
REMARK    4  A    between atoms: S_7  and  C_8
REMARK    5  A    between atoms: C_10  and  C_11
REMARK    6  A    between atoms: N_13  and  C_14
REMARK    7  A    between atoms: C_14  and  C_15
REMARK    8  A    between atoms: C_15  and  C_16
REMARK    9  A    between atoms: C_16  and  O_17
REMARK   10  A    between atoms: O_17  and  C_18
REMARK   11  A    between atoms: C_18  and  C_19
REMARK   12  A    between atoms: C_18  and  C_20
REMARK                            x       y       z     vdW  Elec       q    Type
REMARK                         _______ _______ _______ _____ _____    ______ ____
ROOT
ATOM      1  C   UNL     1       2.639   6.623  18.704  0.00  0.00    +0.000 A 
ATOM      2  C   UNL     1       3.715   6.297  19.485  0.00  0.00    +0.000 A 
ATOM      3  C   UNL     1       4.137   4.965  19.471  0.00  0.00    +0.000 A 
ATOM      4  C   UNL     1       3.219   3.955  19.198  0.00  0.00    +0.000 A 
ATOM      5  C   UNL     1       3.424   2.591  19.555  0.00  0.00    +0.000 A 
ATOM      6  C   UNL     1       2.482   1.631  19.251  0.00  0.00    +0.000 A 
ATOM      7  C   UNL     1       1.334   2.011  18.575  0.00  0.00    +0.000 A 
ATOM      8  C   UNL     1       1.138   3.358  18.223  0.00  0.00    +0.000 A 
ATOM      9  C   UNL     1       2.047   4.357  18.541  0.00  0.00    +0.000 A 
ATOM     10  N   UNL     1       1.814   5.660  18.227  0.00  0.00    +0.000 NA
ENDROOT
BRANCH   3  11
ATOM     11  C   UNL     1       5.569   4.679  19.120  0.00  0.00    +0.000 C 
ATOM     12  O   UNL     1       5.896   3.750  18.386  0.00  0.00    +0.000 OA
ATOM     13  N   UNL     1       6.469   5.638  19.517  0.00  0.00    +0.000 N 
ATOM     14  H   UNL     1       6.151   6.485  19.972  0.00  0.00    +0.000 HD
BRANCH  13  15
ATOM     15  C   UNL     1       7.791   5.707  18.943  0.00  0.00    +0.000 C 
BRANCH  15  16
ATOM     16  C   UNL     1       7.979   7.080  18.316  0.00  0.00    +0.000 C 
BRANCH  16  17
ATOM     17  C   UNL     1       7.241   7.129  16.987  0.00  0.00    +0.000 C 
BRANCH  17  18
ATOM     18  O   UNL     1       7.420   5.897  16.303  0.00  0.00    +0.000 OA
BRANCH  18  19
ATOM     19  C   UNL     1       6.389   5.649  15.340  0.00  0.00    +0.000 C 
ATOM     20  C   UNL     1       6.217   4.153  15.084  0.00  0.00    +0.000 C 
ATOM     21  C   UNL     1       5.109   6.240  15.906  0.00  0.00    +0.000 C 
ENDBRANCH  18  19
ENDBRANCH  17  18
ENDBRANCH  16  17
ENDBRANCH  15  16
ENDBRANCH  13  15
ENDBRANCH   3  11
BRANCH   1  22
ATOM     22  S   UNL     1       2.201   8.328  18.396  0.00  0.00    +0.000 S 
BRANCH  22  26
ATOM     23  C   UNL     1      -0.330  10.351  21.769  0.00  0.00    +0.000 A 
ATOM     24  C   UNL     1       0.471   9.234  22.076  0.00  0.00    +0.000 A 
ATOM     25  C   UNL     1       1.239   8.586  21.084  0.00  0.00    +0.000 A 
ATOM     26  C   UNL     1       1.225   9.006  19.753  0.00  0.00    +0.000 A 
ATOM     27  C   UNL     1       0.429  10.134  19.462  0.00  0.00    +0.000 A 
ATOM     28  C   UNL     1      -0.331  10.796  20.450  0.00  0.00    +0.000 A 
BRANCH  23  30
ATOM     29  C   UNL     1      -1.075  12.553  22.841  0.00  0.00    +0.000 C 
ATOM     30  C   UNL     1      -1.170  11.031  22.832  0.00  0.00    +0.000 C 
ENDBRANCH  23  30
ENDBRANCH  22  26
ENDBRANCH   1  22
TORSDOF 9
ENDMDL
MODEL 3
REMARK VINA RESULT:      -8.0      0.672      1.107
REMARK  Name = 
REMARK  12 active torsions:
REMARK  status: ('A' for Active; 'I' for Inactive)
REMARK    1  A    between atoms: C_1  and  C_2
REMARK    2  A    between atoms: C_2  and  C_3
REMARK    3  A    between atoms: C_6  and  S_7
REMARK    4  A    between atoms: S_7  and  C_8
REMARK    5  A    between atoms: C_10  and  C_11
REMARK    6  A    between atoms: N_13  and  C_14
REMARK    7  A    between atoms: C_14  and  C_15
REMARK    8  A    between atoms: C_15  and  C_16
REMARK    9  A    between atoms: C_16  and  O_17
REMARK   10  A    between atoms: O_17  and  C_18
REMARK   11  A    between atoms: C_18  and  C_19
REMARK   12  A    between atoms: C_18  and  C_20
REMARK                            x       y       z     vdW  Elec       q    Type
REMARK                         _______ _______ _______ _____ _____    ______ ____
ROOT
ATOM      1  C   UNL     1       2.667   6.681  18.415  0.00  0.00    +0.000 A 
ATOM      2  C   UNL     1       3.910   6.359  18.891  0.00  0.00    +0.000 A 
ATOM      3  C   UNL     1       4.314   5.026  18.780  0.00  0.00    +0.000 A 
ATOM      4  C   UNL     1       3.357   4.016  18.765  0.00  0.00    +0.000 A 
ATOM      5  C   UNL     1       3.649   2.655  19.069  0.00  0.00    +0.000 A 
ATOM      6  C   UNL     1       2.661   1.694  19.030  0.00  0.00    +0.000 A 
ATOM      7  C   UNL     1       1.376   2.069  18.673  0.00  0.00    +0.000 A 
ATOM      8  C   UNL     1       1.095   3.414  18.372  0.00  0.00    +0.000 A 
ATOM      9  C   UNL     1       2.054   4.414  18.433  0.00  0.00    +0.000 A 
ATOM     10  N   UNL     1       1.747   5.714  18.178  0.00  0.00    +0.000 NA
ENDROOT
BRANCH   3  11
ATOM     11  C   UNL     1       5.605   4.735  18.070  0.00  0.00    +0.000 C 
ATOM     12  O   UNL     1       6.639   4.453  18.670  0.00  0.00    +0.000 OA
ATOM     13  N   UNL     1       5.507   4.617  16.705  0.00  0.00    +0.000 N 
ATOM     14  H   UNL     1       4.606   4.684  16.247  0.00  0.00    +0.000 HD
BRANCH  13  15
ATOM     15  C   UNL     1       6.546   3.981  15.932  0.00  0.00    +0.000 C 
BRANCH  15  16
ATOM     16  C   UNL     1       7.125   5.000  14.962  0.00  0.00    +0.000 C 
BRANCH  16  17
ATOM     17  C   UNL     1       6.894   4.522  13.536  0.00  0.00    +0.000 C 
BRANCH  17  18
ATOM     18  O   UNL     1       5.638   3.863  13.459  0.00  0.00    +0.000 OA
BRANCH  18  19
ATOM     19  C   UNL     1       5.568   2.942  12.365  0.00  0.00    +0.000 C 
ATOM     20  C   UNL     1       4.386   3.258  11.449  0.00  0.00    +0.000 C 
ATOM     21  C   UNL     1       6.876   3.065  11.603  0.00  0.00    +0.000 C 
ENDBRANCH  18  19
ENDBRANCH  17  18
ENDBRANCH  16  17
ENDBRANCH  15  16
ENDBRANCH  13  15
ENDBRANCH   3  11
BRANCH   1  22
ATOM     22  S   UNL     1       2.163   8.383  18.216  0.00  0.00    +0.000 S 
BRANCH  22  26
ATOM     23  C   UNL     1      -0.078  10.206  21.895  0.00  0.00    +0.000 A 
ATOM     24  C   UNL     1       0.537   8.944  22.010  0.00  0.00    +0.000 A 
ATOM     25  C   UNL     1       1.211   8.352  20.919  0.00  0.00    +0.000 A 
ATOM     26  C   UNL     1       1.282   8.977  19.674  0.00  0.00    +0.000 A 
ATOM     27  C   UNL     1       0.674  10.247  19.575  0.00  0.00    +0.000 A 
ATOM     28  C   UNL     1       0.011  10.852  20.664  0.00  0.00    +0.000 A 
BRANCH  23  30
ATOM     29  C   UNL     1      -1.892  11.837  22.668  0.00  0.00    +0.000 C 
ATOM     30  C   UNL     1      -0.819  10.828  23.062  0.00  0.00    +0.000 C 
ENDBRANCH  23  30
ENDBRANCH  22  26
ENDBRANCH   1  22
TORSDOF 9
ENDMDL
MODEL 4
REMARK VINA RESULT:      -7.8      1.448      1.865
REMARK  Name = 
REMARK  12 active torsions:
REMARK  status: ('A' for Active; 'I' for Inactive)
REMARK    1  A    between atoms: C_1  and  C_2
REMARK    2  A    between atoms: C_2  and  C_3
REMARK    3  A    between atoms: C_6  and  S_7
REMARK    4  A    between atoms: S_7  and  C_8
REMARK    5  A    between atoms: C_10  and  C_11
REMARK    6  A    between atoms: N_13  and  C_14
REMARK    7  A    between atoms: C_14  and  C_15
REMARK    8  A    between atoms: C_15  and  C_16
REMARK    9  A    between atoms: C_16  and  O_17
REMARK   10  A    between atoms: O_17  and  C_18
REMARK   11  A    between atoms: C_18  and  C_19
REMARK   12  A    between atoms: C_18  and  C_20
REMARK                            x       y       z     vdW  Elec       q    Type
REMARK                         _______ _______ _______ _____ _____    ______ ____
ROOT
ATOM      1  C   UNL     1       2.651   6.781  18.766  0.00  0.00    +0.000 A 
ATOM      2  C   UNL     1       3.837   6.273  18.308  0.00  0.00    +0.000 A 
ATOM      3  C   UNL     1       4.055   4.903  18.473  0.00  0.00    +0.000 A 
ATOM      4  C   UNL     1       3.438   4.230  19.523  0.00  0.00    +0.000 A 
ATOM      5  C   UNL     1       3.894   2.977  20.027  0.00  0.00    +0.000 A 
ATOM      6  C   UNL     1       3.237   2.352  21.066  0.00  0.00    +0.000 A 
ATOM      7  C   UNL     1       2.111   2.953  21.604  0.00  0.00    +0.000 A 
ATOM      8  C   UNL     1       1.665   4.188  21.101  0.00  0.00    +0.000 A 
ATOM      9  C   UNL     1       2.318   4.863  20.080  0.00  0.00    +0.000 A 
ATOM     10  N   UNL     1       1.891   6.078  19.640  0.00  0.00    +0.000 NA
ENDROOT
BRANCH   3  11
ATOM     11  C   UNL     1       4.382   4.086  17.255  0.00  0.00    +0.000 C 
ATOM     12  O   UNL     1       3.515   3.587  16.543  0.00  0.00    +0.000 OA
ATOM     13  N   UNL     1       5.704   4.096  16.884  0.00  0.00    +0.000 N 
ATOM     14  H   UNL     1       6.376   4.660  17.391  0.00  0.00    +0.000 HD
BRANCH  13  15
ATOM     15  C   UNL     1       6.113   3.692  15.562  0.00  0.00    +0.000 C 
BRANCH  15  16
ATOM     16  C   UNL     1       6.353   4.938  14.722  0.00  0.00    +0.000 C 
BRANCH  16  17
ATOM     17  C   UNL     1       6.612   4.529  13.280  0.00  0.00    +0.000 C 
BRANCH  17  18
ATOM     18  O   UNL     1       6.193   3.185  13.090  0.00  0.00    +0.000 OA
BRANCH  18  19
ATOM     19  C   UNL     1       5.819   2.914  11.735  0.00  0.00    +0.000 C 
ATOM     20  C   UNL     1       6.039   1.443  11.382  0.00  0.00    +0.000 C 
ATOM     21  C   UNL     1       4.350   3.276  11.603  0.00  0.00    +0.000 C 
ENDBRANCH  18  19
ENDBRANCH  17  18
ENDBRANCH  16  17
ENDBRANCH  15  16
ENDBRANCH  13  15
ENDBRANCH   3  11
BRANCH   1  22
ATOM     22  S   UNL     1       2.126   8.435  18.341  0.00  0.00    +0.000 S 
BRANCH  22  26
ATOM     23  C   UNL     1      -0.457  10.579  21.598  0.00  0.00    +0.000 A 
ATOM     24  C   UNL     1       0.429   9.552  21.978  0.00  0.00    +0.000 A 
ATOM     25  C   UNL     1       1.216   8.870  21.024  0.00  0.00    +0.000 A 
ATOM     26  C   UNL     1       1.138   9.165  19.663  0.00  0.00    +0.000 A 
ATOM     27  C   UNL     1       0.257  10.205  19.297  0.00  0.00    +0.000 A 
ATOM     28  C   UNL     1      -0.523  10.901  20.245  0.00  0.00    +0.000 A 
BRANCH  23  30
ATOM     29  C   UNL     1      -0.943  12.753  22.858  0.00  0.00    +0.000 C 
ATOM     30  C   UNL     1      -1.316  11.294  22.622  0.00  0.00    +0.000 C 
ENDBRANCH  23  30
ENDBRANCH  22  26
ENDBRANCH   1  22
TORSDOF 9
ENDMDL
MODEL 5
REMARK VINA RESULT:      -7.7      1.063      1.566
REMARK  Name = 
REMARK  12 active torsions:
REMARK  status: ('A' for Active; 'I' for Inactive)
REMARK    1  A    between atoms: C_1  and  C_2
REMARK    2  A    between atoms: C_2  and  C_3
REMARK    3  A    between atoms: C_6  and  S_7
REMARK    4  A    between atoms: S_7  and  C_8
REMARK    5  A    between atoms: C_10  and  C_11
REMARK    6  A    between atoms: N_13  and  C_14
REMARK    7  A    between atoms: C_14  and  C_15
REMARK    8  A    between atoms: C_15  and  C_16
REMARK    9  A    between atoms: C_16  and  O_17
REMARK   10  A    between atoms: O_17  and  C_18
REMARK   11  A    between atoms: C_18  and  C_19
REMARK   12  A    between atoms: C_18  and  C_20
REMARK                            x       y       z     vdW  Elec       q    Type
REMARK                         _______ _______ _______ _____ _____    ______ ____
ROOT
ATOM      1  C   UNL     1       2.582   6.908  18.555  0.00  0.00    +0.000 A 
ATOM      2  C   UNL     1       3.639   6.692  19.400  0.00  0.00    +0.000 A 
ATOM      3  C   UNL     1       4.264   5.444  19.339  0.00  0.00    +0.000 A 
ATOM      4  C   UNL     1       3.537   4.329  18.932  0.00  0.00    +0.000 A 
ATOM      5  C   UNL     1       3.928   2.990  19.221  0.00  0.00    +0.000 A 
ATOM      6  C   UNL     1       3.172   1.923  18.785  0.00  0.00    +0.000 A 
ATOM      7  C   UNL     1       2.029   2.172  18.042  0.00  0.00    +0.000 A 
ATOM      8  C   UNL     1       1.650   3.496  17.758  0.00  0.00    +0.000 A 
ATOM      9  C   UNL     1       2.366   4.595  18.208  0.00  0.00    +0.000 A 
ATOM     10  N   UNL     1       1.954   5.867  17.956  0.00  0.00    +0.000 NA
ENDROOT
BRANCH   3  11
ATOM     11  C   UNL     1       5.745   5.406  19.088  0.00  0.00    +0.000 C 
ATOM     12  O   UNL     1       6.534   4.884  19.872  0.00  0.00    +0.000 OA
ATOM     13  N   UNL     1       6.136   5.820  17.838  0.00  0.00    +0.000 N 
ATOM     14  H   UNL     1       5.446   6.083  17.145  0.00  0.00    +0.000 HD
BRANCH  13  15
ATOM     15  C   UNL     1       7.440   5.494  17.316  0.00  0.00    +0.000 C 
BRANCH  15  16
ATOM     16  C   UNL     1       7.284   4.420  16.249  0.00  0.00    +0.000 C 
BRANCH  16  17
ATOM     17  C   UNL     1       6.089   4.757  15.370  0.00  0.00    +0.000 C 
BRANCH  17  18
ATOM     18  O   UNL     1       6.548   5.141  14.081  0.00  0.00    +0.000 OA
BRANCH  18  19
ATOM     19  C   UNL     1       6.617   4.036  13.172  0.00  0.00    +0.000 C 
ATOM     20  C   UNL     1       5.222   3.576  12.752  0.00  0.00    +0.000 C 
ATOM     21  C   UNL     1       7.405   4.511  11.964  0.00  0.00    +0.000 C 
ENDBRANCH  18  19
ENDBRANCH  17  18
ENDBRANCH  16  17
ENDBRANCH  15  16
ENDBRANCH  13  15
ENDBRANCH   3  11
BRANCH   1  22
ATOM     22  S   UNL     1       1.906   8.544  18.317  0.00  0.00    +0.000 S 
BRANCH  22  26
ATOM     23  C   UNL     1      -0.384  10.270  22.012  0.00  0.00    +0.000 A 
ATOM     24  C   UNL     1       0.312   9.052  22.133  0.00  0.00    +0.000 A 
ATOM     25  C   UNL     1       1.005   8.489  21.037  0.00  0.00    +0.000 A 
ATOM     26  C   UNL     1       1.014   9.101  19.783  0.00  0.00    +0.000 A 
ATOM     27  C   UNL     1       0.324  10.327  19.679  0.00  0.00    +0.000 A 
ATOM     28  C   UNL     1      -0.358  10.903  20.772  0.00  0.00    +0.000 A 
BRANCH  23  30
ATOM     29  C   UNL     1      -2.165  11.927  22.807  0.00  0.00    +0.000 C 
ATOM     30  C   UNL     1      -1.144  10.860  23.184  0.00  0.00    +0.000 C 
ENDBRANCH  23  30
ENDBRANCH  22  26
ENDBRANCH   1  22
TORSDOF 9
ENDMDL
MODEL 6
REMARK VINA RESULT:      -7.6      2.034      3.242
REMARK  Name = 
REMARK  12 active torsions:
REMARK  status: ('A' for Active; 'I' for Inactive)
REMARK    1  A    between atoms: C_1  and  C_2
REMARK    2  A    between atoms: C_2  and  C_3
REMARK    3  A    between atoms: C_6  and  S_7
REMARK    4  A    between atoms: S_7  and  C_8
REMARK    5  A    between atoms: C_10  and  C_11
REMARK    6  A    between atoms: N_13  and  C_14
REMARK    7  A    between atoms: C_14  and  C_15
REMARK    8  A    between atoms: C_15  and  C_16
REMARK    9  A    between atoms: C_16  and  O_17
REMARK   10  A    between atoms: O_17  and  C_18
REMARK   11  A    between atoms: C_18  and  C_19
REMARK   12  A    between atoms: C_18  and  C_20
REMARK                            x       y       z     vdW  Elec       q    Type
REMARK                         _______ _______ _______ _____ _____    ______ ____
ROOT
ATOM      1  C   UNL     1       2.512   6.935  18.769  0.00  0.00    +0.000 A 
ATOM      2  C   UNL     1       3.648   6.360  18.264  0.00  0.00    +0.000 A 
ATOM      3  C   UNL     1       3.792   4.979  18.421  0.00  0.00    +0.000 A 
ATOM      4  C   UNL     1       3.180   4.341  19.496  0.00  0.00    +0.000 A 
ATOM      5  C   UNL     1       3.582   3.064  19.982  0.00  0.00    +0.000 A 
ATOM      6  C   UNL     1       2.932   2.476  21.046  0.00  0.00    +0.000 A 
ATOM      7  C   UNL     1       1.865   3.140  21.629  0.00  0.00    +0.000 A 
ATOM      8  C   UNL     1       1.471   4.400  21.142  0.00  0.00    +0.000 A 
ATOM      9  C   UNL     1       2.121   5.037  20.096  0.00  0.00    +0.000 A 
ATOM     10  N   UNL     1       1.747   6.275  19.673  0.00  0.00    +0.000 NA
ENDROOT
BRANCH   3  11
ATOM     11  C   UNL     1       4.023   4.147  17.192  0.00  0.00    +0.000 C 
ATOM     12  O   UNL     1       3.145   3.447  16.694  0.00  0.00    +0.000 OA
ATOM     13  N   UNL     1       5.219   4.369  16.553  0.00  0.00    +0.000 N 
ATOM     14  H   UNL     1       5.856   5.082  16.888  0.00  0.00    +0.000 HD
BRANCH  13  15
ATOM     15  C   UNL     1       5.428   3.948  15.190  0.00  0.00    +0.000 C 
BRANCH  15  16
ATOM     16  C   UNL     1       6.735   4.545  14.690  0.00  0.00    +0.000 C 
BRANCH  16  17
ATOM     17  C   UNL     1       7.564   5.005  15.880  0.00  0.00    +0.000 C 
BRANCH  17  18
ATOM     18  O   UNL     1       7.173   6.321  16.245  0.00  0.00    +0.000 OA
BRANCH  18  19
ATOM     19  C   UNL     1       7.868   6.799  17.402  0.00  0.00    +0.000 C 
ATOM     20  C   UNL     1       7.627   8.293  17.617  0.00  0.00    +0.000 C 
ATOM     21  C   UNL     1       7.346   6.003  18.586  0.00  0.00    +0.000 C 
ENDBRANCH  18  19
ENDBRANCH  17  18
ENDBRANCH  16  17
ENDBRANCH  15  16
ENDBRANCH  13  15
ENDBRANCH   3  11
BRANCH   1  22
ATOM     22  S   UNL     1       2.066   8.617  18.363  0.00  0.00    +0.000 S 
BRANCH  22  26
ATOM     23  C   UNL     1      -0.427  10.315  21.938  0.00  0.00    +0.000 A 
ATOM     24  C   UNL     1      -0.751  10.696  20.621  0.00  0.00    +0.000 A 
ATOM     25  C   UNL     1      -0.014  10.217  19.515  0.00  0.00    +0.000 A 
ATOM     26  C   UNL     1       1.079   9.364  19.675  0.00  0.00    +0.000 A 
ATOM     27  C   UNL     1       1.384   8.979  20.998  0.00  0.00    +0.000 A 
ATOM     28  C   UNL     1       0.644   9.442  22.107  0.00  0.00    +0.000 A 
BRANCH  23  30
ATOM     29  C   UNL     1      -1.488  12.346  23.078  0.00  0.00    +0.000 C 
ATOM     30  C   UNL     1      -1.206  10.848  23.124  0.00  0.00    +0.000 C 
ENDBRANCH  23  30
ENDBRANCH  22  26
ENDBRANCH   1  22
TORSDOF 9
ENDMDL
MODEL 7
REMARK VINA RESULT:      -7.6      1.260      1.444
REMARK  Name = 
REMARK  12 active torsions:
REMARK  status: ('A' for Active; 'I' for Inactive)
REMARK    1  A    between atoms: C_1  and  C_2
REMARK    2  A    between atoms: C_2  and  C_3
REMARK    3  A    between atoms: C_6  and  S_7
REMARK    4  A    between atoms: S_7  and  C_8
REMARK    5  A    between atoms: C_10  and  C_11
REMARK    6  A    between atoms: N_13  and  C_14
REMARK    7  A    between atoms: C_14  and  C_15
REMARK    8  A    between atoms: C_15  and  C_16
REMARK    9  A    between atoms: C_16  and  O_17
REMARK   10  A    between atoms: O_17  and  C_18
REMARK   11  A    between atoms: C_18  and  C_19
REMARK   12  A    between atoms: C_18  and  C_20
REMARK                            x       y       z     vdW  Elec       q    Type
REMARK                         _______ _______ _______ _____ _____    ______ ____
ROOT
ATOM      1  C   UNL     1       2.660   6.809  18.416  0.00  0.00    +0.000 A 
ATOM      2  C   UNL     1       3.960   6.387  18.332  0.00  0.00    +0.000 A 
ATOM      3  C   UNL     1       4.211   5.033  18.574  0.00  0.00    +0.000 A 
ATOM      4  C   UNL     1       3.361   4.314  19.408  0.00  0.00    +0.000 A 
ATOM      5  C   UNL     1       3.732   3.093  20.042  0.00  0.00    +0.000 A 
ATOM      6  C   UNL     1       2.844   2.418  20.852  0.00  0.00    +0.000 A 
ATOM      7  C   UNL     1       1.572   2.938  21.029  0.00  0.00    +0.000 A 
ATOM      8  C   UNL     1       1.210   4.142  20.398  0.00  0.00    +0.000 A 
ATOM      9  C   UNL     1       2.087   4.866  19.604  0.00  0.00    +0.000 A 
ATOM     10  N   UNL     1       1.726   6.050  19.040  0.00  0.00    +0.000 NA
ENDROOT
BRANCH   3  11
ATOM     11  C   UNL     1       4.935   4.248  17.518  0.00  0.00    +0.000 C 
ATOM     12  O   UNL     1       4.363   3.445  16.785  0.00  0.00    +0.000 OA
ATOM     13  N   UNL     1       6.237   4.627  17.298  0.00  0.00    +0.000 N 
ATOM     14  H   UNL     1       6.634   5.413  17.798  0.00  0.00    +0.000 HD
BRANCH  13  15
ATOM     15  C   UNL     1       6.933   4.248  16.094  0.00  0.00    +0.000 C 
BRANCH  15  16
ATOM     16  C   UNL     1       6.357   5.036  14.927  0.00  0.00    +0.000 C 
BRANCH  16  17
ATOM     17  C   UNL     1       6.606   4.273  13.635  0.00  0.00    +0.000 C 
BRANCH  17  18
ATOM     18  O   UNL     1       5.413   3.607  13.245  0.00  0.00    +0.000 OA
BRANCH  18  19
ATOM     19  C   UNL     1       5.396   3.283  11.850  0.00  0.00    +0.000 C 
ATOM     20  C   UNL     1       5.934   1.875  11.601  0.00  0.00    +0.000 C 
ATOM     21  C   UNL     1       3.952   3.388  11.392  0.00  0.00    +0.000 C 
ENDBRANCH  18  19
ENDBRANCH  17  18
ENDBRANCH  16  17
ENDBRANCH  15  16
ENDBRANCH  13  15
ENDBRANCH   3  11
BRANCH   1  22
ATOM     22  S   UNL     1       2.172   8.425  17.831  0.00  0.00    +0.000 S 
BRANCH  22  26
ATOM     23  C   UNL     1      -0.327  10.454  21.225  0.00  0.00    +0.000 A 
ATOM     24  C   UNL     1      -0.614  10.750  19.878  0.00  0.00    +0.000 A 
ATOM     25  C   UNL     1       0.126  10.169  18.824  0.00  0.00    +0.000 A 
ATOM     26  C   UNL     1       1.186   9.295  19.066  0.00  0.00    +0.000 A 
ATOM     27  C   UNL     1       1.456   8.998  20.419  0.00  0.00    +0.000 A 
ATOM     28  C   UNL     1       0.712   9.562  21.478  0.00  0.00    +0.000 A 
BRANCH  23  30
ATOM     29  C   UNL     1      -0.864  12.590  22.528  0.00  0.00    +0.000 C 
ATOM     30  C   UNL     1      -1.109  11.095  22.354  0.00  0.00    +0.000 C 
ENDBRANCH  23  30
ENDBRANCH  22  26
ENDBRANCH   1  22
TORSDOF 9
ENDMDL
MODEL 8
REMARK VINA RESULT:      -7.5      2.850      9.123
REMARK  Name = 
REMARK  12 active torsions:
REMARK  status: ('A' for Active; 'I' for Inactive)
REMARK    1  A    between atoms: C_1  and  C_2
REMARK    2  A    between atoms: C_2  and  C_3
REMARK    3  A    between atoms: C_6  and  S_7
REMARK    4  A    between atoms: S_7  and  C_8
REMARK    5  A    between atoms: C_10  and  C_11
REMARK    6  A    between atoms: N_13  and  C_14
REMARK    7  A    between atoms: C_14  and  C_15
REMARK    8  A    between atoms: C_15  and  C_16
REMARK    9  A    between atoms: C_16  and  O_17
REMARK   10  A    between atoms: O_17  and  C_18
REMARK   11  A    between atoms: C_18  and  C_19
REMARK   12  A    between atoms: C_18  and  C_20
REMARK                            x       y       z     vdW  Elec       q    Type
REMARK                         _______ _______ _______ _____ _____    ______ ____
ROOT
ATOM      1  C   UNL     1       4.833   5.506  18.332  0.00  0.00    +0.000 A 
ATOM      2  C   UNL     1       3.714   6.223  18.001  0.00  0.00    +0.000 A 
ATOM      3  C   UNL     1       2.621   6.141  18.868  0.00  0.00    +0.000 A 
ATOM      4  C   UNL     1       2.439   4.997  19.640  0.00  0.00    +0.000 A 
ATOM      5  C   UNL     1       1.190   4.633  20.221  0.00  0.00    +0.000 A 
ATOM      6  C   UNL     1       1.072   3.492  20.985  0.00  0.00    +0.000 A 
ATOM      7  C   UNL     1       2.195   2.708  21.196  0.00  0.00    +0.000 A 
ATOM      8  C   UNL     1       3.426   3.074  20.622  0.00  0.00    +0.000 A 
ATOM      9  C   UNL     1       3.576   4.196  19.821  0.00  0.00    +0.000 A 
ATOM     10  N   UNL     1       4.768   4.504  19.242  0.00  0.00    +0.000 NA
ENDROOT
BRANCH   3  11
ATOM     11  C   UNL     1       2.060   7.419  19.423  0.00  0.00    +0.000 C 
ATOM     12  O   UNL     1       2.046   7.666  20.626  0.00  0.00    +0.000 OA
ATOM     13  N   UNL     1       1.740   8.371  18.486  0.00  0.00    +0.000 N 
ATOM     14  H   UNL     1       1.924   8.206  17.504  0.00  0.00    +0.000 HD
BRANCH  13  15
ATOM     15  C   UNL     1       1.556   9.752  18.856  0.00  0.00    +0.000 C 
BRANCH  15  16
ATOM     16  C   UNL     1       0.113  10.145  18.571  0.00  0.00    +0.000 C 
BRANCH  16  17
ATOM     17  C   UNL     1      -0.679  10.119  19.870  0.00  0.00    +0.000 C 
BRANCH  17  18
ATOM     18  O   UNL     1       0.218  10.200  20.969  0.00  0.00    +0.000 OA
BRANCH  18  19
ATOM     19  C   UNL     1      -0.267  11.055  22.010  0.00  0.00    +0.000 C 
ATOM     20  C   UNL     1      -1.426  11.923  21.521  0.00  0.00    +0.000 C 
ATOM     21  C   UNL     1      -0.724  10.152  23.143  0.00  0.00    +0.000 C 
ENDBRANCH  18  19
ENDBRANCH  17  18
ENDBRANCH  16  17
ENDBRANCH  15  16
ENDBRANCH  13  15
ENDBRANCH   3  11
BRANCH   1  22
ATOM     22  S   UNL     1       6.384   5.769  17.485  0.00  0.00    +0.000 S 
BRANCH  22  26
ATOM     23  C   UNL     1       6.538   3.947  13.179  0.00  0.00    +0.000 A 
ATOM     24  C   UNL     1       5.511   3.560  14.062  0.00  0.00    +0.000 A 
ATOM     25  C   UNL     1       5.437   4.075  15.375  0.00  0.00    +0.000 A 
ATOM     26  C   UNL     1       6.386   4.974  15.866  0.00  0.00    +0.000 A 
ATOM     27  C   UNL     1       7.402   5.363  14.967  0.00  0.00    +0.000 A 
ATOM     28  C   UNL     1       7.475   4.864  13.649  0.00  0.00    +0.000 A 
BRANCH  23  30
ATOM     29  C   UNL     1       5.654   2.236  11.494  0.00  0.00    +0.000 C 
ATOM     30  C   UNL     1       6.627   3.375  11.778  0.00  0.00    +0.000 C 
ENDBRANCH  23  30
ENDBRANCH  22  26
ENDBRANCH   1  22
TORSDOF 9
ENDMDL
MODEL 9
REMARK VINA RESULT:      -7.5      3.218      8.733
REMARK  Name = 
REMARK  12 active torsions:
REMARK  status: ('A' for Active; 'I' for Inactive)
REMARK    1  A    between atoms: C_1  and  C_2
REMARK    2  A    between atoms: C_2  and  C_3
REMARK    3  A    between atoms: C_6  and  S_7
REMARK    4  A    between atoms: S_7  and  C_8
REMARK    5  A    between atoms: C_10  and  C_11
REMARK    6  A    between atoms: N_13  and  C_14
REMARK    7  A    between atoms: C_14  and  C_15
REMARK    8  A    between atoms: C_15  and  C_16
REMARK    9  A    between atoms: C_16  and  O_17
REMARK   10  A    between atoms: O_17  and  C_18
REMARK   11  A    between atoms: C_18  and  C_19
REMARK   12  A    between atoms: C_18  and  C_20
REMARK                            x       y       z     vdW  Elec       q    Type
REMARK                         _______ _______ _______ _____ _____    ______ ____
ROOT
ATOM      1  C   UNL     1       4.713   5.431  18.474  0.00  0.00    +0.000 A 
ATOM      2  C   UNL     1       3.575   6.137  18.184  0.00  0.00    +0.000 A 
ATOM      3  C   UNL     1       2.495   6.000  19.060  0.00  0.00    +0.000 A 
ATOM      4  C   UNL     1       2.346   4.825  19.791  0.00  0.00    +0.000 A 
ATOM      5  C   UNL     1       1.112   4.414  20.373  0.00  0.00    +0.000 A 
ATOM      6  C   UNL     1       1.026   3.243  21.094  0.00  0.00    +0.000 A 
ATOM      7  C   UNL     1       2.166   2.474  21.262  0.00  0.00    +0.000 A 
ATOM      8  C   UNL     1       3.382   2.886  20.687  0.00  0.00    +0.000 A 
ATOM      9  C   UNL     1       3.501   4.040  19.927  0.00  0.00    +0.000 A 
ATOM     10  N   UNL     1       4.679   4.394  19.346  0.00  0.00    +0.000 NA
ENDROOT
BRANCH   3  11
ATOM     11  C   UNL     1       1.916   7.245  19.670  0.00  0.00    +0.000 C 
ATOM     12  O   UNL     1       1.867   7.424  20.884  0.00  0.00    +0.000 OA
ATOM     13  N   UNL     1       1.623   8.248  18.779  0.00  0.00    +0.000 N 
ATOM     14  H   UNL     1       1.836   8.140  17.795  0.00  0.00    +0.000 HD
BRANCH  13  15
ATOM     15  C   UNL     1       1.426   9.607  19.221  0.00  0.00    +0.000 C 
BRANCH  15  16
ATOM     16  C   UNL     1      -0.068   9.868  19.344  0.00  0.00    +0.000 C 
BRANCH  16  17
ATOM     17  C   UNL     1      -0.634  10.195  17.970  0.00  0.00    +0.000 C 
BRANCH  17  18
ATOM     18  O   UNL     1      -2.053  10.202  18.036  0.00  0.00    +0.000 OA
BRANCH  18  19
ATOM     19  C   UNL     1      -2.643  11.067  17.060  0.00  0.00    +0.000 C 
ATOM     20  C   UNL     1      -2.673  10.410  15.681  0.00  0.00    +0.000 C 
ATOM     21  C   UNL     1      -4.055  11.366  17.534  0.00  0.00    +0.000 C 
ENDBRANCH  18  19
ENDBRANCH  17  18
ENDBRANCH  16  17
ENDBRANCH  15  16
ENDBRANCH  13  15
ENDBRANCH   3  11
BRANCH   1  22
ATOM     22  S   UNL     1       6.247   5.756  17.619  0.00  0.00    +0.000 S 
BRANCH  22  26
ATOM     23  C   UNL     1       6.452   4.008  13.285  0.00  0.00    +0.000 A 
ATOM     24  C   UNL     1       5.338   3.722  14.098  0.00  0.00    +0.000 A 
ATOM     25  C   UNL     1       5.244   4.219  15.417  0.00  0.00    +0.000 A 
ATOM     26  C   UNL     1       6.256   4.996  15.983  0.00  0.00    +0.000 A 
ATOM     27  C   UNL     1       7.360   5.285  15.153  0.00  0.00    +0.000 A 
ATOM     28  C   UNL     1       7.456   4.805  13.830  0.00  0.00    +0.000 A 
BRANCH  23  30
ATOM     29  C   UNL     1       5.566   2.346  11.553  0.00  0.00    +0.000 C 
ATOM     30  C   UNL     1       6.559   3.456  11.877  0.00  0.00    +0.000 C 
ENDBRANCH  23  30
ENDBRANCH  22  26
ENDBRANCH   1  22
TORSDOF 9
ENDMDL
