MODEL 1
REMARK VINA RESULT:      -7.4      0.000      0.000
REMARK  Name = 
REMARK  11 active torsions:
REMARK  status: ('A' for Active; 'I' for Inactive)
REMARK    1  A    between atoms: C_1  and  O_2
REMARK    2  A    between atoms: O_2  and  C_3
REMARK    3  A    between atoms: C_6  and  C_7
REMARK    4  A    between atoms: C_7  and  C_8
REMARK    5  A    between atoms: C_9  and  C_10
REMARK    6  A    between atoms: C_16  and  O_17
REMARK    7  A    between atoms: C_18  and  O_19
REMARK    8  A    between atoms: O_19  and  C_20
REMARK    9  A    between atoms: C_20  and  C_21
REMARK   10  A    between atoms: C_22  and  C_23
REMARK   11  A    between atoms: C_22  and  C_24
REMARK                            x       y       z     vdW  Elec       q    Type
REMARK                         _______ _______ _______ _____ _____    ______ ____
ROOT
ATOM      1  C   UNL     1       3.841   3.930  18.676  0.00  0.00    +0.000 A 
ATOM      2  C   UNL     1       2.698   4.398  19.345  0.00  0.00    +0.000 A 
ATOM      3  C   UNL     1       2.254   5.707  19.199  0.00  0.00    +0.000 A 
ATOM      4  C   UNL     1       2.954   6.605  18.394  0.00  0.00    +0.000 A 
ATOM      5  C   UNL     1       4.134   6.160  17.778  0.00  0.00    +0.000 A 
ATOM      6  C   UNL     1       4.599   4.832  17.902  0.00  0.00    +0.000 A 
ENDROOT
BRANCH   1   8
ATOM      7  C   UNL     1       3.402   1.646  18.175  0.00  0.00    +0.000 C 
ATOM      8  O   UNL     1       4.242   2.622  18.799  0.00  0.00    +0.000 OA
ENDBRANCH   1   8
BRANCH   5   9
ATOM      9  O   UNL     1       4.875   7.052  17.042  0.00  0.00    +0.000 OA
ATOM     10  H   UNL     1       5.696   7.191  17.545  0.00  0.00    +0.000 HD
ENDBRANCH   5   9
BRANCH   4  11
ATOM     11  C   UNL     1       2.392   7.992  18.219  0.00  0.00    +0.000 C 
BRANCH  11  12
ATOM     12  C   UNL     1       1.696   8.599  19.406  0.00  0.00    +0.000 C 
ATOM     13  C   UNL     1       0.743   9.544  19.427  0.00  0.00    +0.000 C 
BRANCH  13  14
ATOM     14  C   UNL     1       0.071   9.982  20.665  0.00  0.00    +0.000 A 
ATOM     15  C   UNL     1       0.127   9.189  21.812  0.00  0.00    +0.000 A 
ATOM     16  C   UNL     1      -0.456   9.623  23.008  0.00  0.00    +0.000 A 
ATOM     17  C   UNL     1      -1.098  10.860  23.065  0.00  0.00    +0.000 A 
ATOM     18  C   UNL     1      -1.156  11.662  21.930  0.00  0.00    +0.000 A 
ATOM     19  C   UNL     1      -0.570  11.231  20.740  0.00  0.00    +0.000 A 
ENDBRANCH  13  14
ENDBRANCH  11  12
ENDBRANCH   4  11
BRANCH   6  20
ATOM     20  O   UNL     1       5.738   4.547  17.175  0.00  0.00    +0.000 OA
BRANCH  20  21
ATOM     21  C   UNL     1       5.558   4.110  15.827  0.00  0.00    +0.000 C 
BRANCH  21  22
ATOM     22  C   UNL     1       6.632   4.705  14.938  0.00  0.00    +0.000 C 
ATOM     23  C   UNL     1       6.752   4.471  13.610  0.00  0.00    +0.000 C 
ATOM     24  C   UNL     1       5.848   3.536  12.853  0.00  0.00    +0.000 C 
ATOM     25  C   UNL     1       7.794   5.134  12.745  0.00  0.00    +0.000 C 
ENDBRANCH  21  22
ENDBRANCH  20  21
ENDBRANCH   6  20
TORSDOF 8
ENDMDL
MODEL 2
REMARK VINA RESULT:      -7.4      1.701      2.266
REMARK  Name = 
REMARK  11 active torsions:
REMARK  status: ('A' for Active; 'I' for Inactive)
REMARK    1  A    between atoms: C_1  and  O_2
REMARK    2  A    between atoms: O_2  and  C_3
REMARK    3  A    between atoms: C_6  and  C_7
REMARK    4  A    between atoms: C_7  and  C_8
REMARK    5  A    between atoms: C_9  and  C_10
REMARK    6  A    between atoms: C_16  and  O_17
REMARK    7  A    between atoms: C_18  and  O_19
REMARK    8  A    between atoms: O_19  and  C_20
REMARK    9  A    between atoms: C_20  and  C_21
REMARK   10  A    between atoms: C_22  and  C_23
REMARK   11  A    between atoms: C_22  and  C_24
REMARK                            x       y       z     vdW  Elec       q    Type
REMARK                         _______ _______ _______ _____ _____    ______ ____
ROOT
ATOM      1  C   UNL     1       3.481   4.223  18.235  0.00  0.00    +0.000 A 
ATOM      2  C   UNL     1       2.340   4.873  18.734  0.00  0.00    +0.000 A 
ATOM      3  C   UNL     1       2.159   6.243  18.583  0.00  0.00    +0.000 A 
ATOM      4  C   UNL     1       3.126   7.017  17.944  0.00  0.00    +0.000 A 
ATOM      5  C   UNL     1       4.297   6.382  17.503  0.00  0.00    +0.000 A 
ATOM      6  C   UNL     1       4.501   4.991  17.635  0.00  0.00    +0.000 A 
ENDROOT
BRANCH   1   8
ATOM      7  C   UNL     1       2.468   2.077  18.053  0.00  0.00    +0.000 C 
ATOM      8  O   UNL     1       3.625   2.862  18.357  0.00  0.00    +0.000 OA
ENDBRANCH   1   8
BRANCH   5   9
ATOM      9  O   UNL     1       5.292   7.143  16.939  0.00  0.00    +0.000 OA
ATOM     10  H   UNL     1       6.114   6.640  17.069  0.00  0.00    +0.000 HD
ENDBRANCH   5   9
BRANCH   4  11
ATOM     11  C   UNL     1       2.847   8.485  17.748  0.00  0.00    +0.000 C 
BRANCH  11  12
ATOM     12  C   UNL     1       1.407   8.916  17.793  0.00  0.00    +0.000 C 
ATOM     13  C   UNL     1       0.860   9.947  18.454  0.00  0.00    +0.000 C 
BRANCH  13  14
ATOM     14  C   UNL     1      -0.563  10.319  18.331  0.00  0.00    +0.000 A 
ATOM     15  C   UNL     1      -1.123  11.247  19.209  0.00  0.00    +0.000 A 
ATOM     16  C   UNL     1      -2.455  11.652  19.064  0.00  0.00    +0.000 A 
ATOM     17  C   UNL     1      -3.236  11.133  18.032  0.00  0.00    +0.000 A 
ATOM     18  C   UNL     1      -2.687  10.212  17.146  0.00  0.00    +0.000 A 
ATOM     19  C   UNL     1      -1.358   9.812  17.288  0.00  0.00    +0.000 A 
ENDBRANCH  13  14
ENDBRANCH  11  12
ENDBRANCH   4  11
BRANCH   6  20
ATOM     20  O   UNL     1       5.678   4.522  17.087  0.00  0.00    +0.000 OA
BRANCH  20  21
ATOM     21  C   UNL     1       5.630   4.065  15.735  0.00  0.00    +0.000 C 
BRANCH  21  22
ATOM     22  C   UNL     1       6.717   4.735  14.918  0.00  0.00    +0.000 C 
ATOM     23  C   UNL     1       6.933   4.522  13.599  0.00  0.00    +0.000 C 
ATOM     24  C   UNL     1       6.138   3.542  12.781  0.00  0.00    +0.000 C 
ATOM     25  C   UNL     1       7.983   5.257  12.805  0.00  0.00    +0.000 C 
ENDBRANCH  21  22
ENDBRANCH  20  21
ENDBRANCH   6  20
TORSDOF 8
ENDMDL
MODEL 3
REMARK VINA RESULT:      -7.4      1.571      2.498
REMARK  Name = 
REMARK  11 active torsions:
REMARK  status: ('A' for Active; 'I' for Inactive)
REMARK    1  A    between atoms: C_1  and  O_2
REMARK    2  A    between atoms: O_2  and  C_3
REMARK    3  A    between atoms: C_6  and  C_7
REMARK    4  A    between atoms: C_7  and  C_8
REMARK    5  A    between atoms: C_9  and  C_10
REMARK    6  A    between atoms: C_16  and  O_17
REMARK    7  A    between atoms: C_18  and  O_19
REMARK    8  A    between atoms: O_19  and  C_20
REMARK    9  A    between atoms: C_20  and  C_21
REMARK   10  A    between atoms: C_22  and  C_23
REMARK   11  A    between atoms: C_22  and  C_24
REMARK                            x       y       z     vdW  Elec       q    Type
REMARK                         _______ _______ _______ _____ _____    ______ ____
ROOT
ATOM      1  C   UNL     1       3.920   4.211  18.848  0.00  0.00    +0.000 A 
ATOM      2  C   UNL     1       3.063   4.815  19.782  0.00  0.00    +0.000 A 
ATOM      3  C   UNL     1       2.548   6.090  19.579  0.00  0.00    +0.000 A 
ATOM      4  C   UNL     1       2.891   6.818  18.440  0.00  0.00    +0.000 A 
ATOM      5  C   UNL     1       3.800   6.244  17.537  0.00  0.00    +0.000 A 
ATOM      6  C   UNL     1       4.329   4.946  17.716  0.00  0.00    +0.000 A 
ENDROOT
BRANCH   1   8
ATOM      7  C   UNL     1       3.574   1.879  18.522  0.00  0.00    +0.000 C 
ATOM      8  O   UNL     1       4.387   2.935  19.044  0.00  0.00    +0.000 OA
ENDBRANCH   1   8
BRANCH   5   9
ATOM      9  O   UNL     1       4.206   6.977  16.449  0.00  0.00    +0.000 OA
ATOM     10  H   UNL     1       3.468   6.939  15.816  0.00  0.00    +0.000 HD
ENDBRANCH   5   9
BRANCH   4  11
ATOM     11  C   UNL     1       2.252   8.167  18.237  0.00  0.00    +0.000 C 
BRANCH  11  12
ATOM     12  C   UNL     1       1.618   8.807  19.441  0.00  0.00    +0.000 C 
ATOM     13  C   UNL     1       0.574   9.648  19.492  0.00  0.00    +0.000 C 
BRANCH  13  14
ATOM     14  C   UNL     1      -0.014  10.128  20.758  0.00  0.00    +0.000 A 
ATOM     15  C   UNL     1      -0.632  11.377  20.815  0.00  0.00    +0.000 A 
ATOM     16  C   UNL     1      -1.245  11.815  21.995  0.00  0.00    +0.000 A 
ATOM     17  C   UNL     1      -1.248  11.001  23.127  0.00  0.00    +0.000 A 
ATOM     18  C   UNL     1      -0.640   9.751  23.081  0.00  0.00    +0.000 A 
ATOM     19  C   UNL     1      -0.033   9.312  21.903  0.00  0.00    +0.000 A 
ENDBRANCH  13  14
ENDBRANCH  11  12
ENDBRANCH   4  11
BRANCH   6  20
ATOM     20  O   UNL     1       5.155   4.512  16.699  0.00  0.00    +0.000 OA
BRANCH  20  21
ATOM     21  C   UNL     1       6.555   4.456  16.976  0.00  0.00    +0.000 C 
BRANCH  21  22
ATOM     22  C   UNL     1       7.132   5.857  17.036  0.00  0.00    +0.000 C 
ATOM     23  C   UNL     1       7.587   6.458  18.160  0.00  0.00    +0.000 C 
ATOM     24  C   UNL     1       7.528   5.815  19.519  0.00  0.00    +0.000 C 
ATOM     25  C   UNL     1       8.215   7.827  18.169  0.00  0.00    +0.000 C 
ENDBRANCH  21  22
ENDBRANCH  20  21
ENDBRANCH   6  20
TORSDOF 8
ENDMDL
MODEL 4
REMARK VINA RESULT:      -7.3      4.951      7.270
REMARK  Name = 
REMARK  11 active torsions:
REMARK  status: ('A' for Active; 'I' for Inactive)
REMARK    1  A    between atoms: C_1  and  O_2
REMARK    2  A    between atoms: O_2  and  C_3
REMARK    3  A    between atoms: C_6  and  C_7
REMARK    4  A    between atoms: C_7  and  C_8
REMARK    5  A    between atoms: C_9  and  C_10
REMARK    6  A    between atoms: C_16  and  O_17
REMARK    7  A    between atoms: C_18  and  O_19
REMARK    8  A    between atoms: O_19  and  C_20
REMARK    9  A    between atoms: C_20  and  C_21
REMARK   10  A    between atoms: C_22  and  C_23
REMARK   11  A    between atoms: C_22  and  C_24
REMARK                            x       y       z     vdW  Elec       q    Type
REMARK                         _______ _______ _______ _____ _____    ______ ____
ROOT
ATOM      1  C   UNL     1       5.638   4.743  19.005  0.00  0.00    +0.000 A 
ATOM      2  C   UNL     1       6.887   5.188  19.468  0.00  0.00    +0.000 A 
ATOM      3  C   UNL     1       7.559   6.239  18.855  0.00  0.00    +0.000 A 
ATOM      4  C   UNL     1       7.013   6.871  17.738  0.00  0.00    +0.000 A 
ATOM      5  C   UNL     1       5.797   6.386  17.232  0.00  0.00    +0.000 A 
ATOM      6  C   UNL     1       5.090   5.326  17.843  0.00  0.00    +0.000 A 
ENDROOT
BRANCH   1   8
ATOM      7  C   UNL     1       4.734   2.546  18.879  0.00  0.00    +0.000 C 
ATOM      8  O   UNL     1       4.969   3.731  19.647  0.00  0.00    +0.000 OA
ENDBRANCH   1   8
BRANCH   5   9
ATOM      9  O   UNL     1       5.283   6.948  16.089  0.00  0.00    +0.000 OA
ATOM     10  H   UNL     1       5.632   6.416  15.353  0.00  0.00    +0.000 HD
ENDBRANCH   5   9
BRANCH   4  11
ATOM     11  C   UNL     1       7.751   8.047  17.154  0.00  0.00    +0.000 C 
BRANCH  11  12
ATOM     12  C   UNL     1       8.504   8.924  18.117  0.00  0.00    +0.000 C 
ATOM     13  C   UNL     1       8.938  10.182  17.943  0.00  0.00    +0.000 C 
BRANCH  13  14
ATOM     14  C   UNL     1       9.582  10.967  19.013  0.00  0.00    +0.000 A 
ATOM     15  C   UNL     1       8.904  11.215  20.207  0.00  0.00    +0.000 A 
ATOM     16  C   UNL     1       9.528  11.906  21.251  0.00  0.00    +0.000 A 
ATOM     17  C   UNL     1      10.842  12.351  21.109  0.00  0.00    +0.000 A 
ATOM     18  C   UNL     1      11.531  12.105  19.927  0.00  0.00    +0.000 A 
ATOM     19  C   UNL     1      10.911  11.410  18.887  0.00  0.00    +0.000 A 
ENDBRANCH  13  14
ENDBRANCH  11  12
ENDBRANCH   4  11
BRANCH   6  20
ATOM     20  O   UNL     1       3.879   5.022  17.254  0.00  0.00    +0.000 OA
BRANCH  20  21
ATOM     21  C   UNL     1       2.704   5.548  17.871  0.00  0.00    +0.000 C 
BRANCH  21  22
ATOM     22  C   UNL     1       1.824   4.417  18.367  0.00  0.00    +0.000 C 
ATOM     23  C   UNL     1       1.496   4.205  19.663  0.00  0.00    +0.000 C 
ATOM     24  C   UNL     1       2.014   5.053  20.793  0.00  0.00    +0.000 C 
ATOM     25  C   UNL     1       0.565   3.109  20.111  0.00  0.00    +0.000 C 
ENDBRANCH  21  22
ENDBRANCH  20  21
ENDBRANCH   6  20
TORSDOF 8
ENDMDL
MODEL 5
REMARK VINA RESULT:      -7.3      1.889      2.412
REMARK  Name = 
REMARK  11 active torsions:
REMARK  status: ('A' for Active; 'I' for Inactive)
REMARK    1  A    between atoms: C_1  and  O_2
REMARK    2  A    between atoms: O_2  and  C_3
REMARK    3  A    between atoms: C_6  and  C_7
REMARK    4  A    between atoms: C_7  and  C_8
REMARK    5  A    between atoms: C_9  and  C_10
REMARK    6  A    between atoms: C_16  and  O_17
REMARK    7  A    between atoms: C_18  and  O_19
REMARK    8  A    between atoms: O_19  and  C_20
REMARK    9  A    between atoms: C_20  and  C_21
REMARK   10  A    between atoms: C_22  and  C_23
REMARK   11  A    between atoms: C_22  and  C_24
REMARK                            x       y       z     vdW  Elec       q    Type
REMARK                         _______ _______ _______ _____ _____    ______ ____
ROOT
ATOM      1  C   UNL     1       3.740   3.858  17.471  0.00  0.00    +0.000 A 
ATOM      2  C   UNL     1       2.831   4.447  18.366  0.00  0.00    +0.000 A 
ATOM      3  C   UNL     1       2.703   5.827  18.470  0.00  0.00    +0.000 A 
ATOM      4  C   UNL     1       3.498   6.671  17.696  0.00  0.00    +0.000 A 
ATOM      5  C   UNL     1       4.454   6.088  16.850  0.00  0.00    +0.000 A 
ATOM      6  C   UNL     1       4.596   4.689  16.719  0.00  0.00    +0.000 A 
ENDROOT
BRANCH   1   8
ATOM      7  C   UNL     1       3.341   1.733  18.463  0.00  0.00    +0.000 C 
ATOM      8  O   UNL     1       3.825   2.493  17.351  0.00  0.00    +0.000 OA
ENDBRANCH   1   8
BRANCH   5   9
ATOM      9  O   UNL     1       5.295   6.906  16.137  0.00  0.00    +0.000 OA
ATOM     10  H   UNL     1       5.734   7.472  16.796  0.00  0.00    +0.000 HD
ENDBRANCH   5   9
BRANCH   4  11
ATOM     11  C   UNL     1       3.270   8.157  17.800  0.00  0.00    +0.000 C 
BRANCH  11  12
ATOM     12  C   UNL     1       1.852   8.615  18.001  0.00  0.00    +0.000 C 
ATOM     13  C   UNL     1       1.383   9.867  18.120  0.00  0.00    +0.000 C 
BRANCH  13  14
ATOM     14  C   UNL     1      -0.055  10.184  18.214  0.00  0.00    +0.000 A 
ATOM     15  C   UNL     1      -0.507  11.119  19.145  0.00  0.00    +0.000 A 
ATOM     16  C   UNL     1      -1.861  11.470  19.202  0.00  0.00    +0.000 A 
ATOM     17  C   UNL     1      -2.772  10.890  18.321  0.00  0.00    +0.000 A 
ATOM     18  C   UNL     1      -2.333   9.961  17.383  0.00  0.00    +0.000 A 
ATOM     19  C   UNL     1      -0.982   9.615  17.324  0.00  0.00    +0.000 A 
ENDBRANCH  13  14
ENDBRANCH  11  12
ENDBRANCH   4  11
BRANCH   6  20
ATOM     20  O   UNL     1       5.539   4.287  15.793  0.00  0.00    +0.000 OA
BRANCH  20  21
ATOM     21  C   UNL     1       5.199   4.433  14.413  0.00  0.00    +0.000 C 
BRANCH  21  22
ATOM     22  C   UNL     1       6.226   3.732  13.546  0.00  0.00    +0.000 C 
ATOM     23  C   UNL     1       5.983   3.236  12.310  0.00  0.00    +0.000 C 
ATOM     24  C   UNL     1       4.629   3.278  11.656  0.00  0.00    +0.000 C 
ATOM     25  C   UNL     1       7.047   2.603  11.450  0.00  0.00    +0.000 C 
ENDBRANCH  21  22
ENDBRANCH  20  21
ENDBRANCH   6  20
TORSDOF 8
ENDMDL
MODEL 6
REMARK VINA RESULT:      -7.2      2.715      8.740
REMARK  Name = 
REMARK  11 active torsions:
REMARK  status: ('A' for Active; 'I' for Inactive)
REMARK    1  A    between atoms: C_1  and  O_2
REMARK    2  A    between atoms: O_2  and  C_3
REMARK    3  A    between atoms: C_6  and  C_7
REMARK    4  A    between atoms: C_7  and  C_8
REMARK    5  A    between atoms: C_9  and  C_10
REMARK    6  A    between atoms: C_16  and  O_17
REMARK    7  A    between atoms: C_18  and  O_19
REMARK    8  A    between atoms: O_19  and  C_20
REMARK    9  A    between atoms: C_20  and  C_21
REMARK   10  A    between atoms: C_22  and  C_23
REMARK   11  A    between atoms: C_22  and  C_24
REMARK                            x       y       z     vdW  Elec       q    Type
REMARK                         _______ _______ _______ _____ _____    ______ ____
ROOT
ATOM      1  C   UNL     1       3.560   5.906  18.958  0.00  0.00    +0.000 A 
ATOM      2  C   UNL     1       3.564   6.796  17.871  0.00  0.00    +0.000 A 
ATOM      3  C   UNL     1       4.541   6.737  16.885  0.00  0.00    +0.000 A 
ATOM      4  C   UNL     1       5.567   5.795  16.962  0.00  0.00    +0.000 A 
ATOM      5  C   UNL     1       5.604   4.948  18.081  0.00  0.00    +0.000 A 
ATOM      6  C   UNL     1       4.617   4.982  19.090  0.00  0.00    +0.000 A 
ENDROOT
BRANCH   1   8
ATOM      7  C   UNL     1       2.029   7.249  20.189  0.00  0.00    +0.000 C 
ATOM      8  O   UNL     1       2.564   5.952  19.902  0.00  0.00    +0.000 OA
ENDBRANCH   1   8
BRANCH   5   9
ATOM      9  O   UNL     1       6.648   4.065  18.209  0.00  0.00    +0.000 OA
ATOM     10  H   UNL     1       6.887   4.075  19.152  0.00  0.00    +0.000 HD
ENDBRANCH   5   9
BRANCH   4  11
ATOM     11  C   UNL     1       6.560   5.730  15.832  0.00  0.00    +0.000 C 
BRANCH  11  12
ATOM     12  C   UNL     1       6.248   4.784  14.705  0.00  0.00    +0.000 C 
ATOM     13  C   UNL     1       6.864   4.660  13.519  0.00  0.00    +0.000 C 
BRANCH  13  14
ATOM     14  C   UNL     1       6.516   3.616  12.536  0.00  0.00    +0.000 A 
ATOM     15  C   UNL     1       7.521   2.868  11.923  0.00  0.00    +0.000 A 
ATOM     16  C   UNL     1       7.200   1.835  11.035  0.00  0.00    +0.000 A 
ATOM     17  C   UNL     1       5.866   1.540  10.758  0.00  0.00    +0.000 A 
ATOM     18  C   UNL     1       4.854   2.274  11.368  0.00  0.00    +0.000 A 
ATOM     19  C   UNL     1       5.175   3.301  12.257  0.00  0.00    +0.000 A 
ENDBRANCH  13  14
ENDBRANCH  11  12
ENDBRANCH   4  11
BRANCH   6  20
ATOM     20  O   UNL     1       4.771   4.034  20.083  0.00  0.00    +0.000 OA
BRANCH  20  21
ATOM     21  C   UNL     1       4.384   2.695  19.770  0.00  0.00    +0.000 C 
BRANCH  21  22
ATOM     22  C   UNL     1       2.876   2.559  19.834  0.00  0.00    +0.000 C 
ATOM     23  C   UNL     1       2.056   2.532  18.757  0.00  0.00    +0.000 C 
ATOM     24  C   UNL     1       2.548   2.686  17.344  0.00  0.00    +0.000 C 
ATOM     25  C   UNL     1       0.566   2.329  18.858  0.00  0.00    +0.000 C 
ENDBRANCH  21  22
ENDBRANCH  20  21
ENDBRANCH   6  20
TORSDOF 8
ENDMDL
MODEL 7
REMARK VINA RESULT:      -7.2      1.479      2.334
REMARK  Name = 
REMARK  11 active torsions:
REMARK  status: ('A' for Active; 'I' for Inactive)
REMARK    1  A    between atoms: C_1  and  O_2
REMARK    2  A    between atoms: O_2  and  C_3
REMARK    3  A    between atoms: C_6  and  C_7
REMARK    4  A    between atoms: C_7  and  C_8
REMARK    5  A    between atoms: C_9  and  C_10
REMARK    6  A    between atoms: C_16  and  O_17
REMARK    7  A    between atoms: C_18  and  O_19
REMARK    8  A    between atoms: O_19  and  C_20
REMARK    9  A    between atoms: C_20  and  C_21
REMARK   10  A    between atoms: C_22  and  C_23
REMARK   11  A    between atoms: C_22  and  C_24
REMARK                            x       y       z     vdW  Elec       q    Type
REMARK                         _______ _______ _______ _____ _____    ______ ____
ROOT
ATOM      1  C   UNL     1       4.028   3.937  18.458  0.00  0.00    +0.000 A 
ATOM      2  C   UNL     1       3.214   4.528  19.438  0.00  0.00    +0.000 A 
ATOM      3  C   UNL     1       2.761   5.836  19.316  0.00  0.00    +0.000 A 
ATOM      4  C   UNL     1       3.126   6.611  18.216  0.00  0.00    +0.000 A 
ATOM      5  C   UNL     1       3.994   6.046  17.268  0.00  0.00    +0.000 A 
ATOM      6  C   UNL     1       4.460   4.716  17.364  0.00  0.00    +0.000 A 
ENDROOT
BRANCH   1   8
ATOM      7  C   UNL     1       3.428   1.637  18.348  0.00  0.00    +0.000 C 
ATOM      8  O   UNL     1       4.434   2.630  18.574  0.00  0.00    +0.000 OA
ENDBRANCH   1   8
BRANCH   5   9
ATOM      9  O   UNL     1       4.423   6.821  16.218  0.00  0.00    +0.000 OA
ATOM     10  H   UNL     1       3.624   7.039  15.708  0.00  0.00    +0.000 HD
ENDBRANCH   5   9
BRANCH   4  11
ATOM     11  C   UNL     1       2.553   7.999  18.101  0.00  0.00    +0.000 C 
BRANCH  11  12
ATOM     12  C   UNL     1       1.822   8.535  19.301  0.00  0.00    +0.000 C 
ATOM     13  C   UNL     1       1.095   9.658  19.409  0.00  0.00    +0.000 C 
BRANCH  13  14
ATOM     14  C   UNL     1       0.343  10.018  20.626  0.00  0.00    +0.000 A 
ATOM     15  C   UNL     1       0.190   9.088  21.655  0.00  0.00    +0.000 A 
ATOM     16  C   UNL     1      -0.470   9.439  22.839  0.00  0.00    +0.000 A 
ATOM     17  C   UNL     1      -0.977  10.727  23.003  0.00  0.00    +0.000 A 
ATOM     18  C   UNL     1      -0.824  11.665  21.987  0.00  0.00    +0.000 A 
ATOM     19  C   UNL     1      -0.162  11.317  20.809  0.00  0.00    +0.000 A 
ENDBRANCH  13  14
ENDBRANCH  11  12
ENDBRANCH   4  11
BRANCH   6  20
ATOM     20  O   UNL     1       5.251   4.302  16.311  0.00  0.00    +0.000 OA
BRANCH  20  21
ATOM     21  C   UNL     1       6.603   4.763  16.292  0.00  0.00    +0.000 C 
BRANCH  21  22
ATOM     22  C   UNL     1       7.198   4.691  17.684  0.00  0.00    +0.000 C 
ATOM     23  C   UNL     1       7.622   5.760  18.399  0.00  0.00    +0.000 C 
ATOM     24  C   UNL     1       7.598   7.168  17.868  0.00  0.00    +0.000 C 
ATOM     25  C   UNL     1       8.148   5.657  19.807  0.00  0.00    +0.000 C 
ENDBRANCH  21  22
ENDBRANCH  20  21
ENDBRANCH   6  20
TORSDOF 8
ENDMDL
MODEL 8
REMARK VINA RESULT:      -7.2      3.522      8.583
REMARK  Name = 
REMARK  11 active torsions:
REMARK  status: ('A' for Active; 'I' for Inactive)
REMARK    1  A    between atoms: C_1  and  O_2
REMARK    2  A    between atoms: O_2  and  C_3
REMARK    3  A    between atoms: C_6  and  C_7
REMARK    4  A    between atoms: C_7  and  C_8
REMARK    5  A    between atoms: C_9  and  C_10
REMARK    6  A    between atoms: C_16  and  O_17
REMARK    7  A    between atoms: C_18  and  O_19
REMARK    8  A    between atoms: O_19  and  C_20
REMARK    9  A    between atoms: C_20  and  C_21
REMARK   10  A    between atoms: C_22  and  C_23
REMARK   11  A    between atoms: C_22  and  C_24
REMARK                            x       y       z     vdW  Elec       q    Type
REMARK                         _______ _______ _______ _____ _____    ______ ____
ROOT
ATOM      1  C   UNL     1      -0.066  10.148  20.892  0.00  0.00    +0.000 A 
ATOM      2  C   UNL     1       0.480   8.898  21.224  0.00  0.00    +0.000 A 
ATOM      3  C   UNL     1       1.343   8.229  20.364  0.00  0.00    +0.000 A 
ATOM      4  C   UNL     1       1.673   8.778  19.126  0.00  0.00    +0.000 A 
ATOM      5  C   UNL     1       1.077   9.996  18.762  0.00  0.00    +0.000 A 
ATOM      6  C   UNL     1       0.206  10.700  19.622  0.00  0.00    +0.000 A 
ENDROOT
BRANCH   1   8
ATOM      7  C   UNL     1      -0.807  10.401  23.139  0.00  0.00    +0.000 C 
ATOM      8  O   UNL     1      -0.885  10.814  21.770  0.00  0.00    +0.000 OA
ENDBRANCH   1   8
BRANCH   5   9
ATOM      9  O   UNL     1       1.334  10.514  17.516  0.00  0.00    +0.000 OA
ATOM     10  H   UNL     1       1.293   9.759  16.903  0.00  0.00    +0.000 HD
ENDBRANCH   5   9
BRANCH   4  11
ATOM     11  C   UNL     1       2.665   8.043  18.262  0.00  0.00    +0.000 C 
BRANCH  11  12
ATOM     12  C   UNL     1       2.721   6.548  18.413  0.00  0.00    +0.000 C 
ATOM     13  C   UNL     1       3.457   5.662  17.725  0.00  0.00    +0.000 C 
BRANCH  13  14
ATOM     14  C   UNL     1       3.491   4.222  18.043  0.00  0.00    +0.000 A 
ATOM     15  C   UNL     1       4.268   3.757  19.105  0.00  0.00    +0.000 A 
ATOM     16  C   UNL     1       4.260   2.401  19.453  0.00  0.00    +0.000 A 
ATOM     17  C   UNL     1       3.469   1.500  18.742  0.00  0.00    +0.000 A 
ATOM     18  C   UNL     1       2.685   1.952  17.686  0.00  0.00    +0.000 A 
ATOM     19  C   UNL     1       2.689   3.305  17.342  0.00  0.00    +0.000 A 
ENDBRANCH  13  14
ENDBRANCH  11  12
ENDBRANCH   4  11
BRANCH   6  20
ATOM     20  O   UNL     1      -0.237  11.913  19.133  0.00  0.00    +0.000 OA
BRANCH  20  21
ATOM     21  C   UNL     1      -1.634  12.034  18.859  0.00  0.00    +0.000 C 
BRANCH  21  22
ATOM     22  C   UNL     1      -1.895  11.829  17.380  0.00  0.00    +0.000 C 
ATOM     23  C   UNL     1      -2.548  10.768  16.850  0.00  0.00    +0.000 C 
ATOM     24  C   UNL     1      -3.060   9.620  17.677  0.00  0.00    +0.000 C 
ATOM     25  C   UNL     1      -2.848  10.633  15.380  0.00  0.00    +0.000 C 
ENDBRANCH  21  22
ENDBRANCH  20  21
ENDBRANCH   6  20
TORSDOF 8
ENDMDL
MODEL 9
REMARK VINA RESULT:      -7.1      5.003      7.626
REMARK  Name = 
REMARK  11 active torsions:
REMARK  status: ('A' for Active; 'I' for Inactive)
REMARK    1  A    between atoms: C_1  and  O_2
REMARK    2  A    between atoms: O_2  and  C_3
REMARK    3  A    between atoms: C_6  and  C_7
REMARK    4  A    between atoms: C_7  and  C_8
REMARK    5  A    between atoms: C_9  and  C_10
REMARK    6  A    between atoms: C_16  and  O_17
REMARK    7  A    between atoms: C_18  and  O_19
REMARK    8  A    between atoms: O_19  and  C_20
REMARK    9  A    between atoms: C_20  and  C_21
REMARK   10  A    between atoms: C_22  and  C_23
REMARK   11  A    between atoms: C_22  and  C_24
REMARK                            x       y       z     vdW  Elec       q    Type
REMARK                         _______ _______ _______ _____ _____    ______ ____
ROOT
ATOM      1  C   UNL     1       5.790   5.154  16.456  0.00  0.00    +0.000 A 
ATOM      2  C   UNL     1       6.477   6.280  15.973  0.00  0.00    +0.000 A 
ATOM      3  C   UNL     1       7.306   7.034  16.794  0.00  0.00    +0.000 A 
ATOM      4  C   UNL     1       7.461   6.701  18.139  0.00  0.00    +0.000 A 
ATOM      5  C   UNL     1       6.724   5.617  18.641  0.00  0.00    +0.000 A 
ATOM      6  C   UNL     1       5.884   4.829  17.825  0.00  0.00    +0.000 A 
ENDROOT
BRANCH   1   8
ATOM      7  C   UNL     1       5.641   3.908  14.434  0.00  0.00    +0.000 C 
ATOM      8  O   UNL     1       5.006   4.396  15.621  0.00  0.00    +0.000 OA
ENDBRANCH   1   8
BRANCH   5   9
ATOM      9  O   UNL     1       6.809   5.322  19.980  0.00  0.00    +0.000 OA
ATOM     10  H   UNL     1       7.759   5.316  20.189  0.00  0.00    +0.000 HD
ENDBRANCH   5   9
BRANCH   4  11
ATOM     11  C   UNL     1       8.424   7.512  18.967  0.00  0.00    +0.000 C 
BRANCH  11  12
ATOM     12  C   UNL     1       8.752   8.893  18.471  0.00  0.00    +0.000 C 
ATOM     13  C   UNL     1       9.231   9.940  19.159  0.00  0.00    +0.000 C 
BRANCH  13  14
ATOM     14  C   UNL     1       9.605  11.219  18.524  0.00  0.00    +0.000 A 
ATOM     15  C   UNL     1      10.877  11.384  17.977  0.00  0.00    +0.000 A 
ATOM     16  C   UNL     1      11.222  12.571  17.320  0.00  0.00    +0.000 A 
ATOM     17  C   UNL     1      10.290  13.601  17.202  0.00  0.00    +0.000 A 
ATOM     18  C   UNL     1       9.016  13.447  17.738  0.00  0.00    +0.000 A 
ATOM     19  C   UNL     1       8.671  12.261  18.389  0.00  0.00    +0.000 A 
ENDBRANCH  13  14
ENDBRANCH  11  12
ENDBRANCH   4  11
BRANCH   6  20
ATOM     20  O   UNL     1       5.287   3.762  18.467  0.00  0.00    +0.000 OA
BRANCH  20  21
ATOM     21  C   UNL     1       4.125   4.039  19.250  0.00  0.00    +0.000 C 
BRANCH  21  22
ATOM     22  C   UNL     1       2.973   3.162  18.802  0.00  0.00    +0.000 C 
ATOM     23  C   UNL     1       1.734   3.176  19.349  0.00  0.00    +0.000 C 
ATOM     24  C   UNL     1       1.360   4.045  20.518  0.00  0.00    +0.000 C 
ATOM     25  C   UNL     1       0.595   2.336  18.833  0.00  0.00    +0.000 C 
ENDBRANCH  21  22
ENDBRANCH  20  21
ENDBRANCH   6  20
TORSDOF 8
ENDMDL
