MODEL 1
REMARK VINA RESULT:      -9.2      0.000      0.000
REMARK  Name = 
REMARK  9 active torsions:
REMARK  status: ('A' for Active; 'I' for Inactive)
REMARK    1  A    between atoms: C_2  and  C_3
REMARK    2  A    between atoms: N_5  and  C_6
REMARK    3  A    between atoms: C_10  and  C_11
REMARK    4  A    between atoms: C_11  and  N_12
REMARK    5  A    between atoms: C_14  and  C_15
REMARK    6  A    between atoms: C_18  and  O_19
REMARK    7  A    between atoms: O_19  and  C_20
REMARK    8  A    between atoms: C_29  and  C_30
REMARK    9  A    between atoms: C_30  and  O_31
REMARK                            x       y       z     vdW  Elec       q    Type
REMARK                         _______ _______ _______ _____ _____    ______ ____
ROOT
ATOM      1  N   UNL     1       3.748   4.633  19.690  0.00  0.00    +0.000 N 
ATOM      2  N   UNL     1       3.569   5.868  19.179  0.00  0.00    +0.000 NA
ATOM      3  C   UNL     1       2.436   6.314  19.739  0.00  0.00    +0.000 A 
ATOM      4  C   UNL     1       1.842   5.300  20.531  0.00  0.00    +0.000 A 
ATOM      5  C   UNL     1       2.698   4.219  20.472  0.00  0.00    +0.000 A 
ENDROOT
BRANCH   3   6
ATOM      6  C   UNL     1       1.952   7.668  19.490  0.00  0.00    +0.000 A 
ATOM      7  C   UNL     1       2.119   8.242  18.224  0.00  0.00    +0.000 A 
ATOM      8  C   UNL     1       1.642   9.524  17.962  0.00  0.00    +0.000 A 
ATOM      9  C   UNL     1       0.923  10.217  18.940  0.00  0.00    +0.000 A 
ATOM     10  C   UNL     1       0.814   9.688  20.226  0.00  0.00    +0.000 A 
ATOM     11  C   UNL     1       1.328   8.416  20.500  0.00  0.00    +0.000 A 
BRANCH   9  12
ATOM     12  O   UNL     1       0.291  11.419  18.695  0.00  0.00    +0.000 OA
BRANCH  12  13
ATOM     13  C   UNL     1      -1.089  11.405  18.633  0.00  0.00    +0.000 A 
ATOM     14  C   UNL     1      -1.805  10.652  17.693  0.00  0.00    +0.000 A 
ATOM     15  C   UNL     1      -3.186  10.796  17.586  0.00  0.00    +0.000 A 
ATOM     16  C   UNL     1      -3.865  11.631  18.472  0.00  0.00    +0.000 A 
ATOM     17  C   UNL     1      -3.164  12.309  19.471  0.00  0.00    +0.000 A 
ATOM     18  C   UNL     1      -1.775  12.198  19.552  0.00  0.00    +0.000 A 
ENDBRANCH  12  13
ENDBRANCH   9  12
ENDBRANCH   3   6
BRANCH   1  19
ATOM     19  C   UNL     1       4.956   3.901  19.327  0.00  0.00    +0.000 C 
BRANCH  19  24
ATOM     20  C   UNL     1       5.947   4.472  15.659  0.00  0.00    +0.000 A 
ATOM     21  C   UNL     1       6.901   5.474  15.820  0.00  0.00    +0.000 A 
ATOM     22  C   UNL     1       7.213   5.975  17.085  0.00  0.00    +0.000 A 
ATOM     23  C   UNL     1       6.569   5.478  18.213  0.00  0.00    +0.000 A 
ATOM     24  C   UNL     1       5.613   4.463  18.088  0.00  0.00    +0.000 A 
ATOM     25  C   UNL     1       5.311   3.965  16.802  0.00  0.00    +0.000 A 
BRANCH  20  28
ATOM     26  C   UNL     1       6.373   4.023  13.243  0.00  0.00    +0.000 C 
ATOM     27  O   UNL     1       7.377   4.708  13.088  0.00  0.00    +0.000 OA
ATOM     28  N   UNL     1       5.615   3.919  14.397  0.00  0.00    +0.000 N 
ATOM     29  H   UNL     1       4.733   3.428  14.347  0.00  0.00    +0.000 HD
BRANCH  26  31
ATOM     30  C   UNL     1       4.558   3.306  11.776  0.00  0.00    +0.000 C 
ATOM     31  C   UNL     1       5.848   3.191  12.127  0.00  0.00    +0.000 C 
ENDBRANCH  26  31
ENDBRANCH  20  28
ENDBRANCH  19  24
ENDBRANCH   1  19
BRANCH   5  32
ATOM     32  C   UNL     1       2.609   2.893  21.115  0.00  0.00    +0.000 C 
BRANCH  32  33
ATOM     33  O   UNL     1       1.932   2.035  20.212  0.00  0.00    +0.000 OA
ATOM     34  H   UNL     1       1.676   1.243  20.719  0.00  0.00    +0.000 HD
ENDBRANCH  32  33
ENDBRANCH   5  32
TORSDOF 9
ENDMDL
MODEL 2
REMARK VINA RESULT:      -9.1      0.843      1.282
REMARK  Name = 
REMARK  9 active torsions:
REMARK  status: ('A' for Active; 'I' for Inactive)
REMARK    1  A    between atoms: C_2  and  C_3
REMARK    2  A    between atoms: N_5  and  C_6
REMARK    3  A    between atoms: C_10  and  C_11
REMARK    4  A    between atoms: C_11  and  N_12
REMARK    5  A    between atoms: C_14  and  C_15
REMARK    6  A    between atoms: C_18  and  O_19
REMARK    7  A    between atoms: O_19  and  C_20
REMARK    8  A    between atoms: C_29  and  C_30
REMARK    9  A    between atoms: C_30  and  O_31
REMARK                            x       y       z     vdW  Elec       q    Type
REMARK                         _______ _______ _______ _____ _____    ______ ____
ROOT
ATOM      1  N   UNL     1       2.871   4.389  19.355  0.00  0.00    +0.000 N 
ATOM      2  N   UNL     1       2.644   5.589  18.782  0.00  0.00    +0.000 NA
ATOM      3  C   UNL     1       2.100   6.338  19.750  0.00  0.00    +0.000 A 
ATOM      4  C   UNL     1       1.886   5.562  20.917  0.00  0.00    +0.000 A 
ATOM      5  C   UNL     1       2.377   4.304  20.633  0.00  0.00    +0.000 A 
ENDROOT
BRANCH   3   6
ATOM      6  C   UNL     1       1.788   7.747  19.530  0.00  0.00    +0.000 A 
ATOM      7  C   UNL     1       2.051   8.329  18.285  0.00  0.00    +0.000 A 
ATOM      8  C   UNL     1       1.738   9.665  18.050  0.00  0.00    +0.000 A 
ATOM      9  C   UNL     1       1.085  10.414  19.034  0.00  0.00    +0.000 A 
ATOM     10  C   UNL     1       0.886   9.870  20.302  0.00  0.00    +0.000 A 
ATOM     11  C   UNL     1       1.236   8.538  20.549  0.00  0.00    +0.000 A 
BRANCH   9  12
ATOM     12  O   UNL     1       0.608  11.690  18.812  0.00  0.00    +0.000 OA
BRANCH  12  13
ATOM     13  C   UNL     1      -0.755  11.883  18.926  0.00  0.00    +0.000 A 
ATOM     14  C   UNL     1      -1.333  12.704  19.902  0.00  0.00    +0.000 A 
ATOM     15  C   UNL     1      -2.717  12.740  20.058  0.00  0.00    +0.000 A 
ATOM     16  C   UNL     1      -3.529  12.019  19.186  0.00  0.00    +0.000 A 
ATOM     17  C   UNL     1      -2.959  11.275  18.152  0.00  0.00    +0.000 A 
ATOM     18  C   UNL     1      -1.571  11.205  18.021  0.00  0.00    +0.000 A 
ENDBRANCH  12  13
ENDBRANCH   9  12
ENDBRANCH   3   6
BRANCH   1  19
ATOM     19  C   UNL     1       3.538   3.359  18.567  0.00  0.00    +0.000 C 
BRANCH  19  24
ATOM     20  C   UNL     1       6.077   4.277  15.834  0.00  0.00    +0.000 A 
ATOM     21  C   UNL     1       7.104   4.795  16.621  0.00  0.00    +0.000 A 
ATOM     22  C   UNL     1       6.979   4.866  18.010  0.00  0.00    +0.000 A 
ATOM     23  C   UNL     1       5.819   4.419  18.632  0.00  0.00    +0.000 A 
ATOM     24  C   UNL     1       4.773   3.884  17.872  0.00  0.00    +0.000 A 
ATOM     25  C   UNL     1       4.916   3.814  16.469  0.00  0.00    +0.000 A 
BRANCH  20  28
ATOM     26  C   UNL     1       7.142   4.748  13.628  0.00  0.00    +0.000 C 
ATOM     27  O   UNL     1       7.994   5.551  13.986  0.00  0.00    +0.000 OA
ATOM     28  N   UNL     1       6.170   4.165  14.424  0.00  0.00    +0.000 N 
ATOM     29  H   UNL     1       5.441   3.627  13.974  0.00  0.00    +0.000 HD
BRANCH  26  31
ATOM     30  C   UNL     1       6.514   3.117  11.922  0.00  0.00    +0.000 C 
ATOM     31  C   UNL     1       7.072   4.304  12.210  0.00  0.00    +0.000 C 
ENDBRANCH  26  31
ENDBRANCH  20  28
ENDBRANCH  19  24
ENDBRANCH   1  19
BRANCH   5  32
ATOM     32  C   UNL     1       2.443   3.092  21.474  0.00  0.00    +0.000 C 
BRANCH  32  33
ATOM     33  O   UNL     1       1.115   2.618  21.629  0.00  0.00    +0.000 OA
ATOM     34  H   UNL     1       0.527   3.331  21.320  0.00  0.00    +0.000 HD
ENDBRANCH  32  33
ENDBRANCH   5  32
TORSDOF 9
ENDMDL
MODEL 3
REMARK VINA RESULT:      -9.0      2.453      3.910
REMARK  Name = 
REMARK  9 active torsions:
REMARK  status: ('A' for Active; 'I' for Inactive)
REMARK    1  A    between atoms: C_2  and  C_3
REMARK    2  A    between atoms: N_5  and  C_6
REMARK    3  A    between atoms: C_10  and  C_11
REMARK    4  A    between atoms: C_11  and  N_12
REMARK    5  A    between atoms: C_14  and  C_15
REMARK    6  A    between atoms: C_18  and  O_19
REMARK    7  A    between atoms: O_19  and  C_20
REMARK    8  A    between atoms: C_29  and  C_30
REMARK    9  A    between atoms: C_30  and  O_31
REMARK                            x       y       z     vdW  Elec       q    Type
REMARK                         _______ _______ _______ _____ _____    ______ ____
ROOT
ATOM      1  N   UNL     1       3.217   4.356  18.195  0.00  0.00    +0.000 N 
ATOM      2  N   UNL     1       2.702   5.578  17.948  0.00  0.00    +0.000 NA
ATOM      3  C   UNL     1       2.491   6.116  19.157  0.00  0.00    +0.000 A 
ATOM      4  C   UNL     1       2.778   5.174  20.176  0.00  0.00    +0.000 A 
ATOM      5  C   UNL     1       3.230   4.041  19.532  0.00  0.00    +0.000 A 
ENDROOT
BRANCH   3   6
ATOM      6  C   UNL     1       2.008   7.486  19.300  0.00  0.00    +0.000 A 
ATOM      7  C   UNL     1       2.062   8.358  18.207  0.00  0.00    +0.000 A 
ATOM      8  C   UNL     1       1.585   9.661  18.319  0.00  0.00    +0.000 A 
ATOM      9  C   UNL     1       0.977  10.084  19.505  0.00  0.00    +0.000 A 
ATOM     10  C   UNL     1       0.985   9.252  20.623  0.00  0.00    +0.000 A 
ATOM     11  C   UNL     1       1.500   7.955  20.521  0.00  0.00    +0.000 A 
BRANCH   9  12
ATOM     12  O   UNL     1       0.345  11.305  19.629  0.00  0.00    +0.000 OA
BRANCH  12  13
ATOM     13  C   UNL     1       1.139  12.434  19.577  0.00  0.00    +0.000 A 
ATOM     14  C   UNL     1       1.251  13.239  18.435  0.00  0.00    +0.000 A 
ATOM     15  C   UNL     1       2.179  14.277  18.398  0.00  0.00    +0.000 A 
ATOM     16  C   UNL     1       2.939  14.565  19.529  0.00  0.00    +0.000 A 
ATOM     17  C   UNL     1       2.761  13.825  20.700  0.00  0.00    +0.000 A 
ATOM     18  C   UNL     1       1.861  12.758  20.725  0.00  0.00    +0.000 A 
ENDBRANCH  12  13
ENDBRANCH   9  12
ENDBRANCH   3   6
BRANCH   1  19
ATOM     19  C   UNL     1       3.631   3.536  17.062  0.00  0.00    +0.000 C 
BRANCH  19  24
ATOM     20  C   UNL     1       6.962   5.377  16.544  0.00  0.00    +0.000 A 
ATOM     21  C   UNL     1       7.258   4.980  15.242  0.00  0.00    +0.000 A 
ATOM     22  C   UNL     1       6.412   4.118  14.542  0.00  0.00    +0.000 A 
ATOM     23  C   UNL     1       5.251   3.639  15.141  0.00  0.00    +0.000 A 
ATOM     24  C   UNL     1       4.918   4.027  16.443  0.00  0.00    +0.000 A 
ATOM     25  C   UNL     1       5.783   4.903  17.136  0.00  0.00    +0.000 A 
BRANCH  20  28
ATOM     26  C   UNL     1       7.531   7.613  17.492  0.00  0.00    +0.000 C 
ATOM     27  O   UNL     1       6.644   8.280  16.975  0.00  0.00    +0.000 OA
ATOM     28  N   UNL     1       7.782   6.267  17.283  0.00  0.00    +0.000 N 
ATOM     29  H   UNL     1       8.631   5.873  17.665  0.00  0.00    +0.000 HD
BRANCH  26  31
ATOM     30  C   UNL     1       8.676   9.564  18.412  0.00  0.00    +0.000 C 
ATOM     31  C   UNL     1       8.482   8.236  18.452  0.00  0.00    +0.000 C 
ENDBRANCH  26  31
ENDBRANCH  20  28
ENDBRANCH  19  24
ENDBRANCH   1  19
BRANCH   5  32
ATOM     32  C   UNL     1       3.694   2.750  20.080  0.00  0.00    +0.000 C 
BRANCH  32  33
ATOM     33  O   UNL     1       5.090   2.675  19.847  0.00  0.00    +0.000 OA
ATOM     34  H   UNL     1       5.225   1.975  19.183  0.00  0.00    +0.000 HD
ENDBRANCH  32  33
ENDBRANCH   5  32
TORSDOF 9
ENDMDL
MODEL 4
REMARK VINA RESULT:      -9.0      0.830      1.556
REMARK  Name = 
REMARK  9 active torsions:
REMARK  status: ('A' for Active; 'I' for Inactive)
REMARK    1  A    between atoms: C_2  and  C_3
REMARK    2  A    between atoms: N_5  and  C_6
REMARK    3  A    between atoms: C_10  and  C_11
REMARK    4  A    between atoms: C_11  and  N_12
REMARK    5  A    between atoms: C_14  and  C_15
REMARK    6  A    between atoms: C_18  and  O_19
REMARK    7  A    between atoms: O_19  and  C_20
REMARK    8  A    between atoms: C_29  and  C_30
REMARK    9  A    between atoms: C_30  and  O_31
REMARK                            x       y       z     vdW  Elec       q    Type
REMARK                         _______ _______ _______ _____ _____    ______ ____
ROOT
ATOM      1  N   UNL     1       3.702   4.513  19.692  0.00  0.00    +0.000 N 
ATOM      2  N   UNL     1       3.496   5.744  19.181  0.00  0.00    +0.000 NA
ATOM      3  C   UNL     1       2.399   6.197  19.802  0.00  0.00    +0.000 A 
ATOM      4  C   UNL     1       1.849   5.192  20.636  0.00  0.00    +0.000 A 
ATOM      5  C   UNL     1       2.698   4.109  20.537  0.00  0.00    +0.000 A 
ENDROOT
BRANCH   3   6
ATOM      6  C   UNL     1       1.903   7.551  19.569  0.00  0.00    +0.000 A 
ATOM      7  C   UNL     1       1.203   8.217  20.582  0.00  0.00    +0.000 A 
ATOM      8  C   UNL     1       0.744   9.516  20.385  0.00  0.00    +0.000 A 
ATOM      9  C   UNL     1       1.048  10.194  19.201  0.00  0.00    +0.000 A 
ATOM     10  C   UNL     1       1.678   9.518  18.157  0.00  0.00    +0.000 A 
ATOM     11  C   UNL     1       2.105   8.199  18.341  0.00  0.00    +0.000 A 
BRANCH   9  12
ATOM     12  O   UNL     1       0.760  11.530  19.007  0.00  0.00    +0.000 OA
BRANCH  12  13
ATOM     13  C   UNL     1      -0.500  11.964  19.369  0.00  0.00    +0.000 A 
ATOM     14  C   UNL     1      -0.748  12.713  20.527  0.00  0.00    +0.000 A 
ATOM     15  C   UNL     1      -2.057  12.992  20.914  0.00  0.00    +0.000 A 
ATOM     16  C   UNL     1      -3.117  12.595  20.102  0.00  0.00    +0.000 A 
ATOM     17  C   UNL     1      -2.867  11.931  18.899  0.00  0.00    +0.000 A 
ATOM     18  C   UNL     1      -1.558  11.614  18.531  0.00  0.00    +0.000 A 
ENDBRANCH  12  13
ENDBRANCH   9  12
ENDBRANCH   3   6
BRANCH   1  19
ATOM     19  C   UNL     1       4.886   3.775  19.266  0.00  0.00    +0.000 C 
BRANCH  19  24
ATOM     20  C   UNL     1       6.412   4.918  15.931  0.00  0.00    +0.000 A 
ATOM     21  C   UNL     1       7.267   5.919  16.387  0.00  0.00    +0.000 A 
ATOM     22  C   UNL     1       7.343   6.238  17.744  0.00  0.00    +0.000 A 
ATOM     23  C   UNL     1       6.559   5.556  18.668  0.00  0.00    +0.000 A 
ATOM     24  C   UNL     1       5.697   4.538  18.245  0.00  0.00    +0.000 A 
ATOM     25  C   UNL     1       5.634   4.225  16.869  0.00  0.00    +0.000 A 
BRANCH  20  28
ATOM     26  C   UNL     1       7.257   4.826  13.586  0.00  0.00    +0.000 C 
ATOM     27  O   UNL     1       8.245   5.540  13.702  0.00  0.00    +0.000 OA
ATOM     28  N   UNL     1       6.319   4.548  14.566  0.00  0.00    +0.000 N 
ATOM     29  H   UNL     1       5.477   4.056  14.297  0.00  0.00    +0.000 HD
BRANCH  26  31
ATOM     30  C   UNL     1       5.917   3.312  12.216  0.00  0.00    +0.000 C 
ATOM     31  C   UNL     1       6.959   4.155  12.292  0.00  0.00    +0.000 C 
ENDBRANCH  26  31
ENDBRANCH  20  28
ENDBRANCH  19  24
ENDBRANCH   1  19
BRANCH   5  32
ATOM     32  C   UNL     1       2.644   2.788  21.196  0.00  0.00    +0.000 C 
BRANCH  32  33
ATOM     33  O   UNL     1       1.712   2.890  22.259  0.00  0.00    +0.000 OA
ATOM     34  H   UNL     1       1.960   3.680  22.772  0.00  0.00    +0.000 HD
ENDBRANCH  32  33
ENDBRANCH   5  32
TORSDOF 9
ENDMDL
MODEL 5
REMARK VINA RESULT:      -9.0      2.293      3.769
REMARK  Name = 
REMARK  9 active torsions:
REMARK  status: ('A' for Active; 'I' for Inactive)
REMARK    1  A    between atoms: C_2  and  C_3
REMARK    2  A    between atoms: N_5  and  C_6
REMARK    3  A    between atoms: C_10  and  C_11
REMARK    4  A    between atoms: C_11  and  N_12
REMARK    5  A    between atoms: C_14  and  C_15
REMARK    6  A    between atoms: C_18  and  O_19
REMARK    7  A    between atoms: O_19  and  C_20
REMARK    8  A    between atoms: C_29  and  C_30
REMARK    9  A    between atoms: C_30  and  O_31
REMARK                            x       y       z     vdW  Elec       q    Type
REMARK                         _______ _______ _______ _____ _____    ______ ____
ROOT
ATOM      1  N   UNL     1       2.883   4.805  18.497  0.00  0.00    +0.000 N 
ATOM      2  N   UNL     1       2.356   6.042  18.394  0.00  0.00    +0.000 NA
ATOM      3  C   UNL     1       2.194   6.455  19.658  0.00  0.00    +0.000 A 
ATOM      4  C   UNL     1       2.526   5.418  20.566  0.00  0.00    +0.000 A 
ATOM      5  C   UNL     1       2.953   4.358  19.793  0.00  0.00    +0.000 A 
ENDROOT
BRANCH   3   6
ATOM      6  C   UNL     1       1.716   7.801  19.958  0.00  0.00    +0.000 A 
ATOM      7  C   UNL     1       1.282   8.111  21.252  0.00  0.00    +0.000 A 
ATOM      8  C   UNL     1       0.844   9.397  21.561  0.00  0.00    +0.000 A 
ATOM      9  C   UNL     1       0.909  10.408  20.598  0.00  0.00    +0.000 A 
ATOM     10  C   UNL     1       1.267  10.096  19.288  0.00  0.00    +0.000 A 
ATOM     11  C   UNL     1       1.670   8.795  18.968  0.00  0.00    +0.000 A 
BRANCH   9  12
ATOM     12  O   UNL     1       0.641  11.732  20.883  0.00  0.00    +0.000 OA
BRANCH  12  13
ATOM     13  C   UNL     1      -0.622  12.033  21.354  0.00  0.00    +0.000 A 
ATOM     14  C   UNL     1      -0.947  12.047  22.717  0.00  0.00    +0.000 A 
ATOM     15  C   UNL     1      -2.270  12.212  23.119  0.00  0.00    +0.000 A 
ATOM     16  C   UNL     1      -3.259  12.446  22.166  0.00  0.00    +0.000 A 
ATOM     17  C   UNL     1      -2.922  12.528  20.814  0.00  0.00    +0.000 A 
ATOM     18  C   UNL     1      -1.603  12.320  20.406  0.00  0.00    +0.000 A 
ENDBRANCH  12  13
ENDBRANCH   9  12
ENDBRANCH   3   6
BRANCH   1  19
ATOM     19  C   UNL     1       3.251   4.104  17.271  0.00  0.00    +0.000 C 
BRANCH  19  24
ATOM     20  C   UNL     1       6.401   6.187  16.565  0.00  0.00    +0.000 A 
ATOM     21  C   UNL     1       7.092   5.307  15.735  0.00  0.00    +0.000 A 
ATOM     22  C   UNL     1       6.566   4.053  15.419  0.00  0.00    +0.000 A 
ATOM     23  C   UNL     1       5.334   3.661  15.932  0.00  0.00    +0.000 A 
ATOM     24  C   UNL     1       4.608   4.526  16.759  0.00  0.00    +0.000 A 
ATOM     25  C   UNL     1       5.153   5.792  17.067  0.00  0.00    +0.000 A 
BRANCH  20  28
ATOM     26  C   UNL     1       7.800   7.767  17.895  0.00  0.00    +0.000 C 
ATOM     27  O   UNL     1       8.235   6.988  18.734  0.00  0.00    +0.000 OA
ATOM     28  N   UNL     1       6.887   7.477  16.894  0.00  0.00    +0.000 N 
ATOM     29  H   UNL     1       6.507   8.244  16.356  0.00  0.00    +0.000 HD
BRANCH  26  31
ATOM     30  C   UNL     1       8.949   9.662  18.919  0.00  0.00    +0.000 C 
ATOM     31  C   UNL     1       8.244   9.186  17.880  0.00  0.00    +0.000 C 
ENDBRANCH  26  31
ENDBRANCH  20  28
ENDBRANCH  19  24
ENDBRANCH   1  19
BRANCH   5  32
ATOM     32  C   UNL     1       3.442   3.022  20.190  0.00  0.00    +0.000 C 
BRANCH  32  33
ATOM     33  O   UNL     1       4.838   2.998  19.943  0.00  0.00    +0.000 OA
ATOM     34  H   UNL     1       5.274   2.938  20.812  0.00  0.00    +0.000 HD
ENDBRANCH  32  33
ENDBRANCH   5  32
TORSDOF 9
ENDMDL
MODEL 6
REMARK VINA RESULT:      -9.0      1.067      1.265
REMARK  Name = 
REMARK  9 active torsions:
REMARK  status: ('A' for Active; 'I' for Inactive)
REMARK    1  A    between atoms: C_2  and  C_3
REMARK    2  A    between atoms: N_5  and  C_6
REMARK    3  A    between atoms: C_10  and  C_11
REMARK    4  A    between atoms: C_11  and  N_12
REMARK    5  A    between atoms: C_14  and  C_15
REMARK    6  A    between atoms: C_18  and  O_19
REMARK    7  A    between atoms: O_19  and  C_20
REMARK    8  A    between atoms: C_29  and  C_30
REMARK    9  A    between atoms: C_30  and  O_31
REMARK                            x       y       z     vdW  Elec       q    Type
REMARK                         _______ _______ _______ _____ _____    ______ ____
ROOT
ATOM      1  N   UNL     1       3.734   4.466  19.723  0.00  0.00    +0.000 N 
ATOM      2  N   UNL     1       3.526   5.691  19.198  0.00  0.00    +0.000 NA
ATOM      3  C   UNL     1       2.410   6.136  19.790  0.00  0.00    +0.000 A 
ATOM      4  C   UNL     1       1.852   5.131  20.619  0.00  0.00    +0.000 A 
ATOM      5  C   UNL     1       2.715   4.057  20.548  0.00  0.00    +0.000 A 
ENDROOT
BRANCH   3   6
ATOM      6  C   UNL     1       1.904   7.482  19.534  0.00  0.00    +0.000 A 
ATOM      7  C   UNL     1       2.054   8.049  18.263  0.00  0.00    +0.000 A 
ATOM      8  C   UNL     1       1.557   9.322  17.996  0.00  0.00    +0.000 A 
ATOM      9  C   UNL     1       0.836  10.012  18.975  0.00  0.00    +0.000 A 
ATOM     10  C   UNL     1       0.745   9.492  20.265  0.00  0.00    +0.000 A 
ATOM     11  C   UNL     1       1.279   8.228  20.544  0.00  0.00    +0.000 A 
BRANCH   9  12
ATOM     12  O   UNL     1       0.185  11.204  18.727  0.00  0.00    +0.000 OA
BRANCH  12  13
ATOM     13  C   UNL     1      -1.184  11.152  18.560  0.00  0.00    +0.000 A 
ATOM     14  C   UNL     1      -1.812  10.300  17.641  0.00  0.00    +0.000 A 
ATOM     15  C   UNL     1      -3.183  10.401  17.415  0.00  0.00    +0.000 A 
ATOM     16  C   UNL     1      -3.943  11.296  18.166  0.00  0.00    +0.000 A 
ATOM     17  C   UNL     1      -3.334  12.078  19.150  0.00  0.00    +0.000 A 
ATOM     18  C   UNL     1      -1.954  12.008  19.347  0.00  0.00    +0.000 A 
ENDBRANCH  12  13
ENDBRANCH   9  12
ENDBRANCH   3   6
BRANCH   1  19
ATOM     19  C   UNL     1       4.936   3.738  19.331  0.00  0.00    +0.000 C 
BRANCH  19  24
ATOM     20  C   UNL     1       7.104   5.278  16.559  0.00  0.00    +0.000 A 
ATOM     21  C   UNL     1       7.817   6.217  17.302  0.00  0.00    +0.000 A 
ATOM     22  C   UNL     1       7.594   6.369  18.672  0.00  0.00    +0.000 A 
ATOM     23  C   UNL     1       6.650   5.580  19.319  0.00  0.00    +0.000 A 
ATOM     24  C   UNL     1       5.924   4.620  18.605  0.00  0.00    +0.000 A 
ATOM     25  C   UNL     1       6.164   4.475  17.220  0.00  0.00    +0.000 A 
BRANCH  20  28
ATOM     26  C   UNL     1       6.394   4.540  14.284  0.00  0.00    +0.000 C 
ATOM     27  O   UNL     1       5.312   4.041  14.567  0.00  0.00    +0.000 OA
ATOM     28  N   UNL     1       7.313   5.075  15.172  0.00  0.00    +0.000 N 
ATOM     29  H   UNL     1       8.227   5.327  14.820  0.00  0.00    +0.000 HD
BRANCH  26  31
ATOM     30  C   UNL     1       7.978   5.271  12.576  0.00  0.00    +0.000 C 
ATOM     31  C   UNL     1       6.843   4.617  12.868  0.00  0.00    +0.000 C 
ENDBRANCH  26  31
ENDBRANCH  20  28
ENDBRANCH  19  24
ENDBRANCH   1  19
BRANCH   5  32
ATOM     32  C   UNL     1       2.661   2.741  21.216  0.00  0.00    +0.000 C 
BRANCH  32  33
ATOM     33  O   UNL     1       1.707   2.842  22.260  0.00  0.00    +0.000 OA
ATOM     34  H   UNL     1       1.388   3.763  22.258  0.00  0.00    +0.000 HD
ENDBRANCH  32  33
ENDBRANCH   5  32
TORSDOF 9
ENDMDL
MODEL 7
REMARK VINA RESULT:      -8.9      1.878      3.381
REMARK  Name = 
REMARK  9 active torsions:
REMARK  status: ('A' for Active; 'I' for Inactive)
REMARK    1  A    between atoms: C_2  and  C_3
REMARK    2  A    between atoms: N_5  and  C_6
REMARK    3  A    between atoms: C_10  and  C_11
REMARK    4  A    between atoms: C_11  and  N_12
REMARK    5  A    between atoms: C_14  and  C_15
REMARK    6  A    between atoms: C_18  and  O_19
REMARK    7  A    between atoms: O_19  and  C_20
REMARK    8  A    between atoms: C_29  and  C_30
REMARK    9  A    between atoms: C_30  and  O_31
REMARK                            x       y       z     vdW  Elec       q    Type
REMARK                         _______ _______ _______ _____ _____    ______ ____
ROOT
ATOM      1  N   UNL     1       3.387   4.155  18.135  0.00  0.00    +0.000 N 
ATOM      2  N   UNL     1       2.883   5.363  17.811  0.00  0.00    +0.000 NA
ATOM      3  C   UNL     1       2.613   5.952  18.984  0.00  0.00    +0.000 A 
ATOM      4  C   UNL     1       2.854   5.056  20.056  0.00  0.00    +0.000 A 
ATOM      5  C   UNL     1       3.338   3.898  19.483  0.00  0.00    +0.000 A 
ENDROOT
BRANCH   3   6
ATOM      6  C   UNL     1       2.122   7.325  19.044  0.00  0.00    +0.000 A 
ATOM      7  C   UNL     1       1.584   7.817  20.239  0.00  0.00    +0.000 A 
ATOM      8  C   UNL     1       1.133   9.132  20.321  0.00  0.00    +0.000 A 
ATOM      9  C   UNL     1       1.285   9.993  19.231  0.00  0.00    +0.000 A 
ATOM     10  C   UNL     1       1.749   9.497  18.014  0.00  0.00    +0.000 A 
ATOM     11  C   UNL     1       2.167   8.164  17.921  0.00  0.00    +0.000 A 
BRANCH   9  12
ATOM     12  O   UNL     1       1.005  11.343  19.298  0.00  0.00    +0.000 OA
BRANCH  12  13
ATOM     13  C   UNL     1      -0.324  11.709  19.382  0.00  0.00    +0.000 A 
ATOM     14  C   UNL     1      -0.862  12.391  20.481  0.00  0.00    +0.000 A 
ATOM     15  C   UNL     1      -2.236  12.599  20.572  0.00  0.00    +0.000 A 
ATOM     16  C   UNL     1      -3.067  12.199  19.528  0.00  0.00    +0.000 A 
ATOM     17  C   UNL     1      -2.521  11.604  18.389  0.00  0.00    +0.000 A 
ATOM     18  C   UNL     1      -1.149  11.357  18.314  0.00  0.00    +0.000 A 
ENDBRANCH  12  13
ENDBRANCH   9  12
ENDBRANCH   3   6
BRANCH   1  19
ATOM     19  C   UNL     1       3.856   3.288  17.060  0.00  0.00    +0.000 C 
BRANCH  19  24
ATOM     20  C   UNL     1       6.907   5.443  16.161  0.00  0.00    +0.000 A 
ATOM     21  C   UNL     1       7.083   5.069  14.830  0.00  0.00    +0.000 A 
ATOM     22  C   UNL     1       6.248   4.125  14.231  0.00  0.00    +0.000 A 
ATOM     23  C   UNL     1       5.219   3.538  14.960  0.00  0.00    +0.000 A 
ATOM     24  C   UNL     1       5.007   3.899  16.295  0.00  0.00    +0.000 A 
ATOM     25  C   UNL     1       5.858   4.859  16.886  0.00  0.00    +0.000 A 
BRANCH  20  28
ATOM     26  C   UNL     1       7.259   7.530  17.482  0.00  0.00    +0.000 C 
ATOM     27  O   UNL     1       6.103   7.931  17.531  0.00  0.00    +0.000 OA
ATOM     28  N   UNL     1       7.717   6.413  16.802  0.00  0.00    +0.000 N 
ATOM     29  H   UNL     1       8.716   6.274  16.729  0.00  0.00    +0.000 HD
BRANCH  26  31
ATOM     30  C   UNL     1       8.431   9.592  18.061  0.00  0.00    +0.000 C 
ATOM     31  C   UNL     1       8.342   8.259  18.194  0.00  0.00    +0.000 C 
ENDBRANCH  26  31
ENDBRANCH  20  28
ENDBRANCH  19  24
ENDBRANCH   1  19
BRANCH   5  32
ATOM     32  C   UNL     1       3.778   2.634  20.108  0.00  0.00    +0.000 C 
BRANCH  32  33
ATOM     33  O   UNL     1       5.184   2.554  19.943  0.00  0.00    +0.000 OA
ATOM     34  H   UNL     1       5.419   3.191  19.244  0.00  0.00    +0.000 HD
ENDBRANCH  32  33
ENDBRANCH   5  32
TORSDOF 9
ENDMDL
MODEL 8
REMARK VINA RESULT:      -8.8      2.018      2.720
REMARK  Name = 
REMARK  9 active torsions:
REMARK  status: ('A' for Active; 'I' for Inactive)
REMARK    1  A    between atoms: C_2  and  C_3
REMARK    2  A    between atoms: N_5  and  C_6
REMARK    3  A    between atoms: C_10  and  C_11
REMARK    4  A    between atoms: C_11  and  N_12
REMARK    5  A    between atoms: C_14  and  C_15
REMARK    6  A    between atoms: C_18  and  O_19
REMARK    7  A    between atoms: O_19  and  C_20
REMARK    8  A    between atoms: C_29  and  C_30
REMARK    9  A    between atoms: C_30  and  O_31
REMARK                            x       y       z     vdW  Elec       q    Type
REMARK                         _______ _______ _______ _____ _____    ______ ____
ROOT
ATOM      1  N   UNL     1       2.623   4.641  19.471  0.00  0.00    +0.000 N 
ATOM      2  N   UNL     1       2.433   5.816  18.836  0.00  0.00    +0.000 NA
ATOM      3  C   UNL     1       1.960   6.644  19.776  0.00  0.00    +0.000 A 
ATOM      4  C   UNL     1       1.750   5.948  20.992  0.00  0.00    +0.000 A 
ATOM      5  C   UNL     1       2.170   4.653  20.767  0.00  0.00    +0.000 A 
ENDROOT
BRANCH   3   6
ATOM      6  C   UNL     1       1.706   8.052  19.484  0.00  0.00    +0.000 A 
ATOM      7  C   UNL     1       2.090   8.584  18.247  0.00  0.00    +0.000 A 
ATOM      8  C   UNL     1       1.835   9.918  17.943  0.00  0.00    +0.000 A 
ATOM      9  C   UNL     1       1.124  10.718  18.843  0.00  0.00    +0.000 A 
ATOM     10  C   UNL     1       0.803  10.223  20.106  0.00  0.00    +0.000 A 
ATOM     11  C   UNL     1       1.094   8.892  20.426  0.00  0.00    +0.000 A 
BRANCH   9  12
ATOM     12  O   UNL     1       0.703  11.997  18.539  0.00  0.00    +0.000 OA
BRANCH  12  13
ATOM     13  C   UNL     1       1.540  13.037  18.890  0.00  0.00    +0.000 A 
ATOM     14  C   UNL     1       2.777  13.266  18.272  0.00  0.00    +0.000 A 
ATOM     15  C   UNL     1       3.639  14.239  18.770  0.00  0.00    +0.000 A 
ATOM     16  C   UNL     1       3.234  15.042  19.834  0.00  0.00    +0.000 A 
ATOM     17  C   UNL     1       1.964  14.880  20.390  0.00  0.00    +0.000 A 
ATOM     18  C   UNL     1       1.115  13.876  19.919  0.00  0.00    +0.000 A 
ENDBRANCH  12  13
ENDBRANCH   9  12
ENDBRANCH   3   6
BRANCH   1  19
ATOM     19  C   UNL     1       3.213   3.536  18.723  0.00  0.00    +0.000 C 
BRANCH  19  24
ATOM     20  C   UNL     1       5.900   4.110  16.039  0.00  0.00    +0.000 A 
ATOM     21  C   UNL     1       6.934   4.602  16.832  0.00  0.00    +0.000 A 
ATOM     22  C   UNL     1       6.769   4.766  18.209  0.00  0.00    +0.000 A 
ATOM     23  C   UNL     1       5.559   4.439  18.812  0.00  0.00    +0.000 A 
ATOM     24  C   UNL     1       4.504   3.931  18.046  0.00  0.00    +0.000 A 
ATOM     25  C   UNL     1       4.688   3.767  16.655  0.00  0.00    +0.000 A 
BRANCH  20  28
ATOM     26  C   UNL     1       6.915   4.571  13.807  0.00  0.00    +0.000 C 
ATOM     27  O   UNL     1       7.628   5.520  14.105  0.00  0.00    +0.000 OA
ATOM     28  N   UNL     1       6.031   3.907  14.642  0.00  0.00    +0.000 N 
ATOM     29  H   UNL     1       5.402   3.230  14.232  0.00  0.00    +0.000 HD
BRANCH  26  31
ATOM     30  C   UNL     1       6.034   3.083  12.082  0.00  0.00    +0.000 C 
ATOM     31  C   UNL     1       6.937   4.014  12.427  0.00  0.00    +0.000 C 
ENDBRANCH  26  31
ENDBRANCH  20  28
ENDBRANCH  19  24
ENDBRANCH   1  19
BRANCH   5  32
ATOM     32  C   UNL     1       2.208   3.488  21.675  0.00  0.00    +0.000 C 
BRANCH  32  33
ATOM     33  O   UNL     1       1.004   2.766  21.478  0.00  0.00    +0.000 OA
ATOM     34  H   UNL     1       0.315   3.229  21.989  0.00  0.00    +0.000 HD
ENDBRANCH  32  33
ENDBRANCH   5  32
TORSDOF 9
ENDMDL
MODEL 9
REMARK VINA RESULT:      -8.8      2.584      4.263
REMARK  Name = 
REMARK  9 active torsions:
REMARK  status: ('A' for Active; 'I' for Inactive)
REMARK    1  A    between atoms: C_2  and  C_3
REMARK    2  A    between atoms: N_5  and  C_6
REMARK    3  A    between atoms: C_10  and  C_11
REMARK    4  A    between atoms: C_11  and  N_12
REMARK    5  A    between atoms: C_14  and  C_15
REMARK    6  A    between atoms: C_18  and  O_19
REMARK    7  A    between atoms: O_19  and  C_20
REMARK    8  A    between atoms: C_29  and  C_30
REMARK    9  A    between atoms: C_30  and  O_31
REMARK                            x       y       z     vdW  Elec       q    Type
REMARK                         _______ _______ _______ _____ _____    ______ ____
ROOT
ATOM      1  N   UNL     1       3.249   4.472  18.373  0.00  0.00    +0.000 N 
ATOM      2  N   UNL     1       2.751   5.668  17.996  0.00  0.00    +0.000 NA
ATOM      3  C   UNL     1       2.385   6.265  19.138  0.00  0.00    +0.000 A 
ATOM      4  C   UNL     1       2.560   5.387  20.237  0.00  0.00    +0.000 A 
ATOM      5  C   UNL     1       3.105   4.231  19.717  0.00  0.00    +0.000 A 
ENDROOT
BRANCH   3   6
ATOM      6  C   UNL     1       1.868   7.631  19.144  0.00  0.00    +0.000 A 
ATOM      7  C   UNL     1       1.418   8.197  20.343  0.00  0.00    +0.000 A 
ATOM      8  C   UNL     1       0.944   9.506  20.371  0.00  0.00    +0.000 A 
ATOM      9  C   UNL     1       0.986  10.290  19.215  0.00  0.00    +0.000 A 
ATOM     10  C   UNL     1       1.360   9.717  18.001  0.00  0.00    +0.000 A 
ATOM     11  C   UNL     1       1.800   8.389  17.966  0.00  0.00    +0.000 A 
BRANCH   9  12
ATOM     12  O   UNL     1       0.680  11.636  19.211  0.00  0.00    +0.000 OA
BRANCH  12  13
ATOM     13  C   UNL     1       1.724  12.521  19.398  0.00  0.00    +0.000 A 
ATOM     14  C   UNL     1       2.112  12.990  20.660  0.00  0.00    +0.000 A 
ATOM     15  C   UNL     1       3.073  13.993  20.769  0.00  0.00    +0.000 A 
ATOM     16  C   UNL     1       3.706  14.471  19.625  0.00  0.00    +0.000 A 
ATOM     17  C   UNL     1       3.389  13.937  18.374  0.00  0.00    +0.000 A 
ATOM     18  C   UNL     1       2.396  12.962  18.259  0.00  0.00    +0.000 A 
ENDBRANCH  12  13
ENDBRANCH   9  12
ENDBRANCH   3   6
BRANCH   1  19
ATOM     19  C   UNL     1       3.811   3.601  17.347  0.00  0.00    +0.000 C 
BRANCH  19  24
ATOM     20  C   UNL     1       6.556   6.096  16.348  0.00  0.00    +0.000 A 
ATOM     21  C   UNL     1       7.150   5.396  15.300  0.00  0.00    +0.000 A 
ATOM     22  C   UNL     1       6.689   4.132  14.927  0.00  0.00    +0.000 A 
ATOM     23  C   UNL     1       5.623   3.548  15.603  0.00  0.00    +0.000 A 
ATOM     24  C   UNL     1       4.997   4.228  16.653  0.00  0.00    +0.000 A 
ATOM     25  C   UNL     1       5.473   5.508  17.016  0.00  0.00    +0.000 A 
BRANCH  20  28
ATOM     26  C   UNL     1       7.789   7.680  17.830  0.00  0.00    +0.000 C 
ATOM     27  O   UNL     1       8.167   6.893  18.689  0.00  0.00    +0.000 OA
ATOM     28  N   UNL     1       6.977   7.390  16.745  0.00  0.00    +0.000 N 
ATOM     29  H   UNL     1       6.627   8.159  16.191  0.00  0.00    +0.000 HD
BRANCH  26  31
ATOM     30  C   UNL     1       8.934   9.542  18.917  0.00  0.00    +0.000 C 
ATOM     31  C   UNL     1       8.195   9.109  17.883  0.00  0.00    +0.000 C 
ENDBRANCH  26  31
ENDBRANCH  20  28
ENDBRANCH  19  24
ENDBRANCH   1  19
BRANCH   5  32
ATOM     32  C   UNL     1       3.518   2.982  20.390  0.00  0.00    +0.000 C 
BRANCH  32  33
ATOM     33  O   UNL     1       4.885   2.772  20.077  0.00  0.00    +0.000 OA
ATOM     34  H   UNL     1       4.911   2.075  19.396  0.00  0.00    +0.000 HD
ENDBRANCH  32  33
ENDBRANCH   5  32
TORSDOF 9
ENDMDL
