MODEL 1
REMARK VINA RESULT:      -7.7      0.000      0.000
REMARK  Name = 
REMARK  8 active torsions:
REMARK  status: ('A' for Active; 'I' for Inactive)
REMARK    1  A    between atoms: C_1  and  O_2
REMARK    2  A    between atoms: O_2  and  C_3
REMARK    3  A    between atoms: C_7  and  N_8
REMARK    4  A    between atoms: C_9  and  C_11
REMARK    5  A    between atoms: C_14  and  S_15
REMARK    6  A    between atoms: S_15  and  C_16
REMARK    7  A    between atoms: C_16  and  C_17
REMARK    8  A    between atoms: N_25  and  C_26
REMARK                            x       y       z     vdW  Elec       q    Type
REMARK                         _______ _______ _______ _____ _____    ______ ____
ROOT
ATOM      1  C   UNL     1       1.328   9.195  19.244  0.00  0.00    +0.000 A 
ATOM      2  C   UNL     1       0.841  10.276  18.619  0.00  0.00    +0.000 A 
ATOM      3  N   UNL     1       0.067  11.254  19.200  0.00  0.00    +0.000 NA
ATOM      4  C   UNL     1      -0.327  11.054  20.414  0.00  0.00    +0.000 A 
ATOM      5  N   UNL     1       0.053   9.959  21.172  0.00  0.00    +0.000 N 
ATOM      6  C   UNL     1      -0.389   9.683  22.533  0.00  0.00    +0.000 C 
ATOM      7  C   UNL     1       0.989   9.068  20.674  0.00  0.00    +0.000 A 
ATOM      8  O   UNL     1       1.526   8.193  21.354  0.00  0.00    +0.000 OA
ENDROOT
BRANCH   1  10
ATOM      9  N   UNL     1       2.277   6.963  19.091  0.00  0.00    +0.000 N 
ATOM     10  C   UNL     1       2.126   8.193  18.473  0.00  0.00    +0.000 C 
ATOM     11  O   UNL     1       2.555   8.489  17.360  0.00  0.00    +0.000 OA
ATOM     12  H   UNL     1       1.832   6.854  20.006  0.00  0.00    +0.000 HD
BRANCH   9  17
ATOM     13  C   UNL     1       5.014   4.564  18.383  0.00  0.00    +0.000 A 
ATOM     14  C   UNL     1       4.335   3.579  17.664  0.00  0.00    +0.000 A 
ATOM     15  C   UNL     1       2.975   3.710  17.398  0.00  0.00    +0.000 A 
ATOM     16  C   UNL     1       2.278   4.825  17.860  0.00  0.00    +0.000 A 
ATOM     17  C   UNL     1       2.934   5.820  18.588  0.00  0.00    +0.000 A 
ATOM     18  C   UNL     1       4.314   5.687  18.839  0.00  0.00    +0.000 A 
BRANCH  13  20
ATOM     19  C   UNL     1       7.268   5.041  17.770  0.00  0.00    +0.000 C 
ATOM     20  O   UNL     1       6.345   4.305  18.559  0.00  0.00    +0.000 OA
ENDBRANCH  13  20
ENDBRANCH   9  17
ENDBRANCH   1  10
BRANCH   4  21
ATOM     21  S   UNL     1      -1.314  12.276  21.192  0.00  0.00    +0.000 S 
BRANCH  21  22
ATOM     22  C   UNL     1      -2.581  12.609  19.938  0.00  0.00    +0.000 C 
BRANCH  22  23
ATOM     23  C   UNL     1      -4.013  12.556  20.465  0.00  0.00    +0.000 C 
ATOM     24  O   UNL     1      -4.293  12.789  21.644  0.00  0.00    +0.000 OA
ATOM     25  N   UNL     1      -5.008  12.250  19.532  0.00  0.00    +0.000 N 
ATOM     26  C   UNL     1      -4.784  11.832  18.140  0.00  0.00    +0.000 C 
ATOM     27  C   UNL     1      -5.893  12.358  17.216  0.00  0.00    +0.000 C 
ATOM     28  O   UNL     1      -7.196  12.012  17.704  0.00  0.00    +0.000 OA
ATOM     29  C   UNL     1      -7.405  12.560  19.014  0.00  0.00    +0.000 C 
ATOM     30  C   UNL     1      -6.375  12.010  20.006  0.00  0.00    +0.000 C 
ENDBRANCH  22  23
ENDBRANCH  21  22
ENDBRANCH   4  21
TORSDOF 6
ENDMDL
MODEL 2
REMARK VINA RESULT:      -7.6      3.428     10.634
REMARK  Name = 
REMARK  8 active torsions:
REMARK  status: ('A' for Active; 'I' for Inactive)
REMARK    1  A    between atoms: C_1  and  O_2
REMARK    2  A    between atoms: O_2  and  C_3
REMARK    3  A    between atoms: C_7  and  N_8
REMARK    4  A    between atoms: C_9  and  C_11
REMARK    5  A    between atoms: C_14  and  S_15
REMARK    6  A    between atoms: S_15  and  C_16
REMARK    7  A    between atoms: C_16  and  C_17
REMARK    8  A    between atoms: N_25  and  C_26
REMARK                            x       y       z     vdW  Elec       q    Type
REMARK                         _______ _______ _______ _____ _____    ______ ____
ROOT
ATOM      1  C   UNL     1       0.636   9.975  21.343  0.00  0.00    +0.000 A 
ATOM      2  C   UNL     1       0.881   8.657  21.359  0.00  0.00    +0.000 A 
ATOM      3  N   UNL     1       1.537   7.954  20.375  0.00  0.00    +0.000 NA
ATOM      4  C   UNL     1       1.833   8.591  19.290  0.00  0.00    +0.000 A 
ATOM      5  N   UNL     1       1.597   9.943  19.107  0.00  0.00    +0.000 N 
ATOM      6  C   UNL     1       1.891  10.692  17.891  0.00  0.00    +0.000 C 
ATOM      7  C   UNL     1       1.121  10.708  20.158  0.00  0.00    +0.000 A 
ATOM      8  O   UNL     1       1.077  11.939  20.141  0.00  0.00    +0.000 OA
ENDROOT
BRANCH   1  10
ATOM      9  N   UNL     1      -0.900  11.690  22.120  0.00  0.00    +0.000 N 
ATOM     10  C   UNL     1      -0.123  10.598  22.470  0.00  0.00    +0.000 C 
ATOM     11  O   UNL     1      -0.052  10.105  23.593  0.00  0.00    +0.000 OA
ATOM     12  H   UNL     1      -0.885  11.964  21.133  0.00  0.00    +0.000 HD
BRANCH   9  17
ATOM     13  C   UNL     1      -3.884  12.589  24.128  0.00  0.00    +0.000 A 
ATOM     14  C   UNL     1      -3.514  13.841  24.622  0.00  0.00    +0.000 A 
ATOM     15  C   UNL     1      -2.284  14.399  24.284  0.00  0.00    +0.000 A 
ATOM     16  C   UNL     1      -1.407  13.703  23.454  0.00  0.00    +0.000 A 
ATOM     17  C   UNL     1      -1.753  12.445  22.953  0.00  0.00    +0.000 A 
ATOM     18  C   UNL     1      -3.005  11.896  23.288  0.00  0.00    +0.000 A 
BRANCH  13  20
ATOM     19  C   UNL     1      -6.219  13.041  24.294  0.00  0.00    +0.000 C 
ATOM     20  O   UNL     1      -5.121  12.175  24.537  0.00  0.00    +0.000 OA
ENDBRANCH  13  20
ENDBRANCH   9  17
ENDBRANCH   1  10
BRANCH   4  21
ATOM     21  S   UNL     1       2.669   7.732  18.011  0.00  0.00    +0.000 S 
BRANCH  21  22
ATOM     22  C   UNL     1       3.170   6.197  18.834  0.00  0.00    +0.000 C 
BRANCH  22  23
ATOM     23  C   UNL     1       3.523   5.059  17.879  0.00  0.00    +0.000 C 
ATOM     24  O   UNL     1       2.676   4.273  17.446  0.00  0.00    +0.000 OA
ATOM     25  N   UNL     1       4.862   4.963  17.494  0.00  0.00    +0.000 N 
ATOM     26  C   UNL     1       5.974   5.757  18.039  0.00  0.00    +0.000 C 
ATOM     27  C   UNL     1       7.032   6.045  16.963  0.00  0.00    +0.000 C 
ATOM     28  O   UNL     1       7.466   4.843  16.313  0.00  0.00    +0.000 OA
ATOM     29  C   UNL     1       6.357   4.180  15.688  0.00  0.00    +0.000 C 
ATOM     30  C   UNL     1       5.297   3.793  16.724  0.00  0.00    +0.000 C 
ENDBRANCH  22  23
ENDBRANCH  21  22
ENDBRANCH   4  21
TORSDOF 6
ENDMDL
MODEL 3
REMARK VINA RESULT:      -7.6      1.121      1.548
REMARK  Name = 
REMARK  8 active torsions:
REMARK  status: ('A' for Active; 'I' for Inactive)
REMARK    1  A    between atoms: C_1  and  O_2
REMARK    2  A    between atoms: O_2  and  C_3
REMARK    3  A    between atoms: C_7  and  N_8
REMARK    4  A    between atoms: C_9  and  C_11
REMARK    5  A    between atoms: C_14  and  S_15
REMARK    6  A    between atoms: S_15  and  C_16
REMARK    7  A    between atoms: C_16  and  C_17
REMARK    8  A    between atoms: N_25  and  C_26
REMARK                            x       y       z     vdW  Elec       q    Type
REMARK                         _______ _______ _______ _____ _____    ______ ____
ROOT
ATOM      1  C   UNL     1       1.357   9.171  19.328  0.00  0.00    +0.000 A 
ATOM      2  C   UNL     1       0.938  10.308  18.756  0.00  0.00    +0.000 A 
ATOM      3  N   UNL     1       0.191  11.285  19.373  0.00  0.00    +0.000 NA
ATOM      4  C   UNL     1      -0.247  11.034  20.561  0.00  0.00    +0.000 A 
ATOM      5  N   UNL     1       0.061   9.880  21.263  0.00  0.00    +0.000 N 
ATOM      6  C   UNL     1      -0.432   9.546  22.593  0.00  0.00    +0.000 C 
ATOM      7  C   UNL     1       0.971   8.977  20.738  0.00  0.00    +0.000 A 
ATOM      8  O   UNL     1       1.448   8.040  21.380  0.00  0.00    +0.000 OA
ENDROOT
BRANCH   1  10
ATOM      9  N   UNL     1       2.369   6.969  19.149  0.00  0.00    +0.000 N 
ATOM     10  C   UNL     1       2.131   8.180  18.520  0.00  0.00    +0.000 C 
ATOM     11  O   UNL     1       2.470   8.466  17.374  0.00  0.00    +0.000 OA
ATOM     12  H   UNL     1       1.993   6.865  20.095  0.00  0.00    +0.000 HD
BRANCH   9  17
ATOM     13  C   UNL     1       5.094   4.558  18.437  0.00  0.00    +0.000 A 
ATOM     14  C   UNL     1       4.427   3.616  17.653  0.00  0.00    +0.000 A 
ATOM     15  C   UNL     1       3.080   3.779  17.344  0.00  0.00    +0.000 A 
ATOM     16  C   UNL     1       2.383   4.885  17.828  0.00  0.00    +0.000 A 
ATOM     17  C   UNL     1       3.027   5.837  18.621  0.00  0.00    +0.000 A 
ATOM     18  C   UNL     1       4.394   5.672  18.915  0.00  0.00    +0.000 A 
BRANCH  13  20
ATOM     19  C   UNL     1       7.354   4.759  17.704  0.00  0.00    +0.000 C 
ATOM     20  O   UNL     1       6.414   4.271  18.649  0.00  0.00    +0.000 OA
ENDBRANCH  13  20
ENDBRANCH   9  17
ENDBRANCH   1  10
BRANCH   4  21
ATOM     21  S   UNL     1      -1.201  12.253  21.384  0.00  0.00    +0.000 S 
BRANCH  21  22
ATOM     22  C   UNL     1      -2.064  13.063  20.011  0.00  0.00    +0.000 C 
BRANCH  22  23
ATOM     23  C   UNL     1      -3.249  12.272  19.461  0.00  0.00    +0.000 C 
ATOM     24  O   UNL     1      -3.125  11.433  18.565  0.00  0.00    +0.000 OA
ATOM     25  N   UNL     1      -4.493  12.528  20.044  0.00  0.00    +0.000 N 
ATOM     26  C   UNL     1      -4.783  13.586  21.023  0.00  0.00    +0.000 C 
ATOM     27  C   UNL     1      -5.855  13.137  22.028  0.00  0.00    +0.000 C 
ATOM     28  O   UNL     1      -7.029  12.648  21.364  0.00  0.00    +0.000 OA
ATOM     29  C   UNL     1      -6.703  11.530  20.523  0.00  0.00    +0.000 C 
ATOM     30  C   UNL     1      -5.693  11.935  19.445  0.00  0.00    +0.000 C 
ENDBRANCH  22  23
ENDBRANCH  21  22
ENDBRANCH   4  21
TORSDOF 6
ENDMDL
MODEL 4
REMARK VINA RESULT:      -7.5      2.284      2.837
REMARK  Name = 
REMARK  8 active torsions:
REMARK  status: ('A' for Active; 'I' for Inactive)
REMARK    1  A    between atoms: C_1  and  O_2
REMARK    2  A    between atoms: O_2  and  C_3
REMARK    3  A    between atoms: C_7  and  N_8
REMARK    4  A    between atoms: C_9  and  C_11
REMARK    5  A    between atoms: C_14  and  S_15
REMARK    6  A    between atoms: S_15  and  C_16
REMARK    7  A    between atoms: C_16  and  C_17
REMARK    8  A    between atoms: N_25  and  C_26
REMARK                            x       y       z     vdW  Elec       q    Type
REMARK                         _______ _______ _______ _____ _____    ______ ____
ROOT
ATOM      1  C   UNL     1       1.218   9.637  19.576  0.00  0.00    +0.000 A 
ATOM      2  C   UNL     1       0.913  10.897  19.235  0.00  0.00    +0.000 A 
ATOM      3  N   UNL     1       0.321  11.827  20.057  0.00  0.00    +0.000 NA
ATOM      4  C   UNL     1      -0.087  11.420  21.213  0.00  0.00    +0.000 A 
ATOM      5  N   UNL     1       0.111  10.134  21.687  0.00  0.00    +0.000 N 
ATOM      6  C   UNL     1      -0.355   9.629  22.972  0.00  0.00    +0.000 C 
ATOM      7  C   UNL     1       0.878   9.242  20.956  0.00  0.00    +0.000 A 
ATOM      8  O   UNL     1       1.268   8.160  21.396  0.00  0.00    +0.000 OA
ENDROOT
BRANCH   1  10
ATOM      9  N   UNL     1       2.310   7.527  19.066  0.00  0.00    +0.000 N 
ATOM     10  C   UNL     1       1.827   8.724  18.562  0.00  0.00    +0.000 C 
ATOM     11  O   UNL     1       1.832   9.052  17.377  0.00  0.00    +0.000 OA
ATOM     12  H   UNL     1       2.204   7.380  20.073  0.00  0.00    +0.000 HD
BRANCH   9  17
ATOM     13  C   UNL     1       2.701   4.157  17.570  0.00  0.00    +0.000 A 
ATOM     14  C   UNL     1       3.933   4.285  16.926  0.00  0.00    +0.000 A 
ATOM     15  C   UNL     1       4.645   5.478  16.994  0.00  0.00    +0.000 A 
ATOM     16  C   UNL     1       4.125   6.562  17.701  0.00  0.00    +0.000 A 
ATOM     17  C   UNL     1       2.891   6.461  18.347  0.00  0.00    +0.000 A 
ATOM     18  C   UNL     1       2.185   5.244  18.285  0.00  0.00    +0.000 A 
BRANCH  13  20
ATOM     19  C   UNL     1       1.403   2.402  18.528  0.00  0.00    +0.000 C 
ATOM     20  O   UNL     1       2.123   2.927  17.423  0.00  0.00    +0.000 OA
ENDBRANCH  13  20
ENDBRANCH   9  17
ENDBRANCH   1  10
BRANCH   4  21
ATOM     21  S   UNL     1      -0.846  12.574  22.293  0.00  0.00    +0.000 S 
BRANCH  21  22
ATOM     22  C   UNL     1      -2.553  12.612  21.685  0.00  0.00    +0.000 C 
BRANCH  22  23
ATOM     23  C   UNL     1      -3.612  12.522  22.782  0.00  0.00    +0.000 C 
ATOM     24  O   UNL     1      -3.438  11.871  23.816  0.00  0.00    +0.000 OA
ATOM     25  N   UNL     1      -4.792  13.239  22.569  0.00  0.00    +0.000 N 
ATOM     26  C   UNL     1      -5.161  13.940  21.330  0.00  0.00    +0.000 C 
ATOM     27  C   UNL     1      -5.973  15.210  21.629  0.00  0.00    +0.000 C 
ATOM     28  O   UNL     1      -7.098  14.930  22.473  0.00  0.00    +0.000 OA
ATOM     29  C   UNL     1      -6.664  14.368  23.721  0.00  0.00    +0.000 C 
ATOM     30  C   UNL     1      -5.913  13.053  23.495  0.00  0.00    +0.000 C 
ENDBRANCH  22  23
ENDBRANCH  21  22
ENDBRANCH   4  21
TORSDOF 6
ENDMDL
MODEL 5
REMARK VINA RESULT:      -7.5      3.598     10.191
REMARK  Name = 
REMARK  8 active torsions:
REMARK  status: ('A' for Active; 'I' for Inactive)
REMARK    1  A    between atoms: C_1  and  O_2
REMARK    2  A    between atoms: O_2  and  C_3
REMARK    3  A    between atoms: C_7  and  N_8
REMARK    4  A    between atoms: C_9  and  C_11
REMARK    5  A    between atoms: C_14  and  S_15
REMARK    6  A    between atoms: S_15  and  C_16
REMARK    7  A    between atoms: C_16  and  C_17
REMARK    8  A    between atoms: N_25  and  C_26
REMARK                            x       y       z     vdW  Elec       q    Type
REMARK                         _______ _______ _______ _____ _____    ______ ____
ROOT
ATOM      1  C   UNL     1       0.625   9.717  21.361  0.00  0.00    +0.000 A 
ATOM      2  C   UNL     1       1.055   8.457  21.517  0.00  0.00    +0.000 A 
ATOM      3  N   UNL     1       1.755   7.730  20.583  0.00  0.00    +0.000 NA
ATOM      4  C   UNL     1       1.906   8.258  19.413  0.00  0.00    +0.000 A 
ATOM      5  N   UNL     1       1.472   9.532  19.086  0.00  0.00    +0.000 N 
ATOM      6  C   UNL     1       1.598  10.153  17.774  0.00  0.00    +0.000 C 
ATOM      7  C   UNL     1       0.944  10.352  20.069  0.00  0.00    +0.000 A 
ATOM      8  O   UNL     1       0.725  11.554  19.908  0.00  0.00    +0.000 OA
ENDROOT
BRANCH   1  10
ATOM      9  N   UNL     1      -0.764  11.567  22.105  0.00  0.00    +0.000 N 
ATOM     10  C   UNL     1      -0.160  10.370  22.453  0.00  0.00    +0.000 C 
ATOM     11  O   UNL     1      -0.256   9.814  23.545  0.00  0.00    +0.000 OA
ATOM     12  H   UNL     1      -0.622  11.887  21.143  0.00  0.00    +0.000 HD
BRANCH   9  17
ATOM     13  C   UNL     1      -3.697  12.600  24.125  0.00  0.00    +0.000 A 
ATOM     14  C   UNL     1      -3.319  13.884  24.519  0.00  0.00    +0.000 A 
ATOM     15  C   UNL     1      -2.101  14.420  24.109  0.00  0.00    +0.000 A 
ATOM     16  C   UNL     1      -1.244  13.668  23.306  0.00  0.00    +0.000 A 
ATOM     17  C   UNL     1      -1.597  12.377  22.906  0.00  0.00    +0.000 A 
ATOM     18  C   UNL     1      -2.838  11.850  23.313  0.00  0.00    +0.000 A 
BRANCH  13  20
ATOM     19  C   UNL     1      -6.068  12.837  24.040  0.00  0.00    +0.000 C 
ATOM     20  O   UNL     1      -4.921  12.212  24.595  0.00  0.00    +0.000 OA
ENDBRANCH  13  20
ENDBRANCH   9  17
ENDBRANCH   1  10
BRANCH   4  21
ATOM     21  S   UNL     1       2.793   7.364  18.193  0.00  0.00    +0.000 S 
BRANCH  21  22
ATOM     22  C   UNL     1       1.854   5.818  18.083  0.00  0.00    +0.000 C 
BRANCH  22  23
ATOM     23  C   UNL     1       2.711   4.557  18.168  0.00  0.00    +0.000 C 
ATOM     24  O   UNL     1       3.466   4.208  17.257  0.00  0.00    +0.000 OA
ATOM     25  N   UNL     1       2.617   3.819  19.352  0.00  0.00    +0.000 N 
ATOM     26  C   UNL     1       1.666   4.065  20.446  0.00  0.00    +0.000 C 
ATOM     27  C   UNL     1       2.287   3.728  21.810  0.00  0.00    +0.000 C 
ATOM     28  O   UNL     1       2.835   2.402  21.828  0.00  0.00    +0.000 OA
ATOM     29  C   UNL     1       3.851   2.264  20.823  0.00  0.00    +0.000 C 
ATOM     30  C   UNL     1       3.275   2.511  19.426  0.00  0.00    +0.000 C 
ENDBRANCH  22  23
ENDBRANCH  21  22
ENDBRANCH   4  21
TORSDOF 6
ENDMDL
MODEL 6
REMARK VINA RESULT:      -7.5      1.613      2.398
REMARK  Name = 
REMARK  8 active torsions:
REMARK  status: ('A' for Active; 'I' for Inactive)
REMARK    1  A    between atoms: C_1  and  O_2
REMARK    2  A    between atoms: O_2  and  C_3
REMARK    3  A    between atoms: C_7  and  N_8
REMARK    4  A    between atoms: C_9  and  C_11
REMARK    5  A    between atoms: C_14  and  S_15
REMARK    6  A    between atoms: S_15  and  C_16
REMARK    7  A    between atoms: C_16  and  C_17
REMARK    8  A    between atoms: N_25  and  C_26
REMARK                            x       y       z     vdW  Elec       q    Type
REMARK                         _______ _______ _______ _____ _____    ______ ____
ROOT
ATOM      1  C   UNL     1       1.120   9.558  19.310  0.00  0.00    +0.000 A 
ATOM      2  C   UNL     1       0.519  10.663  18.849  0.00  0.00    +0.000 A 
ATOM      3  N   UNL     1      -0.289  11.499  19.584  0.00  0.00    +0.000 NA
ATOM      4  C   UNL     1      -0.593  11.125  20.783  0.00  0.00    +0.000 A 
ATOM      5  N   UNL     1      -0.089   9.982  21.380  0.00  0.00    +0.000 N 
ATOM      6  C   UNL     1      -0.426   9.511  22.717  0.00  0.00    +0.000 C 
ATOM      7  C   UNL     1       0.879   9.235  20.729  0.00  0.00    +0.000 A 
ATOM      8  O   UNL     1       1.519   8.331  21.268  0.00  0.00    +0.000 OA
ENDROOT
BRANCH   1  10
ATOM      9  N   UNL     1       2.239   7.451  18.845  0.00  0.00    +0.000 N 
ATOM     10  C   UNL     1       1.942   8.722  18.382  0.00  0.00    +0.000 C 
ATOM     11  O   UNL     1       2.265   9.175  17.286  0.00  0.00    +0.000 OA
ATOM     12  H   UNL     1       1.870   7.203  19.767  0.00  0.00    +0.000 HD
BRANCH   9  17
ATOM     13  C   UNL     1       3.090   4.076  17.566  0.00  0.00    +0.000 A 
ATOM     14  C   UNL     1       4.265   4.340  16.860  0.00  0.00    +0.000 A 
ATOM     15  C   UNL     1       4.787   5.629  16.813  0.00  0.00    +0.000 A 
ATOM     16  C   UNL     1       4.132   6.671  17.468  0.00  0.00    +0.000 A 
ATOM     17  C   UNL     1       2.951   6.433  18.175  0.00  0.00    +0.000 A 
ATOM     18  C   UNL     1       2.438   5.123  18.229  0.00  0.00    +0.000 A 
BRANCH  13  20
ATOM     19  C   UNL     1       1.646   2.368  18.390  0.00  0.00    +0.000 C 
ATOM     20  O   UNL     1       2.703   2.766  17.531  0.00  0.00    +0.000 OA
ENDBRANCH  13  20
ENDBRANCH   9  17
ENDBRANCH   1  10
BRANCH   4  21
ATOM     21  S   UNL     1      -1.620  12.162  21.754  0.00  0.00    +0.000 S 
BRANCH  21  22
ATOM     22  C   UNL     1      -2.455  13.169  20.500  0.00  0.00    +0.000 C 
BRANCH  22  23
ATOM     23  C   UNL     1      -3.695  12.514  19.895  0.00  0.00    +0.000 C 
ATOM     24  O   UNL     1      -3.652  11.850  18.855  0.00  0.00    +0.000 OA
ATOM     25  N   UNL     1      -4.893  12.683  20.595  0.00  0.00    +0.000 N 
ATOM     26  C   UNL     1      -5.090  13.552  21.765  0.00  0.00    +0.000 C 
ATOM     27  C   UNL     1      -6.113  12.948  22.740  0.00  0.00    +0.000 C 
ATOM     28  O   UNL     1      -7.339  12.611  22.077  0.00  0.00    +0.000 OA
ATOM     29  C   UNL     1      -7.099  11.659  21.029  0.00  0.00    +0.000 C 
ATOM     30  C   UNL     1      -6.145  12.233  19.978  0.00  0.00    +0.000 C 
ENDBRANCH  22  23
ENDBRANCH  21  22
ENDBRANCH   4  21
TORSDOF 6
ENDMDL
MODEL 7
REMARK VINA RESULT:      -7.4      2.070      2.302
REMARK  Name = 
REMARK  8 active torsions:
REMARK  status: ('A' for Active; 'I' for Inactive)
REMARK    1  A    between atoms: C_1  and  O_2
REMARK    2  A    between atoms: O_2  and  C_3
REMARK    3  A    between atoms: C_7  and  N_8
REMARK    4  A    between atoms: C_9  and  C_11
REMARK    5  A    between atoms: C_14  and  S_15
REMARK    6  A    between atoms: S_15  and  C_16
REMARK    7  A    between atoms: C_16  and  C_17
REMARK    8  A    between atoms: N_25  and  C_26
REMARK                            x       y       z     vdW  Elec       q    Type
REMARK                         _______ _______ _______ _____ _____    ______ ____
ROOT
ATOM      1  C   UNL     1       1.320   9.483  19.490  0.00  0.00    +0.000 A 
ATOM      2  C   UNL     1       1.096  10.758  19.144  0.00  0.00    +0.000 A 
ATOM      3  N   UNL     1       0.520  11.715  19.948  0.00  0.00    +0.000 NA
ATOM      4  C   UNL     1       0.044  11.325  21.084  0.00  0.00    +0.000 A 
ATOM      5  N   UNL     1       0.155  10.028  21.557  0.00  0.00    +0.000 N 
ATOM      6  C   UNL     1      -0.391   9.542  22.817  0.00  0.00    +0.000 C 
ATOM      7  C   UNL     1       0.903   9.100  20.852  0.00  0.00    +0.000 A 
ATOM      8  O   UNL     1       1.217   7.996  21.300  0.00  0.00    +0.000 OA
ENDROOT
BRANCH   1  10
ATOM      9  N   UNL     1       2.338   7.328  19.014  0.00  0.00    +0.000 N 
ATOM     10  C   UNL     1       1.921   8.543  18.495  0.00  0.00    +0.000 C 
ATOM     11  O   UNL     1       1.978   8.869  17.312  0.00  0.00    +0.000 OA
ATOM     12  H   UNL     1       2.193   7.187  20.018  0.00  0.00    +0.000 HD
BRANCH   9  17
ATOM     13  C   UNL     1       4.832   5.300  17.167  0.00  0.00    +0.000 A 
ATOM     14  C   UNL     1       4.113   4.125  16.939  0.00  0.00    +0.000 A 
ATOM     15  C   UNL     1       2.800   4.002  17.382  0.00  0.00    +0.000 A 
ATOM     16  C   UNL     1       2.194   5.054  18.068  0.00  0.00    +0.000 A 
ATOM     17  C   UNL     1       2.895   6.236  18.314  0.00  0.00    +0.000 A 
ATOM     18  C   UNL     1       4.219   6.357  17.849  0.00  0.00    +0.000 A 
BRANCH  13  20
ATOM     19  C   UNL     1       7.127   4.744  17.494  0.00  0.00    +0.000 C 
ATOM     20  O   UNL     1       6.104   5.279  16.667  0.00  0.00    +0.000 OA
ENDBRANCH  13  20
ENDBRANCH   9  17
ENDBRANCH   1  10
BRANCH   4  21
ATOM     21  S   UNL     1      -0.698  12.512  22.139  0.00  0.00    +0.000 S 
BRANCH  21  22
ATOM     22  C   UNL     1      -2.419  12.518  21.570  0.00  0.00    +0.000 C 
BRANCH  22  23
ATOM     23  C   UNL     1      -3.451  12.487  22.695  0.00  0.00    +0.000 C 
ATOM     24  O   UNL     1      -3.283  11.833  23.728  0.00  0.00    +0.000 OA
ATOM     25  N   UNL     1      -4.598  13.262  22.509  0.00  0.00    +0.000 N 
ATOM     26  C   UNL     1      -4.964  13.976  21.276  0.00  0.00    +0.000 C 
ATOM     27  C   UNL     1      -5.702  15.286  21.590  0.00  0.00    +0.000 C 
ATOM     28  O   UNL     1      -6.817  15.068  22.465  0.00  0.00    +0.000 OA
ATOM     29  C   UNL     1      -6.379  14.490  23.704  0.00  0.00    +0.000 C 
ATOM     30  C   UNL     1      -5.703  13.137  23.466  0.00  0.00    +0.000 C 
ENDBRANCH  22  23
ENDBRANCH  21  22
ENDBRANCH   4  21
TORSDOF 6
ENDMDL
MODEL 8
REMARK VINA RESULT:      -7.3      1.015      1.064
REMARK  Name = 
REMARK  8 active torsions:
REMARK  status: ('A' for Active; 'I' for Inactive)
REMARK    1  A    between atoms: C_1  and  O_2
REMARK    2  A    between atoms: O_2  and  C_3
REMARK    3  A    between atoms: C_7  and  N_8
REMARK    4  A    between atoms: C_9  and  C_11
REMARK    5  A    between atoms: C_14  and  S_15
REMARK    6  A    between atoms: S_15  and  C_16
REMARK    7  A    between atoms: C_16  and  C_17
REMARK    8  A    between atoms: N_25  and  C_26
REMARK                            x       y       z     vdW  Elec       q    Type
REMARK                         _______ _______ _______ _____ _____    ______ ____
ROOT
ATOM      1  C   UNL     1       1.221   9.220  19.355  0.00  0.00    +0.000 A 
ATOM      2  C   UNL     1       0.645  10.316  18.843  0.00  0.00    +0.000 A 
ATOM      3  N   UNL     1      -0.110  11.226  19.548  0.00  0.00    +0.000 NA
ATOM      4  C   UNL     1      -0.391  10.937  20.775  0.00  0.00    +0.000 A 
ATOM      5  N   UNL     1       0.091   9.814  21.428  0.00  0.00    +0.000 N 
ATOM      6  C   UNL     1      -0.223   9.439  22.800  0.00  0.00    +0.000 C 
ATOM      7  C   UNL     1       1.010   8.993  20.797  0.00  0.00    +0.000 A 
ATOM      8  O   UNL     1       1.634   8.101  21.373  0.00  0.00    +0.000 OA
ENDROOT
BRANCH   1  10
ATOM      9  N   UNL     1       2.008   6.974  18.861  0.00  0.00    +0.000 N 
ATOM     10  C   UNL     1       1.983   8.299  18.457  0.00  0.00    +0.000 C 
ATOM     11  O   UNL     1       2.495   8.741  17.431  0.00  0.00    +0.000 OA
ATOM     12  H   UNL     1       1.505   6.751  19.724  0.00  0.00    +0.000 HD
BRANCH   9  17
ATOM     13  C   UNL     1       4.586   4.965  17.111  0.00  0.00    +0.000 A 
ATOM     14  C   UNL     1       3.900   3.769  16.895  0.00  0.00    +0.000 A 
ATOM     15  C   UNL     1       2.581   3.625  17.313  0.00  0.00    +0.000 A 
ATOM     16  C   UNL     1       1.937   4.677  17.963  0.00  0.00    +0.000 A 
ATOM     17  C   UNL     1       2.605   5.881  18.197  0.00  0.00    +0.000 A 
ATOM     18  C   UNL     1       3.935   6.023  17.756  0.00  0.00    +0.000 A 
BRANCH  13  20
ATOM     19  C   UNL     1       6.074   5.355  15.289  0.00  0.00    +0.000 C 
ATOM     20  O   UNL     1       5.869   4.963  16.638  0.00  0.00    +0.000 OA
ENDBRANCH  13  20
ENDBRANCH   9  17
ENDBRANCH   1  10
BRANCH   4  21
ATOM     21  S   UNL     1      -1.350  12.069  21.709  0.00  0.00    +0.000 S 
BRANCH  21  22
ATOM     22  C   UNL     1      -2.101  13.099  20.420  0.00  0.00    +0.000 C 
BRANCH  22  23
ATOM     23  C   UNL     1      -3.627  13.073  20.408  0.00  0.00    +0.000 C 
ATOM     24  O   UNL     1      -4.306  13.677  21.243  0.00  0.00    +0.000 OA
ATOM     25  N   UNL     1      -4.229  12.344  19.378  0.00  0.00    +0.000 N 
ATOM     26  C   UNL     1      -3.530  11.487  18.409  0.00  0.00    +0.000 C 
ATOM     27  C   UNL     1      -4.222  11.519  17.037  0.00  0.00    +0.000 C 
ATOM     28  O   UNL     1      -5.621  11.222  17.145  0.00  0.00    +0.000 OA
ATOM     29  C   UNL     1      -6.273  12.172  18.001  0.00  0.00    +0.000 C 
ATOM     30  C   UNL     1      -5.680  12.133  19.412  0.00  0.00    +0.000 C 
ENDBRANCH  22  23
ENDBRANCH  21  22
ENDBRANCH   4  21
TORSDOF 6
ENDMDL
MODEL 9
REMARK VINA RESULT:      -7.3      3.159      4.624
REMARK  Name = 
REMARK  8 active torsions:
REMARK  status: ('A' for Active; 'I' for Inactive)
REMARK    1  A    between atoms: C_1  and  O_2
REMARK    2  A    between atoms: O_2  and  C_3
REMARK    3  A    between atoms: C_7  and  N_8
REMARK    4  A    between atoms: C_9  and  C_11
REMARK    5  A    between atoms: C_14  and  S_15
REMARK    6  A    between atoms: S_15  and  C_16
REMARK    7  A    between atoms: C_16  and  C_17
REMARK    8  A    between atoms: N_25  and  C_26
REMARK                            x       y       z     vdW  Elec       q    Type
REMARK                         _______ _______ _______ _____ _____    ______ ____
ROOT
ATOM      1  C   UNL     1       1.275   9.207  19.377  0.00  0.00    +0.000 A 
ATOM      2  C   UNL     1       0.785  10.305  18.786  0.00  0.00    +0.000 A 
ATOM      3  N   UNL     1       0.012  11.265  19.398  0.00  0.00    +0.000 NA
ATOM      4  C   UNL     1      -0.377  11.030  20.607  0.00  0.00    +0.000 A 
ATOM      5  N   UNL     1       0.007   9.913  21.331  0.00  0.00    +0.000 N 
ATOM      6  C   UNL     1      -0.429   9.598  22.686  0.00  0.00    +0.000 C 
ATOM      7  C   UNL     1       0.942   9.038  20.804  0.00  0.00    +0.000 A 
ATOM      8  O   UNL     1       1.483   8.145  21.457  0.00  0.00    +0.000 OA
ENDROOT
BRANCH   1  10
ATOM      9  N   UNL     1       2.311   7.016  19.198  0.00  0.00    +0.000 N 
ATOM     10  C   UNL     1       2.071   8.229  18.574  0.00  0.00    +0.000 C 
ATOM     11  O   UNL     1       2.422   8.526  17.434  0.00  0.00    +0.000 OA
ATOM     12  H   UNL     1       1.924   6.902  20.139  0.00  0.00    +0.000 HD
BRANCH   9  17
ATOM     13  C   UNL     1       5.068   4.631  18.520  0.00  0.00    +0.000 A 
ATOM     14  C   UNL     1       4.424   3.692  17.711  0.00  0.00    +0.000 A 
ATOM     15  C   UNL     1       3.083   3.850  17.376  0.00  0.00    +0.000 A 
ATOM     16  C   UNL     1       2.368   4.946  17.856  0.00  0.00    +0.000 A 
ATOM     17  C   UNL     1       2.988   5.894  18.673  0.00  0.00    +0.000 A 
ATOM     18  C   UNL     1       4.350   5.735  18.994  0.00  0.00    +0.000 A 
BRANCH  13  20
ATOM     19  C   UNL     1       7.322   4.687  17.745  0.00  0.00    +0.000 C 
ATOM     20  O   UNL     1       6.384   4.350  18.756  0.00  0.00    +0.000 OA
ENDBRANCH  13  20
ENDBRANCH   9  17
ENDBRANCH   1  10
BRANCH   4  21
ATOM     21  S   UNL     1      -1.362  12.227  21.424  0.00  0.00    +0.000 S 
BRANCH  21  22
ATOM     22  C   UNL     1      -0.159  13.528  21.805  0.00  0.00    +0.000 C 
BRANCH  22  23
ATOM     23  C   UNL     1       0.130  14.475  20.643  0.00  0.00    +0.000 C 
ATOM     24  O   UNL     1      -0.751  15.151  20.107  0.00  0.00    +0.000 OA
ATOM     25  N   UNL     1       1.461  14.561  20.227  0.00  0.00    +0.000 N 
ATOM     26  C   UNL     1       2.568  13.717  20.702  0.00  0.00    +0.000 C 
ATOM     27  C   UNL     1       3.888  14.503  20.747  0.00  0.00    +0.000 C 
ATOM     28  O   UNL     1       4.165  15.141  19.493  0.00  0.00    +0.000 OA
ATOM     29  C   UNL     1       3.111  16.051  19.147  0.00  0.00    +0.000 C 
ATOM     30  C   UNL     1       1.777  15.313  19.008  0.00  0.00    +0.000 C 
ENDBRANCH  22  23
ENDBRANCH  21  22
ENDBRANCH   4  21
TORSDOF 6
ENDMDL
