MODEL 1
REMARK VINA RESULT:      -7.9      0.000      0.000
REMARK  Name = 
REMARK  7 active torsions:
REMARK  status: ('A' for Active; 'I' for Inactive)
REMARK    1  A    between atoms: C_1  and  O_2
REMARK    2  A    between atoms: O_2  and  C_3
REMARK    3  A    between atoms: C_6  and  N_7
REMARK    4  A    between atoms: N_7  and  C_8
REMARK    5  A    between atoms: N_7  and  C_9
REMARK    6  A    between atoms: C_20  and  O_21
REMARK    7  A    between atoms: O_21  and  C_22
REMARK                            x       y       z     vdW  Elec       q    Type
REMARK                         _______ _______ _______ _____ _____    ______ ____
ROOT
ATOM      1  N   UNL     1       5.009   5.600  18.388  0.00  0.00    +0.000 N 
ATOM      2  C   UNL     1       5.598   4.566  19.265  0.00  0.00    +0.000 C 
ENDROOT
BRANCH   1   3
ATOM      3  C   UNL     1       3.570   5.594  18.584  0.00  0.00    +0.000 A 
ATOM      4  N   UNL     1       3.103   6.799  18.918  0.00  0.00    +0.000 NA
ATOM      5  C   UNL     1       2.170   6.812  19.850  0.00  0.00    +0.000 A 
ATOM      6 CL   UNL     1       1.820   8.353  20.483  0.00  0.00    +0.000 Cl
ATOM      7  N   UNL     1       1.563   5.768  20.401  0.00  0.00    +0.000 NA
ATOM      8  C   UNL     1       1.792   4.599  19.830  0.00  0.00    +0.000 A 
ATOM      9  C   UNL     1       0.973   3.591  20.292  0.00  0.00    +0.000 A 
ATOM     10  C   UNL     1       0.854   2.368  19.642  0.00  0.00    +0.000 A 
ATOM     11  C   UNL     1       1.612   2.160  18.506  0.00  0.00    +0.000 A 
ATOM     12  C   UNL     1       2.579   3.132  18.109  0.00  0.00    +0.000 A 
ATOM     13  C   UNL     1       2.739   4.409  18.788  0.00  0.00    +0.000 A 
ENDBRANCH   1   3
BRANCH   1  17
ATOM     14  C   UNL     1       6.534   4.512  14.418  0.00  0.00    +0.000 A 
ATOM     15  C   UNL     1       5.189   4.394  14.740  0.00  0.00    +0.000 A 
ATOM     16  C   UNL     1       4.704   4.786  16.002  0.00  0.00    +0.000 A 
ATOM     17  C   UNL     1       5.545   5.318  17.013  0.00  0.00    +0.000 A 
ATOM     18  C   UNL     1       6.893   5.558  16.623  0.00  0.00    +0.000 A 
ATOM     19  C   UNL     1       7.374   5.098  15.357  0.00  0.00    +0.000 A 
BRANCH  14  21
ATOM     20  C   UNL     1       5.905   3.379  12.387  0.00  0.00    +0.000 C 
ATOM     21  O   UNL     1       6.882   4.049  13.178  0.00  0.00    +0.000 OA
ENDBRANCH  14  21
BRANCH  18  22
ATOM     22  O   UNL     1       7.735   6.240  17.480  0.00  0.00    +0.000 OA
ATOM     23  C   UNL     1       7.596   7.667  17.437  0.00  0.00    +0.000 C 
ENDBRANCH  18  22
ENDBRANCH   1  17
TORSDOF 4
ENDMDL
MODEL 2
REMARK VINA RESULT:      -7.5      1.833      2.896
REMARK  Name = 
REMARK  7 active torsions:
REMARK  status: ('A' for Active; 'I' for Inactive)
REMARK    1  A    between atoms: C_1  and  O_2
REMARK    2  A    between atoms: O_2  and  C_3
REMARK    3  A    between atoms: C_6  and  N_7
REMARK    4  A    between atoms: N_7  and  C_8
REMARK    5  A    between atoms: N_7  and  C_9
REMARK    6  A    between atoms: C_20  and  O_21
REMARK    7  A    between atoms: O_21  and  C_22
REMARK                            x       y       z     vdW  Elec       q    Type
REMARK                         _______ _______ _______ _____ _____    ______ ____
ROOT
ATOM      1  N   UNL     1       4.702   3.600  18.002  0.00  0.00    +0.000 N 
ATOM      2  C   UNL     1       3.609   2.791  17.422  0.00  0.00    +0.000 C 
ENDROOT
BRANCH   1   3
ATOM      3  C   UNL     1       4.116   4.559  18.921  0.00  0.00    +0.000 A 
ATOM      4  N   UNL     1       3.781   3.999  20.086  0.00  0.00    +0.000 NA
ATOM      5  C   UNL     1       2.633   4.394  20.600  0.00  0.00    +0.000 A 
ATOM      6 CL   UNL     1       2.077   3.450  21.903  0.00  0.00    +0.000 Cl
ATOM      7  N   UNL     1       1.840   5.362  20.159  0.00  0.00    +0.000 NA
ATOM      8  C   UNL     1       2.338   6.128  19.205  0.00  0.00    +0.000 A 
ATOM      9  C   UNL     1       1.575   7.245  18.940  0.00  0.00    +0.000 A 
ATOM     10  C   UNL     1       2.047   8.311  18.185  0.00  0.00    +0.000 A 
ATOM     11  C   UNL     1       3.323   8.224  17.664  0.00  0.00    +0.000 A 
ATOM     12  C   UNL     1       4.063   7.009  17.797  0.00  0.00    +0.000 A 
ATOM     13  C   UNL     1       3.579   5.870  18.562  0.00  0.00    +0.000 A 
ENDBRANCH   1   3
BRANCH   1  17
ATOM     14  C   UNL     1       6.974   4.871  14.467  0.00  0.00    +0.000 A 
ATOM     15  C   UNL     1       5.616   4.594  14.399  0.00  0.00    +0.000 A 
ATOM     16  C   UNL     1       4.889   4.228  15.547  0.00  0.00    +0.000 A 
ATOM     17  C   UNL     1       5.487   4.119  16.829  0.00  0.00    +0.000 A 
ATOM     18  C   UNL     1       6.845   4.536  16.908  0.00  0.00    +0.000 A 
ATOM     19  C   UNL     1       7.578   4.848  15.719  0.00  0.00    +0.000 A 
BRANCH  14  21
ATOM     20  C   UNL     1       7.263   4.374  12.127  0.00  0.00    +0.000 C 
ATOM     21  O   UNL     1       7.573   5.165  13.272  0.00  0.00    +0.000 OA
ENDBRANCH  14  21
BRANCH  18  22
ATOM     22  O   UNL     1       7.453   4.638  18.144  0.00  0.00    +0.000 OA
ATOM     23  C   UNL     1       7.652   5.984  18.598  0.00  0.00    +0.000 C 
ENDBRANCH  18  22
ENDBRANCH   1  17
TORSDOF 4
ENDMDL
MODEL 3
REMARK VINA RESULT:      -7.5      3.431      6.737
REMARK  Name = 
REMARK  7 active torsions:
REMARK  status: ('A' for Active; 'I' for Inactive)
REMARK    1  A    between atoms: C_1  and  O_2
REMARK    2  A    between atoms: O_2  and  C_3
REMARK    3  A    between atoms: C_6  and  N_7
REMARK    4  A    between atoms: N_7  and  C_8
REMARK    5  A    between atoms: N_7  and  C_9
REMARK    6  A    between atoms: C_20  and  O_21
REMARK    7  A    between atoms: O_21  and  C_22
REMARK                            x       y       z     vdW  Elec       q    Type
REMARK                         _______ _______ _______ _____ _____    ______ ____
ROOT
ATOM      1  N   UNL     1       2.633   5.784  17.813  0.00  0.00    +0.000 N 
ATOM      2  C   UNL     1       1.604   4.727  17.711  0.00  0.00    +0.000 C 
ENDROOT
BRANCH   1   3
ATOM      3  C   UNL     1       3.935   5.143  17.878  0.00  0.00    +0.000 A 
ATOM      4  N   UNL     1       3.849   3.871  18.275  0.00  0.00    +0.000 NA
ATOM      5  C   UNL     1       4.782   3.471  19.117  0.00  0.00    +0.000 A 
ATOM      6 CL   UNL     1       4.478   1.965  19.850  0.00  0.00    +0.000 Cl
ATOM      7  N   UNL     1       5.853   4.145  19.515  0.00  0.00    +0.000 NA
ATOM      8  C   UNL     1       6.105   5.268  18.866  0.00  0.00    +0.000 A 
ATOM      9  C   UNL     1       7.338   5.810  19.160  0.00  0.00    +0.000 A 
ATOM     10  C   UNL     1       7.912   6.819  18.397  0.00  0.00    +0.000 A 
ATOM     11  C   UNL     1       7.198   7.305  17.319  0.00  0.00    +0.000 A 
ATOM     12  C   UNL     1       5.857   6.864  17.098  0.00  0.00    +0.000 A 
ATOM     13  C   UNL     1       5.226   5.827  17.900  0.00  0.00    +0.000 A 
ENDBRANCH   1   3
BRANCH   1  17
ATOM     14  C   UNL     1       1.147   8.202  21.162  0.00  0.00    +0.000 A 
ATOM     15  C   UNL     1       1.420   6.849  21.306  0.00  0.00    +0.000 A 
ATOM     16  C   UNL     1       1.936   6.092  20.237  0.00  0.00    +0.000 A 
ATOM     17  C   UNL     1       2.206   6.654  18.962  0.00  0.00    +0.000 A 
ATOM     18  C   UNL     1       2.050   8.066  18.871  0.00  0.00    +0.000 A 
ATOM     19  C   UNL     1       1.469   8.802  19.951  0.00  0.00    +0.000 A 
BRANCH  14  21
ATOM     20  C   UNL     1      -0.209   9.968  22.083  0.00  0.00    +0.000 C 
ATOM     21  O   UNL     1       0.601   8.809  22.261  0.00  0.00    +0.000 OA
ENDBRANCH  14  21
BRANCH  18  22
ATOM     22  O   UNL     1       2.463   8.721  17.728  0.00  0.00    +0.000 OA
ATOM     23  C   UNL     1       2.175  10.126  17.712  0.00  0.00    +0.000 C 
ENDBRANCH  18  22
ENDBRANCH   1  17
TORSDOF 4
ENDMDL
MODEL 4
REMARK VINA RESULT:      -7.1      3.554      6.698
REMARK  Name = 
REMARK  7 active torsions:
REMARK  status: ('A' for Active; 'I' for Inactive)
REMARK    1  A    between atoms: C_1  and  O_2
REMARK    2  A    between atoms: O_2  and  C_3
REMARK    3  A    between atoms: C_6  and  N_7
REMARK    4  A    between atoms: N_7  and  C_8
REMARK    5  A    between atoms: N_7  and  C_9
REMARK    6  A    between atoms: C_20  and  O_21
REMARK    7  A    between atoms: O_21  and  C_22
REMARK                            x       y       z     vdW  Elec       q    Type
REMARK                         _______ _______ _______ _____ _____    ______ ____
ROOT
ATOM      1  N   UNL     1       2.686   5.495  17.592  0.00  0.00    +0.000 N 
ATOM      2  C   UNL     1       1.694   4.398  17.575  0.00  0.00    +0.000 C 
ENDROOT
BRANCH   1   3
ATOM      3  C   UNL     1       4.004   4.910  17.770  0.00  0.00    +0.000 A 
ATOM      4  N   UNL     1       3.940   3.659  18.229  0.00  0.00    +0.000 NA
ATOM      5  C   UNL     1       4.833   3.341  19.146  0.00  0.00    +0.000 A 
ATOM      6 CL   UNL     1       4.539   1.864  19.940  0.00  0.00    +0.000 Cl
ATOM      7  N   UNL     1       5.851   4.077  19.572  0.00  0.00    +0.000 NA
ATOM      8  C   UNL     1       6.101   5.173  18.879  0.00  0.00    +0.000 A 
ATOM      9  C   UNL     1       7.293   5.779  19.217  0.00  0.00    +0.000 A 
ATOM     10  C   UNL     1       7.876   6.769  18.436  0.00  0.00    +0.000 A 
ATOM     11  C   UNL     1       7.214   7.169  17.292  0.00  0.00    +0.000 A 
ATOM     12  C   UNL     1       5.907   6.664  17.016  0.00  0.00    +0.000 A 
ATOM     13  C   UNL     1       5.265   5.646  17.833  0.00  0.00    +0.000 A 
ENDBRANCH   1   3
BRANCH   1  17
ATOM     14  C   UNL     1       1.489   8.455  20.604  0.00  0.00    +0.000 A 
ATOM     15  C   UNL     1       1.774   8.821  19.297  0.00  0.00    +0.000 A 
ATOM     16  C   UNL     1       2.116   7.858  18.328  0.00  0.00    +0.000 A 
ATOM     17  C   UNL     1       2.191   6.472  18.621  0.00  0.00    +0.000 A 
ATOM     18  C   UNL     1       1.765   6.099  19.927  0.00  0.00    +0.000 A 
ATOM     19  C   UNL     1       1.479   7.099  20.909  0.00  0.00    +0.000 A 
BRANCH  14  21
ATOM     20  C   UNL     1       0.311   9.285  22.535  0.00  0.00    +0.000 C 
ATOM     21  O   UNL     1       1.221   9.491  21.458  0.00  0.00    +0.000 OA
ENDBRANCH  14  21
BRANCH  18  22
ATOM     22  O   UNL     1       1.631   4.761  20.240  0.00  0.00    +0.000 OA
ATOM     23  C   UNL     1       2.288   4.366  21.452  0.00  0.00    +0.000 C 
ENDBRANCH  18  22
ENDBRANCH   1  17
TORSDOF 4
ENDMDL
MODEL 5
REMARK VINA RESULT:      -7.0      3.135      6.246
REMARK  Name = 
REMARK  7 active torsions:
REMARK  status: ('A' for Active; 'I' for Inactive)
REMARK    1  A    between atoms: C_1  and  O_2
REMARK    2  A    between atoms: O_2  and  C_3
REMARK    3  A    between atoms: C_6  and  N_7
REMARK    4  A    between atoms: N_7  and  C_8
REMARK    5  A    between atoms: N_7  and  C_9
REMARK    6  A    between atoms: C_20  and  O_21
REMARK    7  A    between atoms: O_21  and  C_22
REMARK                            x       y       z     vdW  Elec       q    Type
REMARK                         _______ _______ _______ _____ _____    ______ ____
ROOT
ATOM      1  N   UNL     1       4.280   3.934  18.251  0.00  0.00    +0.000 N 
ATOM      2  C   UNL     1       4.427   3.246  19.551  0.00  0.00    +0.000 C 
ENDROOT
BRANCH   1   3
ATOM      3  C   UNL     1       5.602   4.083  17.667  0.00  0.00    +0.000 A 
ATOM      4  N   UNL     1       6.501   4.501  18.560  0.00  0.00    +0.000 NA
ATOM      5  C   UNL     1       7.362   5.401  18.125  0.00  0.00    +0.000 A 
ATOM      6 CL   UNL     1       8.284   6.148  19.345  0.00  0.00    +0.000 Cl
ATOM      7  N   UNL     1       7.511   5.843  16.883  0.00  0.00    +0.000 NA
ATOM      8  C   UNL     1       6.845   5.184  15.951  0.00  0.00    +0.000 A 
ATOM      9  C   UNL     1       7.203   5.533  14.666  0.00  0.00    +0.000 A 
ATOM     10  C   UNL     1       6.837   4.780  13.558  0.00  0.00    +0.000 A 
ATOM     11  C   UNL     1       6.063   3.655  13.763  0.00  0.00    +0.000 A 
ATOM     12  C   UNL     1       5.554   3.372  15.067  0.00  0.00    +0.000 A 
ATOM     13  C   UNL     1       5.903   4.160  16.239  0.00  0.00    +0.000 A 
ENDBRANCH   1   3
BRANCH   1  17
ATOM     14  C   UNL     1       2.175   7.681  19.141  0.00  0.00    +0.000 A 
ATOM     15  C   UNL     1       2.967   7.542  18.010  0.00  0.00    +0.000 A 
ATOM     16  C   UNL     1       3.604   6.322  17.712  0.00  0.00    +0.000 A 
ATOM     17  C   UNL     1       3.480   5.173  18.536  0.00  0.00    +0.000 A 
ATOM     18  C   UNL     1       2.559   5.291  19.615  0.00  0.00    +0.000 A 
ATOM     19  C   UNL     1       1.970   6.556  19.931  0.00  0.00    +0.000 A 
BRANCH  14  21
ATOM     20  C   UNL     1       1.258   9.707  18.214  0.00  0.00    +0.000 C 
ATOM     21  O   UNL     1       1.655   8.932  19.342  0.00  0.00    +0.000 OA
ENDBRANCH  14  21
BRANCH  18  22
ATOM     22  O   UNL     1       2.238   4.172  20.358  0.00  0.00    +0.000 OA
ATOM     23  C   UNL     1       0.886   3.721  20.197  0.00  0.00    +0.000 C 
ENDBRANCH  18  22
ENDBRANCH   1  17
TORSDOF 4
ENDMDL
MODEL 6
REMARK VINA RESULT:      -6.9      2.687      6.220
REMARK  Name = 
REMARK  7 active torsions:
REMARK  status: ('A' for Active; 'I' for Inactive)
REMARK    1  A    between atoms: C_1  and  O_2
REMARK    2  A    between atoms: O_2  and  C_3
REMARK    3  A    between atoms: C_6  and  N_7
REMARK    4  A    between atoms: N_7  and  C_8
REMARK    5  A    between atoms: N_7  and  C_9
REMARK    6  A    between atoms: C_20  and  O_21
REMARK    7  A    between atoms: O_21  and  C_22
REMARK                            x       y       z     vdW  Elec       q    Type
REMARK                         _______ _______ _______ _____ _____    ______ ____
ROOT
ATOM      1  N   UNL     1       3.921   3.748  17.815  0.00  0.00    +0.000 N 
ATOM      2  C   UNL     1       3.776   2.498  18.591  0.00  0.00    +0.000 C 
ENDROOT
BRANCH   1   3
ATOM      3  C   UNL     1       5.313   3.876  17.420  0.00  0.00    +0.000 A 
ATOM      4  N   UNL     1       6.103   4.172  18.454  0.00  0.00    +0.000 NA
ATOM      5  C   UNL     1       7.049   5.058  18.214  0.00  0.00    +0.000 A 
ATOM      6 CL   UNL     1       7.833   5.654  19.602  0.00  0.00    +0.000 Cl
ATOM      7  N   UNL     1       7.378   5.593  17.044  0.00  0.00    +0.000 NA
ATOM      8  C   UNL     1       6.814   5.049  15.981  0.00  0.00    +0.000 A 
ATOM      9  C   UNL     1       7.352   5.484  14.788  0.00  0.00    +0.000 A 
ATOM     10  C   UNL     1       7.105   4.845  13.580  0.00  0.00    +0.000 A 
ATOM     11  C   UNL     1       6.264   3.749  13.584  0.00  0.00    +0.000 A 
ATOM     12  C   UNL     1       5.577   3.386  14.782  0.00  0.00    +0.000 A 
ATOM     13  C   UNL     1       5.802   4.055  16.054  0.00  0.00    +0.000 A 
ENDBRANCH   1   3
BRANCH   1  17
ATOM     14  C   UNL     1       1.924   6.769  20.295  0.00  0.00    +0.000 A 
ATOM     15  C   UNL     1       2.171   5.488  20.767  0.00  0.00    +0.000 A 
ATOM     16  C   UNL     1       2.849   4.540  19.978  0.00  0.00    +0.000 A 
ATOM     17  C   UNL     1       3.317   4.827  18.669  0.00  0.00    +0.000 A 
ATOM     18  C   UNL     1       3.177   6.181  18.254  0.00  0.00    +0.000 A 
ATOM     19  C   UNL     1       2.433   7.110  19.048  0.00  0.00    +0.000 A 
BRANCH  14  21
ATOM     20  C   UNL     1       1.014   8.944  20.792  0.00  0.00    +0.000 C 
ATOM     21  O   UNL     1       1.211   7.577  21.140  0.00  0.00    +0.000 OA
ENDBRANCH  14  21
BRANCH  18  22
ATOM     22  O   UNL     1       3.766   6.592  17.074  0.00  0.00    +0.000 OA
ATOM     23  C   UNL     1       4.615   7.742  17.204  0.00  0.00    +0.000 C 
ENDBRANCH  18  22
ENDBRANCH   1  17
TORSDOF 4
ENDMDL
MODEL 7
REMARK VINA RESULT:      -6.5      3.081      6.296
REMARK  Name = 
REMARK  7 active torsions:
REMARK  status: ('A' for Active; 'I' for Inactive)
REMARK    1  A    between atoms: C_1  and  O_2
REMARK    2  A    between atoms: O_2  and  C_3
REMARK    3  A    between atoms: C_6  and  N_7
REMARK    4  A    between atoms: N_7  and  C_8
REMARK    5  A    between atoms: N_7  and  C_9
REMARK    6  A    between atoms: C_20  and  O_21
REMARK    7  A    between atoms: O_21  and  C_22
REMARK                            x       y       z     vdW  Elec       q    Type
REMARK                         _______ _______ _______ _____ _____    ______ ____
ROOT
ATOM      1  N   UNL     1       4.258   3.973  17.940  0.00  0.00    +0.000 N 
ATOM      2  C   UNL     1       4.331   3.635  19.377  0.00  0.00    +0.000 C 
ENDROOT
BRANCH   1   3
ATOM      3  C   UNL     1       5.612   4.008  17.414  0.00  0.00    +0.000 A 
ATOM      4  N   UNL     1       6.513   4.272  18.363  0.00  0.00    +0.000 NA
ATOM      5  C   UNL     1       7.484   5.094  18.016  0.00  0.00    +0.000 A 
ATOM      6 CL   UNL     1       8.428   5.665  19.312  0.00  0.00    +0.000 Cl
ATOM      7  N   UNL     1       7.733   5.587  16.809  0.00  0.00    +0.000 NA
ATOM      8  C   UNL     1       7.039   5.060  15.815  0.00  0.00    +0.000 A 
ATOM      9  C   UNL     1       7.489   5.440  14.568  0.00  0.00    +0.000 A 
ATOM     10  C   UNL     1       7.091   4.796  13.403  0.00  0.00    +0.000 A 
ATOM     11  C   UNL     1       6.190   3.754  13.511  0.00  0.00    +0.000 A 
ATOM     12  C   UNL     1       5.598   3.455  14.776  0.00  0.00    +0.000 A 
ATOM     13  C   UNL     1       5.981   4.132  16.005  0.00  0.00    +0.000 A 
ENDBRANCH   1   3
BRANCH   1  17
ATOM     14  C   UNL     1       1.927   7.692  17.950  0.00  0.00    +0.000 A 
ATOM     15  C   UNL     1       3.309   7.700  17.832  0.00  0.00    +0.000 A 
ATOM     16  C   UNL     1       4.043   6.500  17.787  0.00  0.00    +0.000 A 
ATOM     17  C   UNL     1       3.428   5.223  17.860  0.00  0.00    +0.000 A 
ATOM     18  C   UNL     1       2.004   5.229  17.844  0.00  0.00    +0.000 A 
ATOM     19  C   UNL     1       1.283   6.460  17.948  0.00  0.00    +0.000 A 
BRANCH  14  21
ATOM     20  C   UNL     1       1.140   9.515  19.315  0.00  0.00    +0.000 C 
ATOM     21  O   UNL     1       1.339   8.926  18.033  0.00  0.00    +0.000 OA
ENDBRANCH  14  21
BRANCH  18  22
ATOM     22  O   UNL     1       1.323   4.033  17.728  0.00  0.00    +0.000 OA
ATOM     23  C   UNL     1       0.886   3.476  18.976  0.00  0.00    +0.000 C 
ENDBRANCH  18  22
ENDBRANCH   1  17
TORSDOF 4
ENDMDL
MODEL 8
REMARK VINA RESULT:      -6.4      9.282     12.027
REMARK  Name = 
REMARK  7 active torsions:
REMARK  status: ('A' for Active; 'I' for Inactive)
REMARK    1  A    between atoms: C_1  and  O_2
REMARK    2  A    between atoms: O_2  and  C_3
REMARK    3  A    between atoms: C_6  and  N_7
REMARK    4  A    between atoms: N_7  and  C_8
REMARK    5  A    between atoms: N_7  and  C_9
REMARK    6  A    between atoms: C_20  and  O_21
REMARK    7  A    between atoms: O_21  and  C_22
REMARK                            x       y       z     vdW  Elec       q    Type
REMARK                         _______ _______ _______ _____ _____    ______ ____
ROOT
ATOM      1  N   UNL     1      -3.937  13.938  21.327  0.00  0.00    +0.000 N 
ATOM      2  C   UNL     1      -3.910  14.915  22.436  0.00  0.00    +0.000 C 
ENDROOT
BRANCH   1   3
ATOM      3  C   UNL     1      -5.307  13.488  21.155  0.00  0.00    +0.000 A 
ATOM      4  N   UNL     1      -6.080  13.824  22.189  0.00  0.00    +0.000 NA
ATOM      5  C   UNL     1      -6.941  12.906  22.582  0.00  0.00    +0.000 A 
ATOM      6 CL   UNL     1      -7.685  13.224  24.080  0.00  0.00    +0.000 Cl
ATOM      7  N   UNL     1      -7.207  11.744  21.998  0.00  0.00    +0.000 NA
ATOM      8  C   UNL     1      -6.681  11.567  20.799  0.00  0.00    +0.000 A 
ATOM      9  C   UNL     1      -7.164  10.454  20.144  0.00  0.00    +0.000 A 
ATOM     10  C   UNL     1      -6.960  10.238  18.787  0.00  0.00    +0.000 A 
ATOM     11  C   UNL     1      -6.221  11.170  18.084  0.00  0.00    +0.000 A 
ATOM     12  C   UNL     1      -5.584  12.242  18.780  0.00  0.00    +0.000 A 
ATOM     13  C   UNL     1      -5.762  12.474  20.205  0.00  0.00    +0.000 A 
ENDBRANCH   1   3
BRANCH   1  17
ATOM     14  C   UNL     1      -0.762  11.134  22.478  0.00  0.00    +0.000 A 
ATOM     15  C   UNL     1      -1.803  11.449  23.339  0.00  0.00    +0.000 A 
ATOM     16  C   UNL     1      -2.839  12.316  22.944  0.00  0.00    +0.000 A 
ATOM     17  C   UNL     1      -2.885  12.918  21.660  0.00  0.00    +0.000 A 
ATOM     18  C   UNL     1      -1.887  12.482  20.744  0.00  0.00    +0.000 A 
ATOM     19  C   UNL     1      -0.813  11.645  21.186  0.00  0.00    +0.000 A 
BRANCH  14  21
ATOM     20  C   UNL     1       0.714   9.249  22.212  0.00  0.00    +0.000 C 
ATOM     21  O   UNL     1       0.206  10.321  23.002  0.00  0.00    +0.000 OA
ENDBRANCH  14  21
BRANCH  18  22
ATOM     22  O   UNL     1      -1.962  12.873  19.422  0.00  0.00    +0.000 OA
ATOM     23  C   UNL     1      -0.975  12.275  18.570  0.00  0.00    +0.000 C 
ENDBRANCH  18  22
ENDBRANCH   1  17
TORSDOF 4
ENDMDL
MODEL 9
REMARK VINA RESULT:      -6.4      3.805      6.596
REMARK  Name = 
REMARK  7 active torsions:
REMARK  status: ('A' for Active; 'I' for Inactive)
REMARK    1  A    between atoms: C_1  and  O_2
REMARK    2  A    between atoms: O_2  and  C_3
REMARK    3  A    between atoms: C_6  and  N_7
REMARK    4  A    between atoms: N_7  and  C_8
REMARK    5  A    between atoms: N_7  and  C_9
REMARK    6  A    between atoms: C_20  and  O_21
REMARK    7  A    between atoms: O_21  and  C_22
REMARK                            x       y       z     vdW  Elec       q    Type
REMARK                         _______ _______ _______ _____ _____    ______ ____
ROOT
ATOM      1  N   UNL     1       2.727   7.185  18.624  0.00  0.00    +0.000 N 
ATOM      2  C   UNL     1       1.808   6.669  17.587  0.00  0.00    +0.000 C 
ENDROOT
BRANCH   1   3
ATOM      3  C   UNL     1       3.322   6.048  19.306  0.00  0.00    +0.000 A 
ATOM      4  N   UNL     1       4.653   6.136  19.359  0.00  0.00    +0.000 NA
ATOM      5  C   UNL     1       5.308   5.010  19.149  0.00  0.00    +0.000 A 
ATOM      6 CL   UNL     1       6.982   5.198  18.907  0.00  0.00    +0.000 Cl
ATOM      7  N   UNL     1       4.799   3.792  19.013  0.00  0.00    +0.000 NA
ATOM      8  C   UNL     1       3.514   3.668  19.292  0.00  0.00    +0.000 A 
ATOM      9  C   UNL     1       3.087   2.359  19.354  0.00  0.00    +0.000 A 
ATOM     10  C   UNL     1       1.861   1.997  19.898  0.00  0.00    +0.000 A 
ATOM     11  C   UNL     1       1.037   3.001  20.368  0.00  0.00    +0.000 A 
ATOM     12  C   UNL     1       1.397   4.369  20.165  0.00  0.00    +0.000 A 
ATOM     13  C   UNL     1       2.665   4.771  19.576  0.00  0.00    +0.000 A 
ENDBRANCH   1   3
BRANCH   1  17
ATOM     14  C   UNL     1       0.161   9.863  20.971  0.00  0.00    +0.000 A 
ATOM     15  C   UNL     1       0.639   8.670  21.493  0.00  0.00    +0.000 A 
ATOM     16  C   UNL     1       1.495   7.839  20.747  0.00  0.00    +0.000 A 
ATOM     17  C   UNL     1       1.919   8.161  19.431  0.00  0.00    +0.000 A 
ATOM     18  C   UNL     1       1.532   9.448  18.962  0.00  0.00    +0.000 A 
ATOM     19  C   UNL     1       0.614  10.248  19.715  0.00  0.00    +0.000 A 
BRANCH  14  21
ATOM     20  C   UNL     1      -0.790  10.205  23.158  0.00  0.00    +0.000 C 
ATOM     21  O   UNL     1      -0.703  10.552  21.779  0.00  0.00    +0.000 OA
ENDBRANCH  14  21
BRANCH  18  22
ATOM     22  O   UNL     1       2.048   9.919  17.772  0.00  0.00    +0.000 OA
ATOM     23  C   UNL     1       2.408  11.308  17.790  0.00  0.00    +0.000 C 
ENDBRANCH  18  22
ENDBRANCH   1  17
TORSDOF 4
ENDMDL
