MODEL 1
REMARK VINA RESULT:      -7.3      0.000      0.000
REMARK  Name = 
REMARK  5 active torsions:
REMARK  status: ('A' for Active; 'I' for Inactive)
REMARK    1  A    between atoms: N_1  and  N_2
REMARK    2  A    between atoms: C_3  and  S_11
REMARK    3  A    between atoms: N_4  and  C_5
REMARK    4  A    between atoms: S_11  and  C_12
REMARK    5  A    between atoms: C_12  and  C_13
REMARK                            x       y       z     vdW  Elec       q    Type
REMARK                         _______ _______ _______ _____ _____    ______ ____
ROOT
ATOM      1  N   UNL     1       6.990   5.075  18.479  0.00  0.00    +0.000 NA
ATOM      2  C   UNL     1       5.896   4.373  18.324  0.00  0.00    +0.000 C 
ATOM      3  N   UNL     1       5.247   3.670  19.311  0.00  0.00    +0.000 N 
ATOM      4  H   UNL     1       5.806   3.491  20.128  0.00  0.00    +0.000 HD
ENDROOT
BRANCH   3   5
ATOM      5  C   UNL     1       3.858   3.562  19.541  0.00  0.00    +0.000 A 
ATOM      6  C   UNL     1       3.167   4.688  20.008  0.00  0.00    +0.000 A 
ATOM      7  C   UNL     1       1.805   4.616  20.325  0.00  0.00    +0.000 A 
ATOM      8  C   UNL     1       1.113   3.420  20.179  0.00  0.00    +0.000 A 
ATOM      9  C   UNL     1       1.779   2.294  19.708  0.00  0.00    +0.000 A 
ATOM     10  C   UNL     1       3.141   2.362  19.394  0.00  0.00    +0.000 A 
ENDBRANCH   3   5
BRANCH   1  11
ATOM     11  N   UNL     1       7.500   5.174  19.731  0.00  0.00    +0.000 N 
ATOM     12  H   UNL     1       7.704   4.226  20.071  0.00  0.00    +0.000 HD
ATOM     13  H   UNL     1       8.384   5.675  19.772  0.00  0.00    +0.000 HD
ENDBRANCH   1  11
BRANCH   2  14
ATOM     14  S   UNL     1       5.257   4.254  16.684  0.00  0.00    +0.000 S 
BRANCH  14  15
ATOM     15  C   UNL     1       6.434   5.298  15.786  0.00  0.00    +0.000 C 
BRANCH  15  16
ATOM     16  C   UNL     1       6.623   4.784  14.378  0.00  0.00    +0.000 A 
ATOM     17  C   UNL     1       7.599   5.351  13.544  0.00  0.00    +0.000 A 
ATOM     18  C   UNL     1       7.746   4.918  12.226  0.00  0.00    +0.000 A 
ATOM     19  C   UNL     1       6.919   3.915  11.725  0.00  0.00    +0.000 A 
ATOM     20  C   UNL     1       5.943   3.345  12.541  0.00  0.00    +0.000 A 
ATOM     21  C   UNL     1       5.793   3.778  13.861  0.00  0.00    +0.000 A 
ENDBRANCH  15  16
ENDBRANCH  14  15
ENDBRANCH   2  14
TORSDOF 5
ENDMDL
MODEL 2
REMARK VINA RESULT:      -7.2      0.180      1.151
REMARK  Name = 
REMARK  5 active torsions:
REMARK  status: ('A' for Active; 'I' for Inactive)
REMARK    1  A    between atoms: N_1  and  N_2
REMARK    2  A    between atoms: C_3  and  S_11
REMARK    3  A    between atoms: N_4  and  C_5
REMARK    4  A    between atoms: S_11  and  C_12
REMARK    5  A    between atoms: C_12  and  C_13
REMARK                            x       y       z     vdW  Elec       q    Type
REMARK                         _______ _______ _______ _____ _____    ______ ____
ROOT
ATOM      1  N   UNL     1       6.932   5.035  18.455  0.00  0.00    +0.000 NA
ATOM      2  C   UNL     1       5.815   4.364  18.347  0.00  0.00    +0.000 C 
ATOM      3  N   UNL     1       5.175   3.699  19.365  0.00  0.00    +0.000 N 
ATOM      4  H   UNL     1       5.753   3.520  20.170  0.00  0.00    +0.000 HD
ENDROOT
BRANCH   3   5
ATOM      5  C   UNL     1       3.791   3.636  19.638  0.00  0.00    +0.000 A 
ATOM      6  C   UNL     1       3.130   4.810  20.024  0.00  0.00    +0.000 A 
ATOM      7  C   UNL     1       1.776   4.790  20.379  0.00  0.00    +0.000 A 
ATOM      8  C   UNL     1       1.062   3.599  20.352  0.00  0.00    +0.000 A 
ATOM      9  C   UNL     1       1.697   2.425  19.963  0.00  0.00    +0.000 A 
ATOM     10  C   UNL     1       3.052   2.441  19.611  0.00  0.00    +0.000 A 
ENDBRANCH   3   5
BRANCH   1  11
ATOM     11  N   UNL     1       7.482   5.144  19.690  0.00  0.00    +0.000 N 
ATOM     12  H   UNL     1       8.482   4.919  19.618  0.00  0.00    +0.000 HD
ATOM     13  H   UNL     1       7.441   6.085  20.073  0.00  0.00    +0.000 HD
ENDBRANCH   1  11
BRANCH   2  14
ATOM     14  S   UNL     1       5.125   4.231  16.728  0.00  0.00    +0.000 S 
BRANCH  14  15
ATOM     15  C   UNL     1       6.177   5.389  15.816  0.00  0.00    +0.000 C 
BRANCH  15  16
ATOM     16  C   UNL     1       6.427   4.880  14.416  0.00  0.00    +0.000 A 
ATOM     17  C   UNL     1       5.607   3.878  13.872  0.00  0.00    +0.000 A 
ATOM     18  C   UNL     1       5.861   3.365  12.600  0.00  0.00    +0.000 A 
ATOM     19  C   UNL     1       6.937   3.845  11.857  0.00  0.00    +0.000 A 
ATOM     20  C   UNL     1       7.761   4.838  12.385  0.00  0.00    +0.000 A 
ATOM     21  C   UNL     1       7.509   5.352  13.659  0.00  0.00    +0.000 A 
ENDBRANCH  15  16
ENDBRANCH  14  15
ENDBRANCH   2  14
TORSDOF 5
ENDMDL
MODEL 3
REMARK VINA RESULT:      -7.1      1.522      6.516
REMARK  Name = 
REMARK  5 active torsions:
REMARK  status: ('A' for Active; 'I' for Inactive)
REMARK    1  A    between atoms: N_1  and  N_2
REMARK    2  A    between atoms: C_3  and  S_11
REMARK    3  A    between atoms: N_4  and  C_5
REMARK    4  A    between atoms: S_11  and  C_12
REMARK    5  A    between atoms: C_12  and  C_13
REMARK                            x       y       z     vdW  Elec       q    Type
REMARK                         _______ _______ _______ _____ _____    ______ ____
ROOT
ATOM      1  N   UNL     1       6.913   5.065  17.910  0.00  0.00    +0.000 NA
ATOM      2  C   UNL     1       6.622   5.400  16.679  0.00  0.00    +0.000 C 
ATOM      3  N   UNL     1       7.432   5.218  15.584  0.00  0.00    +0.000 N 
ATOM      4  H   UNL     1       8.400   5.053  15.808  0.00  0.00    +0.000 HD
ENDROOT
BRANCH   3   5
ATOM      5  C   UNL     1       7.071   4.793  14.287  0.00  0.00    +0.000 A 
ATOM      6  C   UNL     1       6.023   3.874  14.151  0.00  0.00    +0.000 A 
ATOM      7  C   UNL     1       5.673   3.361  12.896  0.00  0.00    +0.000 A 
ATOM      8  C   UNL     1       6.365   3.759  11.759  0.00  0.00    +0.000 A 
ATOM      9  C   UNL     1       7.403   4.677  11.872  0.00  0.00    +0.000 A 
ATOM     10  C   UNL     1       7.757   5.188  13.126  0.00  0.00    +0.000 A 
ENDBRANCH   3   5
BRANCH   1  11
ATOM     11  N   UNL     1       8.089   4.425  18.125  0.00  0.00    +0.000 N 
ATOM     12  H   UNL     1       8.303   3.858  17.296  0.00  0.00    +0.000 HD
ATOM     13  H   UNL     1       8.880   5.054  18.239  0.00  0.00    +0.000 HD
ENDBRANCH   1  11
BRANCH   2  14
ATOM     14  S   UNL     1       5.089   6.238  16.428  0.00  0.00    +0.000 S 
BRANCH  14  15
ATOM     15  C   UNL     1       4.369   6.130  18.087  0.00  0.00    +0.000 C 
BRANCH  15  16
ATOM     16  C   UNL     1       3.340   5.026  18.141  0.00  0.00    +0.000 A 
ATOM     17  C   UNL     1       2.299   5.076  19.082  0.00  0.00    +0.000 A 
ATOM     18  C   UNL     1       1.374   4.036  19.174  0.00  0.00    +0.000 A 
ATOM     19  C   UNL     1       1.479   2.933  18.329  0.00  0.00    +0.000 A 
ATOM     20  C   UNL     1       2.509   2.868  17.392  0.00  0.00    +0.000 A 
ATOM     21  C   UNL     1       3.438   3.908  17.299  0.00  0.00    +0.000 A 
ENDBRANCH  15  16
ENDBRANCH  14  15
ENDBRANCH   2  14
TORSDOF 5
ENDMDL
MODEL 4
REMARK VINA RESULT:      -7.1      0.361      1.174
REMARK  Name = 
REMARK  5 active torsions:
REMARK  status: ('A' for Active; 'I' for Inactive)
REMARK    1  A    between atoms: N_1  and  N_2
REMARK    2  A    between atoms: C_3  and  S_11
REMARK    3  A    between atoms: N_4  and  C_5
REMARK    4  A    between atoms: S_11  and  C_12
REMARK    5  A    between atoms: C_12  and  C_13
REMARK                            x       y       z     vdW  Elec       q    Type
REMARK                         _______ _______ _______ _____ _____    ______ ____
ROOT
ATOM      1  N   UNL     1       7.056   5.277  18.709  0.00  0.00    +0.000 NA
ATOM      2  C   UNL     1       6.002   4.551  18.435  0.00  0.00    +0.000 C 
ATOM      3  N   UNL     1       5.370   3.692  19.302  0.00  0.00    +0.000 N 
ATOM      4  H   UNL     1       5.922   3.432  20.103  0.00  0.00    +0.000 HD
ENDROOT
BRANCH   3   5
ATOM      5  C   UNL     1       3.984   3.489  19.480  0.00  0.00    +0.000 A 
ATOM      6  C   UNL     1       3.413   2.307  18.993  0.00  0.00    +0.000 A 
ATOM      7  C   UNL     1       2.032   2.087  19.075  0.00  0.00    +0.000 A 
ATOM      8  C   UNL     1       1.203   3.045  19.646  0.00  0.00    +0.000 A 
ATOM      9  C   UNL     1       1.752   4.221  20.144  0.00  0.00    +0.000 A 
ATOM     10  C   UNL     1       3.131   4.445  20.059  0.00  0.00    +0.000 A 
ENDBRANCH   3   5
BRANCH   1  11
ATOM     11  N   UNL     1       7.537   5.231  19.976  0.00  0.00    +0.000 N 
ATOM     12  H   UNL     1       6.746   5.333  20.624  0.00  0.00    +0.000 HD
ATOM     13  H   UNL     1       7.974   4.345  20.215  0.00  0.00    +0.000 HD
ENDBRANCH   1  11
BRANCH   2  14
ATOM     14  S   UNL     1       5.401   4.623  16.777  0.00  0.00    +0.000 S 
BRANCH  14  15
ATOM     15  C   UNL     1       6.897   5.144  15.898  0.00  0.00    +0.000 C 
BRANCH  15  16
ATOM     16  C   UNL     1       6.843   4.690  14.458  0.00  0.00    +0.000 A 
ATOM     17  C   UNL     1       7.718   5.245  13.510  0.00  0.00    +0.000 A 
ATOM     18  C   UNL     1       7.642   4.870  12.168  0.00  0.00    +0.000 A 
ATOM     19  C   UNL     1       6.690   3.939  11.758  0.00  0.00    +0.000 A 
ATOM     20  C   UNL     1       5.814   3.382  12.688  0.00  0.00    +0.000 A 
ATOM     21  C   UNL     1       5.887   3.757  14.032  0.00  0.00    +0.000 A 
ENDBRANCH  15  16
ENDBRANCH  14  15
ENDBRANCH   2  14
TORSDOF 5
ENDMDL
MODEL 5
REMARK VINA RESULT:      -7.1      2.881      5.973
REMARK  Name = 
REMARK  5 active torsions:
REMARK  status: ('A' for Active; 'I' for Inactive)
REMARK    1  A    between atoms: N_1  and  N_2
REMARK    2  A    between atoms: C_3  and  S_11
REMARK    3  A    between atoms: N_4  and  C_5
REMARK    4  A    between atoms: S_11  and  C_12
REMARK    5  A    between atoms: C_12  and  C_13
REMARK                            x       y       z     vdW  Elec       q    Type
REMARK                         _______ _______ _______ _____ _____    ______ ____
ROOT
ATOM      1  N   UNL     1       6.191   4.032  16.074  0.00  0.00    +0.000 NA
ATOM      2  C   UNL     1       5.190   4.328  16.862  0.00  0.00    +0.000 C 
ATOM      3  N   UNL     1       5.212   5.259  17.873  0.00  0.00    +0.000 N 
ATOM      4  H   UNL     1       6.136   5.527  18.169  0.00  0.00    +0.000 HD
ENDROOT
BRANCH   3   5
ATOM      5  C   UNL     1       4.212   6.189  18.231  0.00  0.00    +0.000 A 
ATOM      6  C   UNL     1       3.495   5.979  19.416  0.00  0.00    +0.000 A 
ATOM      7  C   UNL     1       2.442   6.827  19.781  0.00  0.00    +0.000 A 
ATOM      8  C   UNL     1       2.091   7.898  18.967  0.00  0.00    +0.000 A 
ATOM      9  C   UNL     1       2.796   8.128  17.791  0.00  0.00    +0.000 A 
ATOM     10  C   UNL     1       3.846   7.279  17.423  0.00  0.00    +0.000 A 
ENDBRANCH   3   5
BRANCH   1  11
ATOM     11  N   UNL     1       7.335   4.744  16.217  0.00  0.00    +0.000 N 
ATOM     12  H   UNL     1       8.130   4.109  16.072  0.00  0.00    +0.000 HD
ATOM     13  H   UNL     1       7.446   5.483  15.527  0.00  0.00    +0.000 HD
ENDBRANCH   1  11
BRANCH   2  14
ATOM     14  S   UNL     1       3.714   3.382  16.660  0.00  0.00    +0.000 S 
BRANCH  14  15
ATOM     15  C   UNL     1       3.889   2.189  18.012  0.00  0.00    +0.000 C 
BRANCH  15  16
ATOM     16  C   UNL     1       2.942   2.531  19.138  0.00  0.00    +0.000 A 
ATOM     17  C   UNL     1       3.364   2.421  20.473  0.00  0.00    +0.000 A 
ATOM     18  C   UNL     1       2.481   2.685  21.521  0.00  0.00    +0.000 A 
ATOM     19  C   UNL     1       1.167   3.060  21.247  0.00  0.00    +0.000 A 
ATOM     20  C   UNL     1       0.735   3.171  19.927  0.00  0.00    +0.000 A 
ATOM     21  C   UNL     1       1.616   2.906  18.876  0.00  0.00    +0.000 A 
ENDBRANCH  15  16
ENDBRANCH  14  15
ENDBRANCH   2  14
TORSDOF 5
ENDMDL
MODEL 6
REMARK VINA RESULT:      -7.1      2.575      6.179
REMARK  Name = 
REMARK  5 active torsions:
REMARK  status: ('A' for Active; 'I' for Inactive)
REMARK    1  A    between atoms: N_1  and  N_2
REMARK    2  A    between atoms: C_3  and  S_11
REMARK    3  A    between atoms: N_4  and  C_5
REMARK    4  A    between atoms: S_11  and  C_12
REMARK    5  A    between atoms: C_12  and  C_13
REMARK                            x       y       z     vdW  Elec       q    Type
REMARK                         _______ _______ _______ _____ _____    ______ ____
ROOT
ATOM      1  N   UNL     1       4.117   2.083  20.164  0.00  0.00    +0.000 NA
ATOM      2  C   UNL     1       4.165   3.180  19.453  0.00  0.00    +0.000 C 
ATOM      3  N   UNL     1       5.307   3.783  18.982  0.00  0.00    +0.000 N 
ATOM      4  H   UNL     1       6.151   3.486  19.442  0.00  0.00    +0.000 HD
ENDROOT
BRANCH   3   5
ATOM      5  C   UNL     1       5.529   4.376  17.719  0.00  0.00    +0.000 A 
ATOM      6  C   UNL     1       6.136   5.637  17.670  0.00  0.00    +0.000 A 
ATOM      7  C   UNL     1       6.312   6.304  16.451  0.00  0.00    +0.000 A 
ATOM      8  C   UNL     1       5.884   5.720  15.265  0.00  0.00    +0.000 A 
ATOM      9  C   UNL     1       5.286   4.465  15.293  0.00  0.00    +0.000 A 
ATOM     10  C   UNL     1       5.106   3.798  16.510  0.00  0.00    +0.000 A 
ENDBRANCH   3   5
BRANCH   1  11
ATOM     11  N   UNL     1       5.286   1.443  20.411  0.00  0.00    +0.000 N 
ATOM     12  H   UNL     1       5.854   1.468  19.555  0.00  0.00    +0.000 HD
ATOM     13  H   UNL     1       5.852   1.891  21.128  0.00  0.00    +0.000 HD
ENDBRANCH   1  11
BRANCH   2  14
ATOM     14  S   UNL     1       2.630   3.997  19.152  0.00  0.00    +0.000 S 
BRANCH  14  15
ATOM     15  C   UNL     1       2.762   5.395  20.295  0.00  0.00    +0.000 C 
BRANCH  15  16
ATOM     16  C   UNL     1       2.473   6.691  19.575  0.00  0.00    +0.000 A 
ATOM     17  C   UNL     1       1.755   7.712  20.218  0.00  0.00    +0.000 A 
ATOM     18  C   UNL     1       1.438   8.891  19.543  0.00  0.00    +0.000 A 
ATOM     19  C   UNL     1       1.833   9.064  18.218  0.00  0.00    +0.000 A 
ATOM     20  C   UNL     1       2.544   8.058  17.567  0.00  0.00    +0.000 A 
ATOM     21  C   UNL     1       2.861   6.875  18.239  0.00  0.00    +0.000 A 
ENDBRANCH  15  16
ENDBRANCH  14  15
ENDBRANCH   2  14
TORSDOF 5
ENDMDL
MODEL 7
REMARK VINA RESULT:      -7.0      2.562      6.197
REMARK  Name = 
REMARK  5 active torsions:
REMARK  status: ('A' for Active; 'I' for Inactive)
REMARK    1  A    between atoms: N_1  and  N_2
REMARK    2  A    between atoms: C_3  and  S_11
REMARK    3  A    between atoms: N_4  and  C_5
REMARK    4  A    between atoms: S_11  and  C_12
REMARK    5  A    between atoms: C_12  and  C_13
REMARK                            x       y       z     vdW  Elec       q    Type
REMARK                         _______ _______ _______ _____ _____    ______ ____
ROOT
ATOM      1  N   UNL     1       4.116   2.007  20.152  0.00  0.00    +0.000 NA
ATOM      2  C   UNL     1       4.148   3.154  19.524  0.00  0.00    +0.000 C 
ATOM      3  N   UNL     1       5.283   3.827  19.137  0.00  0.00    +0.000 N 
ATOM      4  H   UNL     1       6.122   3.524  19.603  0.00  0.00    +0.000 HD
ENDROOT
BRANCH   3   5
ATOM      5  C   UNL     1       5.524   4.518  17.930  0.00  0.00    +0.000 A 
ATOM      6  C   UNL     1       6.092   5.797  17.992  0.00  0.00    +0.000 A 
ATOM      7  C   UNL     1       6.283   6.558  16.832  0.00  0.00    +0.000 A 
ATOM      8  C   UNL     1       5.910   6.051  15.594  0.00  0.00    +0.000 A 
ATOM      9  C   UNL     1       5.353   4.780  15.510  0.00  0.00    +0.000 A 
ATOM     10  C   UNL     1       5.158   4.019  16.668  0.00  0.00    +0.000 A 
ENDBRANCH   3   5
BRANCH   1  11
ATOM     11  N   UNL     1       5.298   1.389  20.391  0.00  0.00    +0.000 N 
ATOM     12  H   UNL     1       5.821   1.343  19.508  0.00  0.00    +0.000 HD
ATOM     13  H   UNL     1       5.898   1.892  21.040  0.00  0.00    +0.000 HD
ENDBRANCH   1  11
BRANCH   2  14
ATOM     14  S   UNL     1       2.596   3.942  19.232  0.00  0.00    +0.000 S 
BRANCH  14  15
ATOM     15  C   UNL     1       2.714   5.351  20.365  0.00  0.00    +0.000 C 
BRANCH  15  16
ATOM     16  C   UNL     1       2.344   6.630  19.652  0.00  0.00    +0.000 A 
ATOM     17  C   UNL     1       2.644   6.791  18.290  0.00  0.00    +0.000 A 
ATOM     18  C   UNL     1       2.353   7.988  17.635  0.00  0.00    +0.000 A 
ATOM     19  C   UNL     1       1.761   9.038  18.334  0.00  0.00    +0.000 A 
ATOM     20  C   UNL     1       1.461   8.893  19.687  0.00  0.00    +0.000 A 
ATOM     21  C   UNL     1       1.753   7.696  20.345  0.00  0.00    +0.000 A 
ENDBRANCH  15  16
ENDBRANCH  14  15
ENDBRANCH   2  14
TORSDOF 5
ENDMDL
MODEL 8
REMARK VINA RESULT:      -7.0      2.971      5.938
REMARK  Name = 
REMARK  5 active torsions:
REMARK  status: ('A' for Active; 'I' for Inactive)
REMARK    1  A    between atoms: N_1  and  N_2
REMARK    2  A    between atoms: C_3  and  S_11
REMARK    3  A    between atoms: N_4  and  C_5
REMARK    4  A    between atoms: S_11  and  C_12
REMARK    5  A    between atoms: C_12  and  C_13
REMARK                            x       y       z     vdW  Elec       q    Type
REMARK                         _______ _______ _______ _____ _____    ______ ____
ROOT
ATOM      1  N   UNL     1       6.200   4.216  16.292  0.00  0.00    +0.000 NA
ATOM      2  C   UNL     1       5.143   4.434  17.032  0.00  0.00    +0.000 C 
ATOM      3  N   UNL     1       5.060   5.329  18.072  0.00  0.00    +0.000 N 
ATOM      4  H   UNL     1       5.951   5.633  18.428  0.00  0.00    +0.000 HD
ENDROOT
BRANCH   3   5
ATOM      5  C   UNL     1       3.994   6.194  18.402  0.00  0.00    +0.000 A 
ATOM      6  C   UNL     1       3.770   7.318  17.597  0.00  0.00    +0.000 A 
ATOM      7  C   UNL     1       2.776   8.250  17.921  0.00  0.00    +0.000 A 
ATOM      8  C   UNL     1       1.991   8.071  19.053  0.00  0.00    +0.000 A 
ATOM      9  C   UNL     1       2.192   6.957  19.860  0.00  0.00    +0.000 A 
ATOM     10  C   UNL     1       3.187   6.026  19.540  0.00  0.00    +0.000 A 
ENDBRANCH   3   5
BRANCH   1  11
ATOM     11  N   UNL     1       7.296   4.980  16.524  0.00  0.00    +0.000 N 
ATOM     12  H   UNL     1       6.982   5.922  16.787  0.00  0.00    +0.000 HD
ATOM     13  H   UNL     1       7.863   4.653  17.303  0.00  0.00    +0.000 HD
ENDBRANCH   1  11
BRANCH   2  14
ATOM     14  S   UNL     1       3.732   3.422  16.715  0.00  0.00    +0.000 S 
BRANCH  14  15
ATOM     15  C   UNL     1       3.894   2.194  18.036  0.00  0.00    +0.000 C 
BRANCH  15  16
ATOM     16  C   UNL     1       2.928   2.500  19.157  0.00  0.00    +0.000 A 
ATOM     17  C   UNL     1       3.382   2.553  20.485  0.00  0.00    +0.000 A 
ATOM     18  C   UNL     1       2.489   2.784  21.532  0.00  0.00    +0.000 A 
ATOM     19  C   UNL     1       1.133   2.963  21.264  0.00  0.00    +0.000 A 
ATOM     20  C   UNL     1       0.668   2.910  19.951  0.00  0.00    +0.000 A 
ATOM     21  C   UNL     1       1.560   2.677  18.902  0.00  0.00    +0.000 A 
ENDBRANCH  15  16
ENDBRANCH  14  15
ENDBRANCH   2  14
TORSDOF 5
ENDMDL
MODEL 9
REMARK VINA RESULT:      -7.0      0.870      1.798
REMARK  Name = 
REMARK  5 active torsions:
REMARK  status: ('A' for Active; 'I' for Inactive)
REMARK    1  A    between atoms: N_1  and  N_2
REMARK    2  A    between atoms: C_3  and  S_11
REMARK    3  A    between atoms: N_4  and  C_5
REMARK    4  A    between atoms: S_11  and  C_12
REMARK    5  A    between atoms: C_12  and  C_13
REMARK                            x       y       z     vdW  Elec       q    Type
REMARK                         _______ _______ _______ _____ _____    ______ ____
ROOT
ATOM      1  N   UNL     1       7.502   5.877  18.601  0.00  0.00    +0.000 NA
ATOM      2  C   UNL     1       6.372   5.293  18.294  0.00  0.00    +0.000 C 
ATOM      3  N   UNL     1       5.759   4.298  19.017  0.00  0.00    +0.000 N 
ATOM      4  H   UNL     1       6.363   3.833  19.674  0.00  0.00    +0.000 HD
ENDROOT
BRANCH   3   5
ATOM      5  C   UNL     1       4.385   4.138  19.299  0.00  0.00    +0.000 A 
ATOM      6  C   UNL     1       3.797   2.886  19.078  0.00  0.00    +0.000 A 
ATOM      7  C   UNL     1       2.423   2.692  19.269  0.00  0.00    +0.000 A 
ATOM      8  C   UNL     1       1.618   3.745  19.684  0.00  0.00    +0.000 A 
ATOM      9  C   UNL     1       2.185   4.993  19.918  0.00  0.00    +0.000 A 
ATOM     10  C   UNL     1       3.556   5.191  19.724  0.00  0.00    +0.000 A 
ENDBRANCH   3   5
BRANCH   1  11
ATOM     11  N   UNL     1       8.097   5.519  19.766  0.00  0.00    +0.000 N 
ATOM     12  H   UNL     1       8.305   4.514  19.725  0.00  0.00    +0.000 HD
ATOM     13  H   UNL     1       8.990   5.978  19.925  0.00  0.00    +0.000 HD
ENDBRANCH   1  11
BRANCH   2  14
ATOM     14  S   UNL     1       5.622   5.771  16.769  0.00  0.00    +0.000 S 
BRANCH  14  15
ATOM     15  C   UNL     1       5.523   4.171  15.926  0.00  0.00    +0.000 C 
BRANCH  15  16
ATOM     16  C   UNL     1       6.115   4.271  14.540  0.00  0.00    +0.000 A 
ATOM     17  C   UNL     1       5.619   3.468  13.500  0.00  0.00    +0.000 A 
ATOM     18  C   UNL     1       6.194   3.516  12.230  0.00  0.00    +0.000 A 
ATOM     19  C   UNL     1       7.272   4.365  11.984  0.00  0.00    +0.000 A 
ATOM     20  C   UNL     1       7.776   5.165  13.007  0.00  0.00    +0.000 A 
ATOM     21  C   UNL     1       7.203   5.118  14.281  0.00  0.00    +0.000 A 
ENDBRANCH  15  16
ENDBRANCH  14  15
ENDBRANCH   2  14
TORSDOF 5
ENDMDL
