MODEL 1
REMARK VINA RESULT:      -8.8      0.000      0.000
REMARK  Name = 
REMARK  10 active torsions:
REMARK  status: ('A' for Active; 'I' for Inactive)
REMARK    1  A    between atoms: C_1  and  O_2
REMARK    2  A    between atoms: O_2  and  C_3
REMARK    3  A    between atoms: C_8  and  O_9
REMARK    4  A    between atoms: O_9  and  C_10
REMARK    5  A    between atoms: C_14  and  C_15
REMARK    6  A    between atoms: C_18  and  O_19
REMARK    7  A    between atoms: O_19  and  C_20
REMARK    8  A    between atoms: C_20  and  C_21
REMARK    9  A    between atoms: C_26  and  C_27
REMARK   10  A    between atoms: C_29  and  O_30
REMARK                            x       y       z     vdW  Elec       q    Type
REMARK                         _______ _______ _______ _____ _____    ______ ____
ROOT
ATOM      1  C   UNL     1       2.280   6.735  19.442  0.00  0.00    +0.000 A 
ATOM      2  C   UNL     1       2.457   7.147  18.115  0.00  0.00    +0.000 A 
ATOM      3  C   UNL     1       2.095   8.429  17.691  0.00  0.00    +0.000 A 
ATOM      4  C   UNL     1       1.522   9.332  18.586  0.00  0.00    +0.000 A 
ATOM      5  C   UNL     1       1.400   8.978  19.926  0.00  0.00    +0.000 A 
ATOM      6  C   UNL     1       1.762   7.692  20.346  0.00  0.00    +0.000 A 
ENDROOT
BRANCH   1  11
ATOM      7  C   UNL     1       3.675   4.521  19.778  0.00  0.00    +0.000 A 
ATOM      8  C   UNL     1       3.222   3.234  20.123  0.00  0.00    +0.000 A 
ATOM      9  N   UNL     1       1.939   3.230  20.492  0.00  0.00    +0.000 NA
ATOM     10  N   UNL     1       1.584   4.521  20.353  0.00  0.00    +0.000 N 
ATOM     11  C   UNL     1       2.556   5.340  19.829  0.00  0.00    +0.000 A 
ATOM     12  H   UNL     1       0.636   4.801  20.589  0.00  0.00    +0.000 HD
BRANCH   7  13
ATOM     13  O   UNL     1       4.894   4.935  19.373  0.00  0.00    +0.000 OA
BRANCH  13  19
ATOM     14  C   UNL     1       6.820   4.701  17.829  0.00  0.00    +0.000 A 
ATOM     15  C   UNL     1       7.216   4.518  16.497  0.00  0.00    +0.000 A 
ATOM     16  C   UNL     1       6.279   4.242  15.501  0.00  0.00    +0.000 A 
ATOM     17  C   UNL     1       4.931   4.165  15.824  0.00  0.00    +0.000 A 
ATOM     18  C   UNL     1       4.519   4.380  17.139  0.00  0.00    +0.000 A 
ATOM     19  C   UNL     1       5.454   4.642  18.150  0.00  0.00    +0.000 A 
BRANCH  14  21
ATOM     20  C   UNL     1       8.083   6.380  18.920  0.00  0.00    +0.000 C 
ATOM     21  O   UNL     1       7.723   5.003  18.814  0.00  0.00    +0.000 OA
ENDBRANCH  14  21
ENDBRANCH  13  19
ENDBRANCH   7  13
ENDBRANCH   1  11
BRANCH   6  22
ATOM     22  O   UNL     1       1.568   7.354  21.665  0.00  0.00    +0.000 OA
ATOM     23  H   UNL     1       1.141   6.479  21.697  0.00  0.00    +0.000 HD
ENDBRANCH   6  22
BRANCH   4  24
ATOM     24  O   UNL     1       1.034  10.565  18.235  0.00  0.00    +0.000 OA
BRANCH  24  25
ATOM     25  C   UNL     1      -0.078  10.995  19.033  0.00  0.00    +0.000 C 
BRANCH  25  26
ATOM     26  C   UNL     1      -1.421  10.849  18.344  0.00  0.00    +0.000 A 
ATOM     27  C   UNL     1      -1.594   9.979  17.258  0.00  0.00    +0.000 A 
ATOM     28  C   UNL     1      -2.823   9.889  16.604  0.00  0.00    +0.000 A 
ATOM     29  C   UNL     1      -3.896  10.668  17.029  0.00  0.00    +0.000 A 
ATOM     30  C   UNL     1      -3.747  11.526  18.118  0.00  0.00    +0.000 A 
ATOM     31  C   UNL     1      -2.519  11.623  18.788  0.00  0.00    +0.000 A 
ATOM     32  C   UNL     1      -2.402  12.556  19.966  0.00  0.00    +0.000 C 
ENDBRANCH  25  26
ENDBRANCH  24  25
ENDBRANCH   4  24
TORSDOF 8
ENDMDL
MODEL 2
REMARK VINA RESULT:      -8.7      1.230      1.398
REMARK  Name = 
REMARK  10 active torsions:
REMARK  status: ('A' for Active; 'I' for Inactive)
REMARK    1  A    between atoms: C_1  and  O_2
REMARK    2  A    between atoms: O_2  and  C_3
REMARK    3  A    between atoms: C_8  and  O_9
REMARK    4  A    between atoms: O_9  and  C_10
REMARK    5  A    between atoms: C_14  and  C_15
REMARK    6  A    between atoms: C_18  and  O_19
REMARK    7  A    between atoms: O_19  and  C_20
REMARK    8  A    between atoms: C_20  and  C_21
REMARK    9  A    between atoms: C_26  and  C_27
REMARK   10  A    between atoms: C_29  and  O_30
REMARK                            x       y       z     vdW  Elec       q    Type
REMARK                         _______ _______ _______ _____ _____    ______ ____
ROOT
ATOM      1  C   UNL     1       2.336   5.577  19.014  0.00  0.00    +0.000 A 
ATOM      2  C   UNL     1       2.370   6.479  17.942  0.00  0.00    +0.000 A 
ATOM      3  C   UNL     1       2.089   7.838  18.118  0.00  0.00    +0.000 A 
ATOM      4  C   UNL     1       1.744   8.329  19.376  0.00  0.00    +0.000 A 
ATOM      5  C   UNL     1       1.772   7.473  20.474  0.00  0.00    +0.000 A 
ATOM      6  C   UNL     1       2.052   6.112  20.292  0.00  0.00    +0.000 A 
ENDROOT
BRANCH   1  11
ATOM      7  C   UNL     1       3.608   3.323  18.505  0.00  0.00    +0.000 A 
ATOM      8  C   UNL     1       3.075   2.059  18.186  0.00  0.00    +0.000 A 
ATOM      9  N   UNL     1       1.752   2.010  18.354  0.00  0.00    +0.000 NA
ATOM     10  N   UNL     1       1.455   3.259  18.758  0.00  0.00    +0.000 N 
ATOM     11  C   UNL     1       2.516   4.135  18.775  0.00  0.00    +0.000 A 
ATOM     12  H   UNL     1       0.490   3.493  18.975  0.00  0.00    +0.000 HD
BRANCH   7  13
ATOM     13  O   UNL     1       4.884   3.761  18.479  0.00  0.00    +0.000 OA
BRANCH  13  19
ATOM     14  C   UNL     1       6.892   4.577  17.274  0.00  0.00    +0.000 A 
ATOM     15  C   UNL     1       7.399   5.025  16.047  0.00  0.00    +0.000 A 
ATOM     16  C   UNL     1       6.624   4.970  14.888  0.00  0.00    +0.000 A 
ATOM     17  C   UNL     1       5.325   4.485  14.948  0.00  0.00    +0.000 A 
ATOM     18  C   UNL     1       4.796   4.068  16.169  0.00  0.00    +0.000 A 
ATOM     19  C   UNL     1       5.571   4.103  17.336  0.00  0.00    +0.000 A 
BRANCH  14  21
ATOM     20  C   UNL     1       7.843   5.966  18.939  0.00  0.00    +0.000 C 
ATOM     21  O   UNL     1       7.628   4.650  18.427  0.00  0.00    +0.000 OA
ENDBRANCH  14  21
ENDBRANCH  13  19
ENDBRANCH   7  13
ENDBRANCH   1  11
BRANCH   6  22
ATOM     22  O   UNL     1       2.009   5.282  21.388  0.00  0.00    +0.000 OA
ATOM     23  H   UNL     1       1.741   4.395  21.089  0.00  0.00    +0.000 HD
ENDBRANCH   6  22
BRANCH   4  24
ATOM     24  O   UNL     1       1.344   9.618  19.621  0.00  0.00    +0.000 OA
BRANCH  24  25
ATOM     25  C   UNL     1       0.958  10.338  18.442  0.00  0.00    +0.000 C 
BRANCH  25  26
ATOM     26  C   UNL     1      -0.538  10.547  18.312  0.00  0.00    +0.000 A 
ATOM     27  C   UNL     1      -1.315   9.753  17.456  0.00  0.00    +0.000 A 
ATOM     28  C   UNL     1      -2.683   9.988  17.312  0.00  0.00    +0.000 A 
ATOM     29  C   UNL     1      -3.292  11.019  18.022  0.00  0.00    +0.000 A 
ATOM     30  C   UNL     1      -2.538  11.807  18.891  0.00  0.00    +0.000 A 
ATOM     31  C   UNL     1      -1.164  11.581  19.050  0.00  0.00    +0.000 A 
ATOM     32  C   UNL     1      -0.386  12.449  20.005  0.00  0.00    +0.000 C 
ENDBRANCH  25  26
ENDBRANCH  24  25
ENDBRANCH   4  24
TORSDOF 8
ENDMDL
MODEL 3
REMARK VINA RESULT:      -8.6      2.539      9.182
REMARK  Name = 
REMARK  10 active torsions:
REMARK  status: ('A' for Active; 'I' for Inactive)
REMARK    1  A    between atoms: C_1  and  O_2
REMARK    2  A    between atoms: O_2  and  C_3
REMARK    3  A    between atoms: C_8  and  O_9
REMARK    4  A    between atoms: O_9  and  C_10
REMARK    5  A    between atoms: C_14  and  C_15
REMARK    6  A    between atoms: C_18  and  O_19
REMARK    7  A    between atoms: O_19  and  C_20
REMARK    8  A    between atoms: C_20  and  C_21
REMARK    9  A    between atoms: C_26  and  C_27
REMARK   10  A    between atoms: C_29  and  O_30
REMARK                            x       y       z     vdW  Elec       q    Type
REMARK                         _______ _______ _______ _____ _____    ______ ____
ROOT
ATOM      1  C   UNL     1       1.269   9.376  19.625  0.00  0.00    +0.000 A 
ATOM      2  C   UNL     1       1.310   8.424  20.652  0.00  0.00    +0.000 A 
ATOM      3  C   UNL     1       1.867   7.157  20.454  0.00  0.00    +0.000 A 
ATOM      4  C   UNL     1       2.382   6.799  19.210  0.00  0.00    +0.000 A 
ATOM      5  C   UNL     1       2.422   7.746  18.190  0.00  0.00    +0.000 A 
ATOM      6  C   UNL     1       1.861   9.014  18.392  0.00  0.00    +0.000 A 
ENDROOT
BRANCH   1  11
ATOM      7  C   UNL     1      -0.721  11.107  19.579  0.00  0.00    +0.000 A 
ATOM      8  C   UNL     1      -0.693  12.493  19.821  0.00  0.00    +0.000 A 
ATOM      9  N   UNL     1       0.481  12.899  20.308  0.00  0.00    +0.000 NA
ATOM     10  N   UNL     1       1.198  11.761  20.347  0.00  0.00    +0.000 N 
ATOM     11  C   UNL     1       0.567  10.655  19.827  0.00  0.00    +0.000 A 
ATOM     12  H   UNL     1       2.150  11.787  20.702  0.00  0.00    +0.000 HD
BRANCH   7  13
ATOM     13  O   UNL     1      -1.716  10.326  19.108  0.00  0.00    +0.000 OA
BRANCH  13  19
ATOM     14  C   UNL     1      -3.577  11.349  17.827  0.00  0.00    +0.000 A 
ATOM     15  C   UNL     1      -4.260  11.373  16.604  0.00  0.00    +0.000 A 
ATOM     16  C   UNL     1      -3.781  10.664  15.501  0.00  0.00    +0.000 A 
ATOM     17  C   UNL     1      -2.624   9.906  15.617  0.00  0.00    +0.000 A 
ATOM     18  C   UNL     1      -1.955   9.844  16.838  0.00  0.00    +0.000 A 
ATOM     19  C   UNL     1      -2.417  10.566  17.947  0.00  0.00    +0.000 A 
BRANCH  14  21
ATOM     20  C   UNL     1      -5.438  11.840  19.207  0.00  0.00    +0.000 C 
ATOM     21  O   UNL     1      -4.048  12.014  18.928  0.00  0.00    +0.000 OA
ENDBRANCH  14  21
ENDBRANCH  13  19
ENDBRANCH   7  13
ENDBRANCH   1  11
BRANCH   6  22
ATOM     22  O   UNL     1       1.859   9.904  17.344  0.00  0.00    +0.000 OA
ATOM     23  H   UNL     1       1.535  10.762  17.671  0.00  0.00    +0.000 HD
ENDBRANCH   6  22
BRANCH   4  24
ATOM     24  O   UNL     1       2.843   5.546  18.893  0.00  0.00    +0.000 OA
BRANCH  24  25
ATOM     25  C   UNL     1       4.231   5.347  19.197  0.00  0.00    +0.000 C 
BRANCH  25  26
ATOM     26  C   UNL     1       5.081   5.001  17.989  0.00  0.00    +0.000 A 
ATOM     27  C   UNL     1       4.505   4.522  16.804  0.00  0.00    +0.000 A 
ATOM     28  C   UNL     1       5.303   4.164  15.717  0.00  0.00    +0.000 A 
ATOM     29  C   UNL     1       6.688   4.281  15.802  0.00  0.00    +0.000 A 
ATOM     30  C   UNL     1       7.276   4.772  16.966  0.00  0.00    +0.000 A 
ATOM     31  C   UNL     1       6.487   5.141  18.065  0.00  0.00    +0.000 A 
ATOM     32  C   UNL     1       7.162   5.675  19.302  0.00  0.00    +0.000 C 
ENDBRANCH  25  26
ENDBRANCH  24  25
ENDBRANCH   4  24
TORSDOF 8
ENDMDL
MODEL 4
REMARK VINA RESULT:      -8.4      0.919      1.702
REMARK  Name = 
REMARK  10 active torsions:
REMARK  status: ('A' for Active; 'I' for Inactive)
REMARK    1  A    between atoms: C_1  and  O_2
REMARK    2  A    between atoms: O_2  and  C_3
REMARK    3  A    between atoms: C_8  and  O_9
REMARK    4  A    between atoms: O_9  and  C_10
REMARK    5  A    between atoms: C_14  and  C_15
REMARK    6  A    between atoms: C_18  and  O_19
REMARK    7  A    between atoms: O_19  and  C_20
REMARK    8  A    between atoms: C_20  and  C_21
REMARK    9  A    between atoms: C_26  and  C_27
REMARK   10  A    between atoms: C_29  and  O_30
REMARK                            x       y       z     vdW  Elec       q    Type
REMARK                         _______ _______ _______ _____ _____    ______ ____
ROOT
ATOM      1  C   UNL     1       2.135   7.447  19.426  0.00  0.00    +0.000 A 
ATOM      2  C   UNL     1       2.056   7.999  18.141  0.00  0.00    +0.000 A 
ATOM      3  C   UNL     1       1.442   9.234  17.910  0.00  0.00    +0.000 A 
ATOM      4  C   UNL     1       0.870   9.944  18.964  0.00  0.00    +0.000 A 
ATOM      5  C   UNL     1       0.996   9.458  20.262  0.00  0.00    +0.000 A 
ATOM      6  C   UNL     1       1.609   8.219  20.488  0.00  0.00    +0.000 A 
ENDROOT
BRANCH   1  11
ATOM      7  C   UNL     1       3.836   5.441  19.220  0.00  0.00    +0.000 A 
ATOM      8  C   UNL     1       3.655   4.089  19.567  0.00  0.00    +0.000 A 
ATOM      9  N   UNL     1       2.526   3.887  20.248  0.00  0.00    +0.000 NA
ATOM     10  N   UNL     1       1.987   5.119  20.306  0.00  0.00    +0.000 N 
ATOM     11  C   UNL     1       2.677   6.091  19.619  0.00  0.00    +0.000 A 
ATOM     12  H   UNL     1       1.107   5.252  20.797  0.00  0.00    +0.000 HD
BRANCH   7  13
ATOM     13  O   UNL     1       4.844   6.041  18.553  0.00  0.00    +0.000 OA
BRANCH  13  19
ATOM     14  C   UNL     1       6.731   4.804  17.522  0.00  0.00    +0.000 A 
ATOM     15  C   UNL     1       7.350   4.437  16.321  0.00  0.00    +0.000 A 
ATOM     16  C   UNL     1       6.751   4.711  15.091  0.00  0.00    +0.000 A 
ATOM     17  C   UNL     1       5.532   5.375  15.050  0.00  0.00    +0.000 A 
ATOM     18  C   UNL     1       4.921   5.778  16.237  0.00  0.00    +0.000 A 
ATOM     19  C   UNL     1       5.507   5.492  17.478  0.00  0.00    +0.000 A 
BRANCH  14  21
ATOM     20  C   UNL     1       7.942   5.699  19.349  0.00  0.00    +0.000 C 
ATOM     21  O   UNL     1       7.318   4.570  18.737  0.00  0.00    +0.000 OA
ENDBRANCH  14  21
ENDBRANCH  13  19
ENDBRANCH   7  13
ENDBRANCH   1  11
BRANCH   6  22
ATOM     22  O   UNL     1       1.661   7.739  21.775  0.00  0.00    +0.000 OA
ATOM     23  H   UNL     1       1.768   8.494  22.381  0.00  0.00    +0.000 HD
ENDBRANCH   6  22
BRANCH   4  24
ATOM     24  O   UNL     1       0.152  11.104  18.816  0.00  0.00    +0.000 OA
BRANCH  24  25
ATOM     25  C   UNL     1      -0.958  10.987  17.915  0.00  0.00    +0.000 C 
BRANCH  25  26
ATOM     26  C   UNL     1      -2.266  11.504  18.481  0.00  0.00    +0.000 A 
ATOM     27  C   UNL     1      -2.305  12.243  19.672  0.00  0.00    +0.000 A 
ATOM     28  C   UNL     1      -3.521  12.673  20.206  0.00  0.00    +0.000 A 
ATOM     29  C   UNL     1      -4.713  12.369  19.554  0.00  0.00    +0.000 A 
ATOM     30  C   UNL     1      -4.692  11.650  18.360  0.00  0.00    +0.000 A 
ATOM     31  C   UNL     1      -3.478  11.216  17.809  0.00  0.00    +0.000 A 
ATOM     32  C   UNL     1      -3.498  10.449  16.512  0.00  0.00    +0.000 C 
ENDBRANCH  25  26
ENDBRANCH  24  25
ENDBRANCH   4  24
TORSDOF 8
ENDMDL
MODEL 5
REMARK VINA RESULT:      -8.4      1.522      2.280
REMARK  Name = 
REMARK  10 active torsions:
REMARK  status: ('A' for Active; 'I' for Inactive)
REMARK    1  A    between atoms: C_1  and  O_2
REMARK    2  A    between atoms: O_2  and  C_3
REMARK    3  A    between atoms: C_8  and  O_9
REMARK    4  A    between atoms: O_9  and  C_10
REMARK    5  A    between atoms: C_14  and  C_15
REMARK    6  A    between atoms: C_18  and  O_19
REMARK    7  A    between atoms: O_19  and  C_20
REMARK    8  A    between atoms: C_20  and  C_21
REMARK    9  A    between atoms: C_26  and  C_27
REMARK   10  A    between atoms: C_29  and  O_30
REMARK                            x       y       z     vdW  Elec       q    Type
REMARK                         _______ _______ _______ _____ _____    ______ ____
ROOT
ATOM      1  C   UNL     1       2.638   5.530  18.919  0.00  0.00    +0.000 A 
ATOM      2  C   UNL     1       2.634   6.505  17.913  0.00  0.00    +0.000 A 
ATOM      3  C   UNL     1       2.249   7.824  18.173  0.00  0.00    +0.000 A 
ATOM      4  C   UNL     1       1.837   8.199  19.450  0.00  0.00    +0.000 A 
ATOM      5  C   UNL     1       1.900   7.273  20.487  0.00  0.00    +0.000 A 
ATOM      6  C   UNL     1       2.283   5.952  20.222  0.00  0.00    +0.000 A 
ENDROOT
BRANCH   1  11
ATOM      7  C   UNL     1       4.078   3.347  18.577  0.00  0.00    +0.000 A 
ATOM      8  C   UNL     1       3.710   2.129  17.972  0.00  0.00    +0.000 A 
ATOM      9  N   UNL     1       2.401   2.064  17.721  0.00  0.00    +0.000 NA
ATOM     10  N   UNL     1       1.954   3.259  18.150  0.00  0.00    +0.000 N 
ATOM     11  C   UNL     1       2.930   4.124  18.588  0.00  0.00    +0.000 A 
ATOM     12  H   UNL     1       0.962   3.469  18.086  0.00  0.00    +0.000 HD
BRANCH   7  13
ATOM     13  O   UNL     1       5.287   3.781  18.991  0.00  0.00    +0.000 OA
BRANCH  13  19
ATOM     14  C   UNL     1       6.016   5.141  17.050  0.00  0.00    +0.000 A 
ATOM     15  C   UNL     1       6.894   6.138  16.604  0.00  0.00    +0.000 A 
ATOM     16  C   UNL     1       7.704   6.836  17.502  0.00  0.00    +0.000 A 
ATOM     17  C   UNL     1       7.658   6.529  18.855  0.00  0.00    +0.000 A 
ATOM     18  C   UNL     1       6.814   5.515  19.308  0.00  0.00    +0.000 A 
ATOM     19  C   UNL     1       5.985   4.820  18.417  0.00  0.00    +0.000 A 
BRANCH  14  21
ATOM     20  C   UNL     1       5.940   3.728  15.152  0.00  0.00    +0.000 C 
ATOM     21  O   UNL     1       5.236   4.426  16.180  0.00  0.00    +0.000 OA
ENDBRANCH  14  21
ENDBRANCH  13  19
ENDBRANCH   7  13
ENDBRANCH   1  11
BRANCH   6  22
ATOM     22  O   UNL     1       2.273   5.046  21.256  0.00  0.00    +0.000 OA
ATOM     23  H   UNL     1       2.862   5.376  21.958  0.00  0.00    +0.000 HD
ENDBRANCH   6  22
BRANCH   4  24
ATOM     24  O   UNL     1       1.338   9.437  19.770  0.00  0.00    +0.000 OA
BRANCH  24  25
ATOM     25  C   UNL     1       1.035  10.251  18.629  0.00  0.00    +0.000 C 
BRANCH  25  26
ATOM     26  C   UNL     1      -0.447  10.504  18.429  0.00  0.00    +0.000 A 
ATOM     27  C   UNL     1      -1.195   9.767  17.500  0.00  0.00    +0.000 A 
ATOM     28  C   UNL     1      -2.547  10.043  17.294  0.00  0.00    +0.000 A 
ATOM     29  C   UNL     1      -3.169  11.057  18.016  0.00  0.00    +0.000 A 
ATOM     30  C   UNL     1      -2.446  11.787  18.957  0.00  0.00    +0.000 A 
ATOM     31  C   UNL     1      -1.087  11.520  19.179  0.00  0.00    +0.000 A 
ATOM     32  C   UNL     1      -0.343  12.326  20.211  0.00  0.00    +0.000 C 
ENDBRANCH  25  26
ENDBRANCH  24  25
ENDBRANCH   4  24
TORSDOF 8
ENDMDL
MODEL 6
REMARK VINA RESULT:      -8.4      2.847      8.853
REMARK  Name = 
REMARK  10 active torsions:
REMARK  status: ('A' for Active; 'I' for Inactive)
REMARK    1  A    between atoms: C_1  and  O_2
REMARK    2  A    between atoms: O_2  and  C_3
REMARK    3  A    between atoms: C_8  and  O_9
REMARK    4  A    between atoms: O_9  and  C_10
REMARK    5  A    between atoms: C_14  and  C_15
REMARK    6  A    between atoms: C_18  and  O_19
REMARK    7  A    between atoms: O_19  and  C_20
REMARK    8  A    between atoms: C_20  and  C_21
REMARK    9  A    between atoms: C_26  and  C_27
REMARK   10  A    between atoms: C_29  and  O_30
REMARK                            x       y       z     vdW  Elec       q    Type
REMARK                         _______ _______ _______ _____ _____    ______ ____
ROOT
ATOM      1  C   UNL     1       0.975   9.718  19.398  0.00  0.00    +0.000 A 
ATOM      2  C   UNL     1       1.399   9.576  18.070  0.00  0.00    +0.000 A 
ATOM      3  C   UNL     1       2.209   8.510  17.669  0.00  0.00    +0.000 A 
ATOM      4  C   UNL     1       2.635   7.560  18.596  0.00  0.00    +0.000 A 
ATOM      5  C   UNL     1       2.172   7.632  19.907  0.00  0.00    +0.000 A 
ATOM      6  C   UNL     1       1.363   8.704  20.305  0.00  0.00    +0.000 A 
ENDROOT
BRANCH   1  11
ATOM      7  C   UNL     1      -1.099  11.315  19.720  0.00  0.00    +0.000 A 
ATOM      8  C   UNL     1      -1.124  12.660  20.137  0.00  0.00    +0.000 A 
ATOM      9  N   UNL     1       0.063  13.072  20.587  0.00  0.00    +0.000 NA
ATOM     10  N   UNL     1       0.839  11.984  20.426  0.00  0.00    +0.000 N 
ATOM     11  C   UNL     1       0.226  10.916  19.814  0.00  0.00    +0.000 A 
ATOM     12  H   UNL     1       1.813  12.024  20.712  0.00  0.00    +0.000 HD
BRANCH   7  13
ATOM     13  O   UNL     1      -2.087  10.540  19.225  0.00  0.00    +0.000 OA
BRANCH  13  19
ATOM     14  C   UNL     1      -3.864  11.433  17.744  0.00  0.00    +0.000 A 
ATOM     15  C   UNL     1      -4.422  11.396  16.459  0.00  0.00    +0.000 A 
ATOM     16  C   UNL     1      -3.798  10.696  15.426  0.00  0.00    +0.000 A 
ATOM     17  C   UNL     1      -2.619  10.007  15.672  0.00  0.00    +0.000 A 
ATOM     18  C   UNL     1      -2.072  10.005  16.955  0.00  0.00    +0.000 A 
ATOM     19  C   UNL     1      -2.681  10.719  17.996  0.00  0.00    +0.000 A 
BRANCH  14  21
ATOM     20  C   UNL     1      -5.831  11.713  19.032  0.00  0.00    +0.000 C 
ATOM     21  O   UNL     1      -4.478  12.090  18.777  0.00  0.00    +0.000 OA
ENDBRANCH  14  21
ENDBRANCH  13  19
ENDBRANCH   7  13
ENDBRANCH   1  11
BRANCH   6  22
ATOM     22  O   UNL     1       0.975   8.778  21.622  0.00  0.00    +0.000 OA
ATOM     23  H   UNL     1       1.510   9.464  22.061  0.00  0.00    +0.000 HD
ENDBRANCH   6  22
BRANCH   4  24
ATOM     24  O   UNL     1       3.518   6.548  18.318  0.00  0.00    +0.000 OA
BRANCH  24  25
ATOM     25  C   UNL     1       3.605   5.556  19.350  0.00  0.00    +0.000 C 
BRANCH  25  26
ATOM     26  C   UNL     1       2.698   4.361  19.133  0.00  0.00    +0.000 A 
ATOM     27  C   UNL     1       1.581   4.132  19.950  0.00  0.00    +0.000 A 
ATOM     28  C   UNL     1       0.783   3.003  19.767  0.00  0.00    +0.000 A 
ATOM     29  C   UNL     1       1.089   2.088  18.764  0.00  0.00    +0.000 A 
ATOM     30  C   UNL     1       2.185   2.308  17.930  0.00  0.00    +0.000 A 
ATOM     31  C   UNL     1       2.994   3.441  18.098  0.00  0.00    +0.000 A 
ATOM     32  C   UNL     1       4.164   3.646  17.171  0.00  0.00    +0.000 C 
ENDBRANCH  25  26
ENDBRANCH  24  25
ENDBRANCH   4  24
TORSDOF 8
ENDMDL
MODEL 7
REMARK VINA RESULT:      -8.4      3.560      8.053
REMARK  Name = 
REMARK  10 active torsions:
REMARK  status: ('A' for Active; 'I' for Inactive)
REMARK    1  A    between atoms: C_1  and  O_2
REMARK    2  A    between atoms: O_2  and  C_3
REMARK    3  A    between atoms: C_8  and  O_9
REMARK    4  A    between atoms: O_9  and  C_10
REMARK    5  A    between atoms: C_14  and  C_15
REMARK    6  A    between atoms: C_18  and  O_19
REMARK    7  A    between atoms: O_19  and  C_20
REMARK    8  A    between atoms: C_20  and  C_21
REMARK    9  A    between atoms: C_26  and  C_27
REMARK   10  A    between atoms: C_29  and  O_30
REMARK                            x       y       z     vdW  Elec       q    Type
REMARK                         _______ _______ _______ _____ _____    ______ ____
ROOT
ATOM      1  C   UNL     1       6.258   5.723  18.236  0.00  0.00    +0.000 A 
ATOM      2  C   UNL     1       6.022   6.584  17.156  0.00  0.00    +0.000 A 
ATOM      3  C   UNL     1       6.807   7.720  16.939  0.00  0.00    +0.000 A 
ATOM      4  C   UNL     1       7.844   8.038  17.814  0.00  0.00    +0.000 A 
ATOM      5  C   UNL     1       8.151   7.165  18.854  0.00  0.00    +0.000 A 
ATOM      6  C   UNL     1       7.360   6.029  19.070  0.00  0.00    +0.000 A 
ENDROOT
BRANCH   1  11
ATOM      7  C   UNL     1       3.970   4.420  18.387  0.00  0.00    +0.000 A 
ATOM      8  C   UNL     1       3.694   3.185  19.003  0.00  0.00    +0.000 A 
ATOM      9  N   UNL     1       4.804   2.551  19.387  0.00  0.00    +0.000 NA
ATOM     10  N   UNL     1       5.777   3.409  19.029  0.00  0.00    +0.000 N 
ATOM     11  C   UNL     1       5.339   4.605  18.509  0.00  0.00    +0.000 A 
ATOM     12  H   UNL     1       6.747   3.156  19.198  0.00  0.00    +0.000 HD
BRANCH   7  13
ATOM     13  O   UNL     1       3.130   5.335  17.859  0.00  0.00    +0.000 OA
BRANCH  13  19
ATOM     14  C   UNL     1       2.219   6.535  19.829  0.00  0.00    +0.000 A 
ATOM     15  C   UNL     1       1.674   7.739  20.296  0.00  0.00    +0.000 A 
ATOM     16  C   UNL     1       1.637   8.873  19.485  0.00  0.00    +0.000 A 
ATOM     17  C   UNL     1       2.126   8.810  18.187  0.00  0.00    +0.000 A 
ATOM     18  C   UNL     1       2.639   7.610  17.697  0.00  0.00    +0.000 A 
ATOM     19  C   UNL     1       2.697   6.469  18.509  0.00  0.00    +0.000 A 
BRANCH  14  21
ATOM     20  C   UNL     1       1.032   4.638  20.601  0.00  0.00    +0.000 C 
ATOM     21  O   UNL     1       2.238   5.404  20.601  0.00  0.00    +0.000 OA
ENDBRANCH  14  21
ENDBRANCH  13  19
ENDBRANCH   7  13
ENDBRANCH   1  11
BRANCH   6  22
ATOM     22  O   UNL     1       7.651   5.222  20.144  0.00  0.00    +0.000 OA
ATOM     23  H   UNL     1       8.526   4.820  19.997  0.00  0.00    +0.000 HD
ENDBRANCH   6  22
BRANCH   4  24
ATOM     24  O   UNL     1       8.591   9.187  17.744  0.00  0.00    +0.000 OA
BRANCH  24  25
ATOM     25  C   UNL     1       9.004   9.687  19.024  0.00  0.00    +0.000 C 
BRANCH  25  26
ATOM     26  C   UNL     1       9.814  10.967  18.951  0.00  0.00    +0.000 A 
ATOM     27  C   UNL     1      10.496  11.334  17.782  0.00  0.00    +0.000 A 
ATOM     28  C   UNL     1      11.276  12.491  17.745  0.00  0.00    +0.000 A 
ATOM     29  C   UNL     1      11.382  13.296  18.876  0.00  0.00    +0.000 A 
ATOM     30  C   UNL     1      10.697  12.955  20.041  0.00  0.00    +0.000 A 
ATOM     31  C   UNL     1       9.906  11.799  20.093  0.00  0.00    +0.000 A 
ATOM     32  C   UNL     1       9.174  11.471  21.369  0.00  0.00    +0.000 C 
ENDBRANCH  25  26
ENDBRANCH  24  25
ENDBRANCH   4  24
TORSDOF 8
ENDMDL
MODEL 8
REMARK VINA RESULT:      -8.4      2.235      3.120
REMARK  Name = 
REMARK  10 active torsions:
REMARK  status: ('A' for Active; 'I' for Inactive)
REMARK    1  A    between atoms: C_1  and  O_2
REMARK    2  A    between atoms: O_2  and  C_3
REMARK    3  A    between atoms: C_8  and  O_9
REMARK    4  A    between atoms: O_9  and  C_10
REMARK    5  A    between atoms: C_14  and  C_15
REMARK    6  A    between atoms: C_18  and  O_19
REMARK    7  A    between atoms: O_19  and  C_20
REMARK    8  A    between atoms: C_20  and  C_21
REMARK    9  A    between atoms: C_26  and  C_27
REMARK   10  A    between atoms: C_29  and  O_30
REMARK                            x       y       z     vdW  Elec       q    Type
REMARK                         _______ _______ _______ _____ _____    ______ ____
ROOT
ATOM      1  C   UNL     1       2.425   5.817  18.847  0.00  0.00    +0.000 A 
ATOM      2  C   UNL     1       2.339   6.707  17.768  0.00  0.00    +0.000 A 
ATOM      3  C   UNL     1       1.972   8.044  17.948  0.00  0.00    +0.000 A 
ATOM      4  C   UNL     1       1.659   8.524  19.219  0.00  0.00    +0.000 A 
ATOM      5  C   UNL     1       1.805   7.685  20.320  0.00  0.00    +0.000 A 
ATOM      6  C   UNL     1       2.170   6.346  20.135  0.00  0.00    +0.000 A 
ENDROOT
BRANCH   1  11
ATOM      7  C   UNL     1       3.561   3.686  17.787  0.00  0.00    +0.000 A 
ATOM      8  C   UNL     1       3.182   2.335  17.896  0.00  0.00    +0.000 A 
ATOM      9  N   UNL     1       2.228   2.149  18.811  0.00  0.00    +0.000 NA
ATOM     10  N   UNL     1       1.994   3.396  19.257  0.00  0.00    +0.000 N 
ATOM     11  C   UNL     1       2.694   4.389  18.611  0.00  0.00    +0.000 A 
ATOM     12  H   UNL     1       1.303   3.539  19.989  0.00  0.00    +0.000 HD
BRANCH   7  13
ATOM     13  O   UNL     1       4.488   4.268  16.998  0.00  0.00    +0.000 OA
BRANCH  13  19
ATOM     14  C   UNL     1       6.371   5.849  16.671  0.00  0.00    +0.000 A 
ATOM     15  C   UNL     1       7.486   6.455  17.266  0.00  0.00    +0.000 A 
ATOM     16  C   UNL     1       7.749   6.294  18.627  0.00  0.00    +0.000 A 
ATOM     17  C   UNL     1       6.909   5.508  19.404  0.00  0.00    +0.000 A 
ATOM     18  C   UNL     1       5.816   4.870  18.818  0.00  0.00    +0.000 A 
ATOM     19  C   UNL     1       5.534   5.039  17.455  0.00  0.00    +0.000 A 
BRANCH  14  21
ATOM     20  C   UNL     1       6.750   5.008  14.490  0.00  0.00    +0.000 C 
ATOM     21  O   UNL     1       6.114   5.971  15.331  0.00  0.00    +0.000 OA
ENDBRANCH  14  21
ENDBRANCH  13  19
ENDBRANCH   7  13
ENDBRANCH   1  11
BRANCH   6  22
ATOM     22  O   UNL     1       2.243   5.528  21.237  0.00  0.00    +0.000 OA
ATOM     23  H   UNL     1       1.379   5.541  21.687  0.00  0.00    +0.000 HD
ENDBRANCH   6  22
BRANCH   4  24
ATOM     24  O   UNL     1       1.182   9.785  19.474  0.00  0.00    +0.000 OA
BRANCH  24  25
ATOM     25  C   UNL     1       1.201  10.140  20.864  0.00  0.00    +0.000 C 
BRANCH  25  26
ATOM     26  C   UNL     1      -0.025  10.908  21.319  0.00  0.00    +0.000 A 
ATOM     27  C   UNL     1      -0.590  11.918  20.527  0.00  0.00    +0.000 A 
ATOM     28  C   UNL     1      -1.690  12.648  20.979  0.00  0.00    +0.000 A 
ATOM     29  C   UNL     1      -2.239  12.377  22.229  0.00  0.00    +0.000 A 
ATOM     30  C   UNL     1      -1.701  11.365  23.022  0.00  0.00    +0.000 A 
ATOM     31  C   UNL     1      -0.599  10.620  22.580  0.00  0.00    +0.000 A 
ATOM     32  C   UNL     1      -0.053   9.529  23.464  0.00  0.00    +0.000 C 
ENDBRANCH  25  26
ENDBRANCH  24  25
ENDBRANCH   4  24
TORSDOF 8
ENDMDL
MODEL 9
REMARK VINA RESULT:      -8.4      1.920      2.656
REMARK  Name = 
REMARK  10 active torsions:
REMARK  status: ('A' for Active; 'I' for Inactive)
REMARK    1  A    between atoms: C_1  and  O_2
REMARK    2  A    between atoms: O_2  and  C_3
REMARK    3  A    between atoms: C_8  and  O_9
REMARK    4  A    between atoms: O_9  and  C_10
REMARK    5  A    between atoms: C_14  and  C_15
REMARK    6  A    between atoms: C_18  and  O_19
REMARK    7  A    between atoms: O_19  and  C_20
REMARK    8  A    between atoms: C_20  and  C_21
REMARK    9  A    between atoms: C_26  and  C_27
REMARK   10  A    between atoms: C_29  and  O_30
REMARK                            x       y       z     vdW  Elec       q    Type
REMARK                         _______ _______ _______ _____ _____    ______ ____
ROOT
ATOM      1  C   UNL     1       2.428   5.565  19.027  0.00  0.00    +0.000 A 
ATOM      2  C   UNL     1       2.436   6.409  17.910  0.00  0.00    +0.000 A 
ATOM      3  C   UNL     1       2.165   7.776  18.023  0.00  0.00    +0.000 A 
ATOM      4  C   UNL     1       1.858   8.334  19.263  0.00  0.00    +0.000 A 
ATOM      5  C   UNL     1       1.914   7.536  20.402  0.00  0.00    +0.000 A 
ATOM      6  C   UNL     1       2.182   6.167  20.284  0.00  0.00    +0.000 A 
ENDROOT
BRANCH   1  11
ATOM      7  C   UNL     1       3.680   3.276  18.639  0.00  0.00    +0.000 A 
ATOM      8  C   UNL     1       3.137   2.004  18.375  0.00  0.00    +0.000 A 
ATOM      9  N   UNL     1       1.812   1.976  18.532  0.00  0.00    +0.000 NA
ATOM     10  N   UNL     1       1.525   3.246  18.873  0.00  0.00    +0.000 N 
ATOM     11  C   UNL     1       2.594   4.111  18.859  0.00  0.00    +0.000 A 
ATOM     12  H   UNL     1       0.560   3.500  19.069  0.00  0.00    +0.000 HD
BRANCH   7  13
ATOM     13  O   UNL     1       4.962   3.699  18.605  0.00  0.00    +0.000 OA
BRANCH  13  19
ATOM     14  C   UNL     1       6.904   4.677  17.415  0.00  0.00    +0.000 A 
ATOM     15  C   UNL     1       7.375   5.183  16.196  0.00  0.00    +0.000 A 
ATOM     16  C   UNL     1       6.604   5.096  15.036  0.00  0.00    +0.000 A 
ATOM     17  C   UNL     1       5.342   4.519  15.088  0.00  0.00    +0.000 A 
ATOM     18  C   UNL     1       4.847   4.043  16.302  0.00  0.00    +0.000 A 
ATOM     19  C   UNL     1       5.620   4.110  17.469  0.00  0.00    +0.000 A 
BRANCH  14  21
ATOM     20  C   UNL     1       7.936   6.111  18.991  0.00  0.00    +0.000 C 
ATOM     21  O   UNL     1       7.635   4.781  18.569  0.00  0.00    +0.000 OA
ENDBRANCH  14  21
ENDBRANCH  13  19
ENDBRANCH   7  13
ENDBRANCH   1  11
BRANCH   6  22
ATOM     22  O   UNL     1       2.166   5.395  21.422  0.00  0.00    +0.000 OA
ATOM     23  H   UNL     1       3.087   5.200  21.672  0.00  0.00    +0.000 HD
ENDBRANCH   6  22
BRANCH   4  24
ATOM     24  O   UNL     1       1.472   9.637  19.451  0.00  0.00    +0.000 OA
BRANCH  24  25
ATOM     25  C   UNL     1       0.053   9.806  19.586  0.00  0.00    +0.000 C 
BRANCH  25  26
ATOM     26  C   UNL     1      -0.347  10.863  20.597  0.00  0.00    +0.000 A 
ATOM     27  C   UNL     1      -0.467  12.213  20.234  0.00  0.00    +0.000 A 
ATOM     28  C   UNL     1      -0.790  13.181  21.185  0.00  0.00    +0.000 A 
ATOM     29  C   UNL     1      -0.998  12.812  22.511  0.00  0.00    +0.000 A 
ATOM     30  C   UNL     1      -0.900  11.473  22.886  0.00  0.00    +0.000 A 
ATOM     31  C   UNL     1      -0.580  10.488  21.941  0.00  0.00    +0.000 A 
ATOM     32  C   UNL     1      -0.492   9.050  22.386  0.00  0.00    +0.000 C 
ENDBRANCH  25  26
ENDBRANCH  24  25
ENDBRANCH   4  24
TORSDOF 8
ENDMDL
