MODEL 1
REMARK VINA RESULT:      -5.2      0.000      0.000
REMARK  Name = 
REMARK  4 active torsions:
REMARK  status: ('A' for Active; 'I' for Inactive)
REMARK    1  A    between atoms: C_1  and  C_2
REMARK    2  A    between atoms: C_2  and  C_3
REMARK    3  A    between atoms: C_3  and  O_4
REMARK    4  A    between atoms: C_3  and  C_5
REMARK                            x       y       z     vdW  Elec       q    Type
REMARK                         _______ _______ _______ _____ _____    ______ ____
ROOT
ATOM      1  C   UNL     1       2.094   5.304  19.380  0.00  0.00    +0.000 A 
ATOM      2  C   UNL     1       1.611   4.716  20.561  0.00  0.00    +0.000 A 
ATOM      3  C   UNL     1       1.040   3.441  20.541  0.00  0.00    +0.000 A 
ATOM      4  C   UNL     1       0.932   2.744  19.340  0.00  0.00    +0.000 A 
ATOM      5  C   UNL     1       1.382   3.322  18.158  0.00  0.00    +0.000 A 
ATOM      6  C   UNL     1       1.953   4.597  18.174  0.00  0.00    +0.000 A 
ENDROOT
BRANCH   1   7
ATOM      7  C   UNL     1       2.795   6.647  19.441  0.00  0.00    +0.000 C 
BRANCH   7   9
ATOM      8  C   UNL     1       1.999   8.570  17.975  0.00  0.00    +0.000 C 
ATOM      9  C   UNL     1       2.843   7.309  18.056  0.00  0.00    +0.000 C 
ENDBRANCH   7   9
BRANCH   7  10
ATOM     10  O   UNL     1       2.151   7.502  20.380  0.00  0.00    +0.000 OA
ATOM     11  H   UNL     1       2.205   8.409  20.036  0.00  0.00    +0.000 HD
ENDBRANCH   7  10
ENDBRANCH   1   7
TORSDOF 3
ENDMDL
MODEL 2
REMARK VINA RESULT:      -5.2      0.128      1.531
REMARK  Name = 
REMARK  4 active torsions:
REMARK  status: ('A' for Active; 'I' for Inactive)
REMARK    1  A    between atoms: C_1  and  C_2
REMARK    2  A    between atoms: C_2  and  C_3
REMARK    3  A    between atoms: C_3  and  O_4
REMARK    4  A    between atoms: C_3  and  C_5
REMARK                            x       y       z     vdW  Elec       q    Type
REMARK                         _______ _______ _______ _____ _____    ______ ____
ROOT
ATOM      1  C   UNL     1       2.150   5.345  19.432  0.00  0.00    +0.000 A 
ATOM      2  C   UNL     1       1.998   4.645  18.223  0.00  0.00    +0.000 A 
ATOM      3  C   UNL     1       1.371   3.398  18.194  0.00  0.00    +0.000 A 
ATOM      4  C   UNL     1       0.899   2.827  19.374  0.00  0.00    +0.000 A 
ATOM      5  C   UNL     1       1.064   3.495  20.583  0.00  0.00    +0.000 A 
ATOM      6  C   UNL     1       1.692   4.742  20.615  0.00  0.00    +0.000 A 
ENDROOT
BRANCH   1   7
ATOM      7  C   UNL     1       2.748   6.738  19.425  0.00  0.00    +0.000 C 
BRANCH   7   9
ATOM      8  C   UNL     1       1.890   8.720  18.078  0.00  0.00    +0.000 C 
ATOM      9  C   UNL     1       2.620   7.388  18.040  0.00  0.00    +0.000 C 
ENDBRANCH   7   9
BRANCH   7  10
ATOM     10  O   UNL     1       2.126   7.550  20.416  0.00  0.00    +0.000 OA
ATOM     11  H   UNL     1       1.904   8.401  20.001  0.00  0.00    +0.000 HD
ENDBRANCH   7  10
ENDBRANCH   1   7
TORSDOF 3
ENDMDL
MODEL 3
REMARK VINA RESULT:      -5.0      5.024      6.076
REMARK  Name = 
REMARK  4 active torsions:
REMARK  status: ('A' for Active; 'I' for Inactive)
REMARK    1  A    between atoms: C_1  and  C_2
REMARK    2  A    between atoms: C_2  and  C_3
REMARK    3  A    between atoms: C_3  and  O_4
REMARK    4  A    between atoms: C_3  and  C_5
REMARK                            x       y       z     vdW  Elec       q    Type
REMARK                         _______ _______ _______ _____ _____    ______ ____
ROOT
ATOM      1  C   UNL     1       5.532   4.847  15.738  0.00  0.00    +0.000 A 
ATOM      2  C   UNL     1       5.436   6.229  15.970  0.00  0.00    +0.000 A 
ATOM      3  C   UNL     1       4.549   6.731  16.926  0.00  0.00    +0.000 A 
ATOM      4  C   UNL     1       3.739   5.861  17.651  0.00  0.00    +0.000 A 
ATOM      5  C   UNL     1       3.804   4.492  17.416  0.00  0.00    +0.000 A 
ATOM      6  C   UNL     1       4.689   3.987  16.460  0.00  0.00    +0.000 A 
ENDROOT
BRANCH   1   7
ATOM      7  C   UNL     1       6.568   4.318  14.766  0.00  0.00    +0.000 C 
BRANCH   7   9
ATOM      8  C   UNL     1       6.831   3.873  12.273  0.00  0.00    +0.000 C 
ATOM      9  C   UNL     1       5.908   3.806  13.478  0.00  0.00    +0.000 C 
ENDBRANCH   7   9
BRANCH   7  10
ATOM     10  O   UNL     1       7.529   5.327  14.466  0.00  0.00    +0.000 OA
ATOM     11  H   UNL     1       8.268   5.222  15.088  0.00  0.00    +0.000 HD
ENDBRANCH   7  10
ENDBRANCH   1   7
TORSDOF 3
ENDMDL
MODEL 4
REMARK VINA RESULT:      -5.0      2.550      3.223
REMARK  Name = 
REMARK  4 active torsions:
REMARK  status: ('A' for Active; 'I' for Inactive)
REMARK    1  A    between atoms: C_1  and  C_2
REMARK    2  A    between atoms: C_2  and  C_3
REMARK    3  A    between atoms: C_3  and  O_4
REMARK    4  A    between atoms: C_3  and  C_5
REMARK                            x       y       z     vdW  Elec       q    Type
REMARK                         _______ _______ _______ _____ _____    ______ ____
ROOT
ATOM      1  C   UNL     1       3.208   3.276  19.209  0.00  0.00    +0.000 A 
ATOM      2  C   UNL     1       1.901   3.731  18.968  0.00  0.00    +0.000 A 
ATOM      3  C   UNL     1       0.925   3.656  19.964  0.00  0.00    +0.000 A 
ATOM      4  C   UNL     1       1.237   3.113  21.208  0.00  0.00    +0.000 A 
ATOM      5  C   UNL     1       2.520   2.633  21.454  0.00  0.00    +0.000 A 
ATOM      6  C   UNL     1       3.498   2.706  20.460  0.00  0.00    +0.000 A 
ENDROOT
BRANCH   1   7
ATOM      7  C   UNL     1       4.275   3.455  18.147  0.00  0.00    +0.000 C 
BRANCH   7   9
ATOM      8  C   UNL     1       4.693   5.942  17.798  0.00  0.00    +0.000 C 
ATOM      9  C   UNL     1       3.994   4.694  17.285  0.00  0.00    +0.000 C 
ENDBRANCH   7   9
BRANCH   7  10
ATOM     10  O   UNL     1       5.564   3.548  18.748  0.00  0.00    +0.000 OA
ATOM     11  H   UNL     1       6.196   3.790  18.051  0.00  0.00    +0.000 HD
ENDBRANCH   7  10
ENDBRANCH   1   7
TORSDOF 3
ENDMDL
MODEL 5
REMARK VINA RESULT:      -5.0      5.009      6.023
REMARK  Name = 
REMARK  4 active torsions:
REMARK  status: ('A' for Active; 'I' for Inactive)
REMARK    1  A    between atoms: C_1  and  C_2
REMARK    2  A    between atoms: C_2  and  C_3
REMARK    3  A    between atoms: C_3  and  O_4
REMARK    4  A    between atoms: C_3  and  C_5
REMARK                            x       y       z     vdW  Elec       q    Type
REMARK                         _______ _______ _______ _____ _____    ______ ____
ROOT
ATOM      1  C   UNL     1       5.621   4.862  15.822  0.00  0.00    +0.000 A 
ATOM      2  C   UNL     1       4.764   3.975  16.495  0.00  0.00    +0.000 A 
ATOM      3  C   UNL     1       3.797   4.452  17.383  0.00  0.00    +0.000 A 
ATOM      4  C   UNL     1       3.683   5.819  17.621  0.00  0.00    +0.000 A 
ATOM      5  C   UNL     1       4.541   6.710  16.983  0.00  0.00    +0.000 A 
ATOM      6  C   UNL     1       5.509   6.235  16.094  0.00  0.00    +0.000 A 
ENDROOT
BRANCH   1   7
ATOM      7  C   UNL     1       6.597   4.329  14.792  0.00  0.00    +0.000 C 
BRANCH   7   9
ATOM      8  C   UNL     1       6.734   3.819  12.302  0.00  0.00    +0.000 C 
ATOM      9  C   UNL     1       5.861   3.817  13.545  0.00  0.00    +0.000 C 
ENDBRANCH   7   9
BRANCH   7  10
ATOM     10  O   UNL     1       7.541   5.335  14.435  0.00  0.00    +0.000 OA
ATOM     11  H   UNL     1       8.355   4.886  14.154  0.00  0.00    +0.000 HD
ENDBRANCH   7  10
ENDBRANCH   1   7
TORSDOF 3
ENDMDL
MODEL 6
REMARK VINA RESULT:      -5.0      3.879      4.717
REMARK  Name = 
REMARK  4 active torsions:
REMARK  status: ('A' for Active; 'I' for Inactive)
REMARK    1  A    between atoms: C_1  and  C_2
REMARK    2  A    between atoms: C_2  and  C_3
REMARK    3  A    between atoms: C_3  and  O_4
REMARK    4  A    between atoms: C_3  and  C_5
REMARK                            x       y       z     vdW  Elec       q    Type
REMARK                         _______ _______ _______ _____ _____    ______ ____
ROOT
ATOM      1  C   UNL     1       5.353   5.506  16.984  0.00  0.00    +0.000 A 
ATOM      2  C   UNL     1       4.503   6.499  17.499  0.00  0.00    +0.000 A 
ATOM      3  C   UNL     1       3.207   6.184  17.912  0.00  0.00    +0.000 A 
ATOM      4  C   UNL     1       2.739   4.876  17.804  0.00  0.00    +0.000 A 
ATOM      5  C   UNL     1       3.559   3.886  17.272  0.00  0.00    +0.000 A 
ATOM      6  C   UNL     1       4.856   4.199  16.858  0.00  0.00    +0.000 A 
ENDROOT
BRANCH   1   7
ATOM      7  C   UNL     1       6.787   5.852  16.631  0.00  0.00    +0.000 C 
BRANCH   7   9
ATOM      8  C   UNL     1       7.852   6.042  18.935  0.00  0.00    +0.000 C 
ATOM      9  C   UNL     1       7.407   6.781  17.685  0.00  0.00    +0.000 C 
ENDBRANCH   7   9
BRANCH   7  10
ATOM     10  O   UNL     1       7.565   4.666  16.493  0.00  0.00    +0.000 OA
ATOM     11  H   UNL     1       7.501   4.379  15.567  0.00  0.00    +0.000 HD
ENDBRANCH   7  10
ENDBRANCH   1   7
TORSDOF 3
ENDMDL
MODEL 7
REMARK VINA RESULT:      -5.0      3.304      3.950
REMARK  Name = 
REMARK  4 active torsions:
REMARK  status: ('A' for Active; 'I' for Inactive)
REMARK    1  A    between atoms: C_1  and  C_2
REMARK    2  A    between atoms: C_2  and  C_3
REMARK    3  A    between atoms: C_3  and  O_4
REMARK    4  A    between atoms: C_3  and  C_5
REMARK                            x       y       z     vdW  Elec       q    Type
REMARK                         _______ _______ _______ _____ _____    ______ ____
ROOT
ATOM      1  C   UNL     1       4.477   4.571  17.557  0.00  0.00    +0.000 A 
ATOM      2  C   UNL     1       3.942   3.291  17.343  0.00  0.00    +0.000 A 
ATOM      3  C   UNL     1       2.566   3.067  17.439  0.00  0.00    +0.000 A 
ATOM      4  C   UNL     1       1.710   4.117  17.763  0.00  0.00    +0.000 A 
ATOM      5  C   UNL     1       2.227   5.386  18.003  0.00  0.00    +0.000 A 
ATOM      6  C   UNL     1       3.602   5.612  17.909  0.00  0.00    +0.000 A 
ENDROOT
BRANCH   1   7
ATOM      7  C   UNL     1       5.961   4.810  17.354  0.00  0.00    +0.000 C 
BRANCH   7   9
ATOM      8  C   UNL     1       7.626   6.624  17.999  0.00  0.00    +0.000 C 
ATOM      9  C   UNL     1       6.285   6.311  17.357  0.00  0.00    +0.000 C 
ENDBRANCH   7   9
BRANCH   7  10
ATOM     10  O   UNL     1       6.715   4.135  18.357  0.00  0.00    +0.000 OA
ATOM     11  H   UNL     1       7.569   4.592  18.439  0.00  0.00    +0.000 HD
ENDBRANCH   7  10
ENDBRANCH   1   7
TORSDOF 3
ENDMDL
MODEL 8
REMARK VINA RESULT:      -5.0      3.832      4.701
REMARK  Name = 
REMARK  4 active torsions:
REMARK  status: ('A' for Active; 'I' for Inactive)
REMARK    1  A    between atoms: C_1  and  C_2
REMARK    2  A    between atoms: C_2  and  C_3
REMARK    3  A    between atoms: C_3  and  O_4
REMARK    4  A    between atoms: C_3  and  C_5
REMARK                            x       y       z     vdW  Elec       q    Type
REMARK                         _______ _______ _______ _____ _____    ______ ____
ROOT
ATOM      1  C   UNL     1       4.353   4.408  16.868  0.00  0.00    +0.000 A 
ATOM      2  C   UNL     1       3.271   3.540  17.085  0.00  0.00    +0.000 A 
ATOM      3  C   UNL     1       2.116   3.986  17.731  0.00  0.00    +0.000 A 
ATOM      4  C   UNL     1       2.033   5.302  18.181  0.00  0.00    +0.000 A 
ATOM      5  C   UNL     1       3.106   6.168  17.997  0.00  0.00    +0.000 A 
ATOM      6  C   UNL     1       4.262   5.724  17.351  0.00  0.00    +0.000 A 
ENDROOT
BRANCH   1   7
ATOM      7  C   UNL     1       5.556   3.929  16.079  0.00  0.00    +0.000 C 
BRANCH   7   9
ATOM      8  C   UNL     1       6.117   3.864  13.597  0.00  0.00    +0.000 C 
ATOM      9  C   UNL     1       5.722   4.731  14.781  0.00  0.00    +0.000 C 
ENDBRANCH   7   9
BRANCH   7  10
ATOM     10  O   UNL     1       6.736   4.015  16.873  0.00  0.00    +0.000 OA
ATOM     11  H   UNL     1       7.345   3.321  16.570  0.00  0.00    +0.000 HD
ENDBRANCH   7  10
ENDBRANCH   1   7
TORSDOF 3
ENDMDL
MODEL 9
REMARK VINA RESULT:      -4.9      2.881      3.376
REMARK  Name = 
REMARK  4 active torsions:
REMARK  status: ('A' for Active; 'I' for Inactive)
REMARK    1  A    between atoms: C_1  and  C_2
REMARK    2  A    between atoms: C_2  and  C_3
REMARK    3  A    between atoms: C_3  and  O_4
REMARK    4  A    between atoms: C_3  and  C_5
REMARK                            x       y       z     vdW  Elec       q    Type
REMARK                         _______ _______ _______ _____ _____    ______ ____
ROOT
ATOM      1  C   UNL     1       3.736   3.615  17.784  0.00  0.00    +0.000 A 
ATOM      2  C   UNL     1       2.596   4.427  17.666  0.00  0.00    +0.000 A 
ATOM      3  C   UNL     1       1.345   3.966  18.084  0.00  0.00    +0.000 A 
ATOM      4  C   UNL     1       1.215   2.684  18.612  0.00  0.00    +0.000 A 
ATOM      5  C   UNL     1       2.330   1.857  18.712  0.00  0.00    +0.000 A 
ATOM      6  C   UNL     1       3.581   2.316  18.295  0.00  0.00    +0.000 A 
ENDROOT
BRANCH   1   7
ATOM      7  C   UNL     1       5.097   4.170  17.414  0.00  0.00    +0.000 C 
BRANCH   7   9
ATOM      8  C   UNL     1       5.314   6.076  15.740  0.00  0.00    +0.000 C 
ATOM      9  C   UNL     1       5.032   5.687  17.181  0.00  0.00    +0.000 C 
ENDBRANCH   7   9
BRANCH   7  10
ATOM     10  O   UNL     1       6.052   3.862  18.426  0.00  0.00    +0.000 OA
ATOM     11  H   UNL     1       5.761   4.297  19.245  0.00  0.00    +0.000 HD
ENDBRANCH   7  10
ENDBRANCH   1   7
TORSDOF 3
ENDMDL
