MODEL 1
REMARK VINA RESULT:      -7.5      0.000      0.000
REMARK  Name = 
REMARK  7 active torsions:
REMARK  status: ('A' for Active; 'I' for Inactive)
REMARK    1  A    between atoms: C_2  and  C_3
REMARK    2  A    between atoms: C_3  and  N_4
REMARK    3  A    between atoms: N_4  and  C_5
REMARK    4  A    between atoms: N_4  and  S_12
REMARK    5  A    between atoms: S_12  and  C_15
REMARK    6  A    between atoms: N_21  and  C_22
REMARK    7  A    between atoms: C_22  and  C_23
REMARK                            x       y       z     vdW  Elec       q    Type
REMARK                         _______ _______ _______ _____ _____    ______ ____
ROOT
ATOM      1  N   UNL     1       5.417   5.063  16.571  0.00  0.00    +0.000 N 
ENDROOT
BRANCH   1   2
ATOM      2  C   UNL     1       5.100   4.052  17.548  0.00  0.00    +0.000 A 
ATOM      3  C   UNL     1       4.374   2.937  17.106  0.00  0.00    +0.000 A 
ATOM      4  C   UNL     1       3.967   1.950  18.008  0.00  0.00    +0.000 A 
ATOM      5  C   UNL     1       4.227   2.097  19.369  0.00  0.00    +0.000 A 
ATOM      6  C   UNL     1       4.963   3.190  19.817  0.00  0.00    +0.000 A 
ATOM      7  C   UNL     1       5.446   4.136  18.906  0.00  0.00    +0.000 A 
ATOM      8 CL   UNL     1       6.527   5.328  19.522  0.00  0.00    +0.000 Cl
ENDBRANCH   1   2
BRANCH   1   9
ATOM      9  S   UNL     1       7.034   5.184  16.078  0.00  0.00    +0.000 S 
ATOM     10  O   UNL     1       7.470   6.558  16.220  0.00  0.00    +0.000 OA
ATOM     11  O   UNL     1       7.787   4.109  16.687  0.00  0.00    +0.000 OA
BRANCH   9  12
ATOM     12  C   UNL     1       6.957   4.789  14.340  0.00  0.00    +0.000 A 
ATOM     13  C   UNL     1       7.815   5.411  13.433  0.00  0.00    +0.000 A 
ATOM     14  C   UNL     1       7.788   5.029  12.086  0.00  0.00    +0.000 A 
ATOM     15  C   UNL     1       6.905   4.037  11.656  0.00  0.00    +0.000 A 
ATOM     16  C   UNL     1       6.054   3.410  12.567  0.00  0.00    +0.000 A 
ATOM     17  C   UNL     1       6.081   3.781  13.915  0.00  0.00    +0.000 A 
ENDBRANCH   9  12
ENDBRANCH   1   9
BRANCH   1  18
ATOM     18  C   UNL     1       4.458   6.166  16.345  0.00  0.00    +0.000 C 
BRANCH  18  20
ATOM     19  O   UNL     1       4.646   7.941  17.942  0.00  0.00    +0.000 OA
ATOM     20  C   UNL     1       3.998   6.971  17.544  0.00  0.00    +0.000 C 
ATOM     21  N   UNL     1       2.827   6.675  18.178  0.00  0.00    +0.000 N 
ATOM     22  H   UNL     1       2.642   7.281  18.968  0.00  0.00    +0.000 HD
BRANCH  21  23
ATOM     23  C   UNL     1       1.840   5.658  17.893  0.00  0.00    +0.000 C 
BRANCH  23  24
ATOM     24  C   UNL     1       1.632   4.776  19.089  0.00  0.00    +0.000 A 
ATOM     25  C   UNL     1       2.143   5.142  20.340  0.00  0.00    +0.000 A 
ATOM     26  C   UNL     1       2.006   4.285  21.431  0.00  0.00    +0.000 A 
ATOM     27  C   UNL     1       1.360   3.059  21.278  0.00  0.00    +0.000 A 
ATOM     28  C   UNL     1       0.836   2.692  20.043  0.00  0.00    +0.000 A 
ATOM     29  C   UNL     1       0.972   3.546  18.949  0.00  0.00    +0.000 A 
ENDBRANCH  23  24
ENDBRANCH  21  23
ENDBRANCH  18  20
ENDBRANCH   1  18
TORSDOF 7
ENDMDL
MODEL 2
REMARK VINA RESULT:      -7.5      0.096      1.297
REMARK  Name = 
REMARK  7 active torsions:
REMARK  status: ('A' for Active; 'I' for Inactive)
REMARK    1  A    between atoms: C_2  and  C_3
REMARK    2  A    between atoms: C_3  and  N_4
REMARK    3  A    between atoms: N_4  and  C_5
REMARK    4  A    between atoms: N_4  and  S_12
REMARK    5  A    between atoms: S_12  and  C_15
REMARK    6  A    between atoms: N_21  and  C_22
REMARK    7  A    between atoms: C_22  and  C_23
REMARK                            x       y       z     vdW  Elec       q    Type
REMARK                         _______ _______ _______ _____ _____    ______ ____
ROOT
ATOM      1  N   UNL     1       5.452   5.062  16.576  0.00  0.00    +0.000 N 
ENDROOT
BRANCH   1   2
ATOM      2  C   UNL     1       5.111   4.049  17.544  0.00  0.00    +0.000 A 
ATOM      3  C   UNL     1       4.401   2.932  17.081  0.00  0.00    +0.000 A 
ATOM      4  C   UNL     1       3.973   1.943  17.972  0.00  0.00    +0.000 A 
ATOM      5  C   UNL     1       4.196   2.089  19.338  0.00  0.00    +0.000 A 
ATOM      6  C   UNL     1       4.916   3.184  19.807  0.00  0.00    +0.000 A 
ATOM      7  C   UNL     1       5.420   4.132  18.911  0.00  0.00    +0.000 A 
ATOM      8 CL   UNL     1       6.481   5.327  19.557  0.00  0.00    +0.000 Cl
ENDBRANCH   1   2
BRANCH   1   9
ATOM      9  S   UNL     1       7.078   5.174  16.111  0.00  0.00    +0.000 S 
ATOM     10  O   UNL     1       7.505   6.554  16.210  0.00  0.00    +0.000 OA
ATOM     11  O   UNL     1       7.824   4.125  16.774  0.00  0.00    +0.000 OA
BRANCH   9  12
ATOM     12  C   UNL     1       7.036   4.714  14.387  0.00  0.00    +0.000 A 
ATOM     13  C   UNL     1       6.148   3.737  13.937  0.00  0.00    +0.000 A 
ATOM     14  C   UNL     1       6.080   3.446  12.568  0.00  0.00    +0.000 A 
ATOM     15  C   UNL     1       6.897   4.128  11.665  0.00  0.00    +0.000 A 
ATOM     16  C   UNL     1       7.777   5.112  12.118  0.00  0.00    +0.000 A 
ATOM     17  C   UNL     1       7.846   5.412  13.482  0.00  0.00    +0.000 A 
ENDBRANCH   9  12
ENDBRANCH   1   9
BRANCH   1  18
ATOM     18  C   UNL     1       4.505   6.173  16.340  0.00  0.00    +0.000 C 
BRANCH  18  20
ATOM     19  O   UNL     1       4.773   7.950  17.923  0.00  0.00    +0.000 OA
ATOM     20  C   UNL     1       4.077   7.013  17.527  0.00  0.00    +0.000 C 
ATOM     21  N   UNL     1       2.885   6.788  18.150  0.00  0.00    +0.000 N 
ATOM     22  H   UNL     1       2.725   7.411  18.933  0.00  0.00    +0.000 HD
BRANCH  21  23
ATOM     23  C   UNL     1       1.847   5.825  17.863  0.00  0.00    +0.000 C 
BRANCH  23  24
ATOM     24  C   UNL     1       1.690   4.863  19.005  0.00  0.00    +0.000 A 
ATOM     25  C   UNL     1       1.022   3.646  18.824  0.00  0.00    +0.000 A 
ATOM     26  C   UNL     1       0.819   2.789  19.905  0.00  0.00    +0.000 A 
ATOM     27  C   UNL     1       1.282   3.143  21.171  0.00  0.00    +0.000 A 
ATOM     28  C   UNL     1       1.960   4.344  21.360  0.00  0.00    +0.000 A 
ATOM     29  C   UNL     1       2.163   5.204  20.281  0.00  0.00    +0.000 A 
ENDBRANCH  23  24
ENDBRANCH  21  23
ENDBRANCH  18  20
ENDBRANCH   1  18
TORSDOF 7
ENDMDL
MODEL 3
REMARK VINA RESULT:      -7.5      3.696      6.408
REMARK  Name = 
REMARK  7 active torsions:
REMARK  status: ('A' for Active; 'I' for Inactive)
REMARK    1  A    between atoms: C_2  and  C_3
REMARK    2  A    between atoms: C_3  and  N_4
REMARK    3  A    between atoms: N_4  and  C_5
REMARK    4  A    between atoms: N_4  and  S_12
REMARK    5  A    between atoms: S_12  and  C_15
REMARK    6  A    between atoms: N_21  and  C_22
REMARK    7  A    between atoms: C_22  and  C_23
REMARK                            x       y       z     vdW  Elec       q    Type
REMARK                         _______ _______ _______ _____ _____    ______ ____
ROOT
ATOM      1  N   UNL     1       3.677   5.474  18.036  0.00  0.00    +0.000 N 
ENDROOT
BRANCH   1   2
ATOM      2  C   UNL     1       5.100   5.706  18.068  0.00  0.00    +0.000 A 
ATOM      3  C   UNL     1       5.775   5.392  19.256  0.00  0.00    +0.000 A 
ATOM      4  C   UNL     1       7.142   5.655  19.387  0.00  0.00    +0.000 A 
ATOM      5  C   UNL     1       7.834   6.289  18.358  0.00  0.00    +0.000 A 
ATOM      6  C   UNL     1       7.178   6.587  17.167  0.00  0.00    +0.000 A 
ATOM      7  C   UNL     1       5.831   6.248  17.000  0.00  0.00    +0.000 A 
ATOM      8 CL   UNL     1       5.168   6.454  15.423  0.00  0.00    +0.000 Cl
ENDBRANCH   1   2
BRANCH   1   9
ATOM      9  S   UNL     1       3.155   3.900  17.688  0.00  0.00    +0.000 S 
ATOM     10  O   UNL     1       2.021   3.966  16.789  0.00  0.00    +0.000 OA
ATOM     11  O   UNL     1       4.309   3.091  17.357  0.00  0.00    +0.000 OA
BRANCH   9  12
ATOM     12  C   UNL     1       2.591   3.303  19.272  0.00  0.00    +0.000 A 
ATOM     13  C   UNL     1       3.490   2.738  20.176  0.00  0.00    +0.000 A 
ATOM     14  C   UNL     1       3.038   2.346  21.443  0.00  0.00    +0.000 A 
ATOM     15  C   UNL     1       1.698   2.516  21.793  0.00  0.00    +0.000 A 
ATOM     16  C   UNL     1       0.803   3.090  20.889  0.00  0.00    +0.000 A 
ATOM     17  C   UNL     1       1.248   3.491  19.625  0.00  0.00    +0.000 A 
ENDBRANCH   9  12
ENDBRANCH   1   9
BRANCH   1  18
ATOM     18  C   UNL     1       2.767   6.633  17.912  0.00  0.00    +0.000 C 
BRANCH  18  20
ATOM     19  O   UNL     1       2.405   6.737  20.277  0.00  0.00    +0.000 OA
ATOM     20  C   UNL     1       2.262   7.287  19.182  0.00  0.00    +0.000 C 
ATOM     21  N   UNL     1       1.688   8.523  19.152  0.00  0.00    +0.000 N 
ATOM     22  H   UNL     1       1.385   8.841  20.065  0.00  0.00    +0.000 HD
BRANCH  21  23
ATOM     23  C   UNL     1       1.460   9.422  18.044  0.00  0.00    +0.000 C 
BRANCH  23  24
ATOM     24  C   UNL     1       0.164  10.159  18.221  0.00  0.00    +0.000 A 
ATOM     25  C   UNL     1      -0.997   9.720  17.574  0.00  0.00    +0.000 A 
ATOM     26  C   UNL     1      -2.181  10.449  17.688  0.00  0.00    +0.000 A 
ATOM     27  C   UNL     1      -2.209  11.618  18.446  0.00  0.00    +0.000 A 
ATOM     28  C   UNL     1      -1.064  12.056  19.103  0.00  0.00    +0.000 A 
ATOM     29  C   UNL     1       0.121  11.330  18.992  0.00  0.00    +0.000 A 
ENDBRANCH  23  24
ENDBRANCH  21  23
ENDBRANCH  18  20
ENDBRANCH   1  18
TORSDOF 7
ENDMDL
MODEL 4
REMARK VINA RESULT:      -7.3      3.497      4.656
REMARK  Name = 
REMARK  7 active torsions:
REMARK  status: ('A' for Active; 'I' for Inactive)
REMARK    1  A    between atoms: C_2  and  C_3
REMARK    2  A    between atoms: C_3  and  N_4
REMARK    3  A    between atoms: N_4  and  C_5
REMARK    4  A    between atoms: N_4  and  S_12
REMARK    5  A    between atoms: S_12  and  C_15
REMARK    6  A    between atoms: N_21  and  C_22
REMARK    7  A    between atoms: C_22  and  C_23
REMARK                            x       y       z     vdW  Elec       q    Type
REMARK                         _______ _______ _______ _____ _____    ______ ____
ROOT
ATOM      1  N   UNL     1       3.806   5.347  19.308  0.00  0.00    +0.000 N 
ENDROOT
BRANCH   1   2
ATOM      2  C   UNL     1       2.756   4.414  19.635  0.00  0.00    +0.000 A 
ATOM      3  C   UNL     1       2.419   4.276  20.988  0.00  0.00    +0.000 A 
ATOM      4  C   UNL     1       1.462   3.339  21.390  0.00  0.00    +0.000 A 
ATOM      5  C   UNL     1       0.878   2.491  20.453  0.00  0.00    +0.000 A 
ATOM      6  C   UNL     1       1.191   2.632  19.104  0.00  0.00    +0.000 A 
ATOM      7  C   UNL     1       2.084   3.625  18.688  0.00  0.00    +0.000 A 
ATOM      8 CL   UNL     1       2.240   3.869  16.989  0.00  0.00    +0.000 Cl
ENDBRANCH   1   2
BRANCH   1   9
ATOM      9  S   UNL     1       5.357   4.713  19.054  0.00  0.00    +0.000 S 
ATOM     10  O   UNL     1       6.331   5.579  19.685  0.00  0.00    +0.000 OA
ATOM     11  O   UNL     1       5.333   3.296  19.349  0.00  0.00    +0.000 OA
BRANCH   9  12
ATOM     12  C   UNL     1       5.554   4.829  17.284  0.00  0.00    +0.000 A 
ATOM     13  C   UNL     1       5.901   3.705  16.535  0.00  0.00    +0.000 A 
ATOM     14  C   UNL     1       5.976   3.802  15.140  0.00  0.00    +0.000 A 
ATOM     15  C   UNL     1       5.711   5.017  14.507  0.00  0.00    +0.000 A 
ATOM     16  C   UNL     1       5.355   6.139  15.259  0.00  0.00    +0.000 A 
ATOM     17  C   UNL     1       5.271   6.047  16.652  0.00  0.00    +0.000 A 
ENDBRANCH   9  12
ENDBRANCH   1   9
BRANCH   1  18
ATOM     18  C   UNL     1       3.597   6.784  19.589  0.00  0.00    +0.000 C 
BRANCH  18  20
ATOM     19  O   UNL     1       2.223   7.464  17.750  0.00  0.00    +0.000 OA
ATOM     20  C   UNL     1       2.394   7.468  18.971  0.00  0.00    +0.000 C 
ATOM     21  N   UNL     1       1.445   8.056  19.753  0.00  0.00    +0.000 N 
ATOM     22  H   UNL     1       0.701   8.486  19.216  0.00  0.00    +0.000 HD
BRANCH  21  23
ATOM     23  C   UNL     1       1.345   8.150  21.192  0.00  0.00    +0.000 C 
BRANCH  23  24
ATOM     24  C   UNL     1       0.504   9.329  21.586  0.00  0.00    +0.000 A 
ATOM     25  C   UNL     1      -0.097   9.384  22.849  0.00  0.00    +0.000 A 
ATOM     26  C   UNL     1      -0.932  10.448  23.184  0.00  0.00    +0.000 A 
ATOM     27  C   UNL     1      -1.173  11.463  22.258  0.00  0.00    +0.000 A 
ATOM     28  C   UNL     1      -0.571  11.425  21.005  0.00  0.00    +0.000 A 
ATOM     29  C   UNL     1       0.265  10.362  20.666  0.00  0.00    +0.000 A 
ENDBRANCH  23  24
ENDBRANCH  21  23
ENDBRANCH  18  20
ENDBRANCH   1  18
TORSDOF 7
ENDMDL
MODEL 5
REMARK VINA RESULT:      -7.3      3.528      4.677
REMARK  Name = 
REMARK  7 active torsions:
REMARK  status: ('A' for Active; 'I' for Inactive)
REMARK    1  A    between atoms: C_2  and  C_3
REMARK    2  A    between atoms: C_3  and  N_4
REMARK    3  A    between atoms: N_4  and  C_5
REMARK    4  A    between atoms: N_4  and  S_12
REMARK    5  A    between atoms: S_12  and  C_15
REMARK    6  A    between atoms: N_21  and  C_22
REMARK    7  A    between atoms: C_22  and  C_23
REMARK                            x       y       z     vdW  Elec       q    Type
REMARK                         _______ _______ _______ _____ _____    ______ ____
ROOT
ATOM      1  N   UNL     1       3.755   5.375  19.368  0.00  0.00    +0.000 N 
ENDROOT
BRANCH   1   2
ATOM      2  C   UNL     1       2.725   4.454  19.780  0.00  0.00    +0.000 A 
ATOM      3  C   UNL     1       2.566   4.243  21.157  0.00  0.00    +0.000 A 
ATOM      4  C   UNL     1       1.637   3.312  21.631  0.00  0.00    +0.000 A 
ATOM      5  C   UNL     1       0.902   2.540  20.734  0.00  0.00    +0.000 A 
ATOM      6  C   UNL     1       1.038   2.754  19.365  0.00  0.00    +0.000 A 
ATOM      7  C   UNL     1       1.904   3.744  18.890  0.00  0.00    +0.000 A 
ATOM      8 CL   UNL     1       1.842   4.086  17.202  0.00  0.00    +0.000 Cl
ENDBRANCH   1   2
BRANCH   1   9
ATOM      9  S   UNL     1       5.287   4.729  19.041  0.00  0.00    +0.000 S 
ATOM     10  O   UNL     1       6.297   5.585  19.629  0.00  0.00    +0.000 OA
ATOM     11  O   UNL     1       5.265   3.311  19.333  0.00  0.00    +0.000 OA
BRANCH   9  12
ATOM     12  C   UNL     1       5.404   4.849  17.264  0.00  0.00    +0.000 A 
ATOM     13  C   UNL     1       5.231   6.077  16.625  0.00  0.00    +0.000 A 
ATOM     14  C   UNL     1       5.403   6.161  15.237  0.00  0.00    +0.000 A 
ATOM     15  C   UNL     1       5.738   5.024  14.502  0.00  0.00    +0.000 A 
ATOM     16  C   UNL     1       5.919   3.798  15.145  0.00  0.00    +0.000 A 
ATOM     17  C   UNL     1       5.757   3.708  16.532  0.00  0.00    +0.000 A 
ENDBRANCH   9  12
ENDBRANCH   1   9
BRANCH   1  18
ATOM     18  C   UNL     1       3.566   6.819  19.623  0.00  0.00    +0.000 C 
BRANCH  18  20
ATOM     19  O   UNL     1       2.243   7.509  17.750  0.00  0.00    +0.000 OA
ATOM     20  C   UNL     1       2.385   7.513  18.975  0.00  0.00    +0.000 C 
ATOM     21  N   UNL     1       1.421   8.110  19.733  0.00  0.00    +0.000 N 
ATOM     22  H   UNL     1       0.695   8.545  19.178  0.00  0.00    +0.000 HD
BRANCH  21  23
ATOM     23  C   UNL     1       1.287   8.206  21.169  0.00  0.00    +0.000 C 
BRANCH  23  24
ATOM     24  C   UNL     1       0.373   9.338  21.538  0.00  0.00    +0.000 A 
ATOM     25  C   UNL     1       0.096  10.357  20.620  0.00  0.00    +0.000 A 
ATOM     26  C   UNL     1      -0.698  11.441  20.993  0.00  0.00    +0.000 A 
ATOM     27  C   UNL     1      -1.220  11.511  22.284  0.00  0.00    +0.000 A 
ATOM     28  C   UNL     1      -0.963  10.496  23.200  0.00  0.00    +0.000 A 
ATOM     29  C   UNL     1      -0.168   9.411  22.831  0.00  0.00    +0.000 A 
ENDBRANCH  23  24
ENDBRANCH  21  23
ENDBRANCH  18  20
ENDBRANCH   1  18
TORSDOF 7
ENDMDL
MODEL 6
REMARK VINA RESULT:      -7.3      3.671      6.542
REMARK  Name = 
REMARK  7 active torsions:
REMARK  status: ('A' for Active; 'I' for Inactive)
REMARK    1  A    between atoms: C_2  and  C_3
REMARK    2  A    between atoms: C_3  and  N_4
REMARK    3  A    between atoms: N_4  and  C_5
REMARK    4  A    between atoms: N_4  and  S_12
REMARK    5  A    between atoms: S_12  and  C_15
REMARK    6  A    between atoms: N_21  and  C_22
REMARK    7  A    between atoms: C_22  and  C_23
REMARK                            x       y       z     vdW  Elec       q    Type
REMARK                         _______ _______ _______ _____ _____    ______ ____
ROOT
ATOM      1  N   UNL     1       3.716   5.378  17.992  0.00  0.00    +0.000 N 
ENDROOT
BRANCH   1   2
ATOM      2  C   UNL     1       5.136   5.624  18.038  0.00  0.00    +0.000 A 
ATOM      3  C   UNL     1       5.791   5.376  19.252  0.00  0.00    +0.000 A 
ATOM      4  C   UNL     1       7.153   5.658  19.396  0.00  0.00    +0.000 A 
ATOM      5  C   UNL     1       7.859   6.246  18.350  0.00  0.00    +0.000 A 
ATOM      6  C   UNL     1       7.224   6.479  17.133  0.00  0.00    +0.000 A 
ATOM      7  C   UNL     1       5.883   6.119  16.958  0.00  0.00    +0.000 A 
ATOM      8 CL   UNL     1       5.247   6.241  15.361  0.00  0.00    +0.000 Cl
ENDBRANCH   1   2
BRANCH   1   9
ATOM      9  S   UNL     1       3.214   3.791  17.674  0.00  0.00    +0.000 S 
ATOM     10  O   UNL     1       2.118   3.822  16.728  0.00  0.00    +0.000 OA
ATOM     11  O   UNL     1       4.383   2.977  17.417  0.00  0.00    +0.000 OA
BRANCH   9  12
ATOM     12  C   UNL     1       2.587   3.243  19.252  0.00  0.00    +0.000 A 
ATOM     13  C   UNL     1       3.456   2.752  20.227  0.00  0.00    +0.000 A 
ATOM     14  C   UNL     1       2.951   2.399  21.485  0.00  0.00    +0.000 A 
ATOM     15  C   UNL     1       1.589   2.534  21.757  0.00  0.00    +0.000 A 
ATOM     16  C   UNL     1       0.724   3.033  20.782  0.00  0.00    +0.000 A 
ATOM     17  C   UNL     1       1.222   3.395  19.526  0.00  0.00    +0.000 A 
ENDBRANCH   9  12
ENDBRANCH   1   9
BRANCH   1  18
ATOM     18  C   UNL     1       2.797   6.525  17.827  0.00  0.00    +0.000 C 
BRANCH  18  20
ATOM     19  O   UNL     1       2.310   6.659  20.168  0.00  0.00    +0.000 OA
ATOM     20  C   UNL     1       2.297   7.227  19.073  0.00  0.00    +0.000 C 
ATOM     21  N   UNL     1       1.872   8.522  19.024  0.00  0.00    +0.000 N 
ATOM     22  H   UNL     1       1.554   8.868  19.921  0.00  0.00    +0.000 HD
BRANCH  21  23
ATOM     23  C   UNL     1       1.815   9.446  17.914  0.00  0.00    +0.000 C 
BRANCH  23  24
ATOM     24  C   UNL     1       1.589  10.846  18.406  0.00  0.00    +0.000 A 
ATOM     25  C   UNL     1       2.429  11.888  17.996  0.00  0.00    +0.000 A 
ATOM     26  C   UNL     1       2.256  13.172  18.510  0.00  0.00    +0.000 A 
ATOM     27  C   UNL     1       1.243  13.422  19.435  0.00  0.00    +0.000 A 
ATOM     28  C   UNL     1       0.393  12.397  19.838  0.00  0.00    +0.000 A 
ATOM     29  C   UNL     1       0.564  11.111  19.327  0.00  0.00    +0.000 A 
ENDBRANCH  23  24
ENDBRANCH  21  23
ENDBRANCH  18  20
ENDBRANCH   1  18
TORSDOF 7
ENDMDL
MODEL 7
REMARK VINA RESULT:      -7.2      3.765      5.311
REMARK  Name = 
REMARK  7 active torsions:
REMARK  status: ('A' for Active; 'I' for Inactive)
REMARK    1  A    between atoms: C_2  and  C_3
REMARK    2  A    between atoms: C_3  and  N_4
REMARK    3  A    between atoms: N_4  and  C_5
REMARK    4  A    between atoms: N_4  and  S_12
REMARK    5  A    between atoms: S_12  and  C_15
REMARK    6  A    between atoms: N_21  and  C_22
REMARK    7  A    between atoms: C_22  and  C_23
REMARK                            x       y       z     vdW  Elec       q    Type
REMARK                         _______ _______ _______ _____ _____    ______ ____
ROOT
ATOM      1  N   UNL     1       3.345   5.533  18.750  0.00  0.00    +0.000 N 
ENDROOT
BRANCH   1   2
ATOM      2  C   UNL     1       2.508   4.618  19.487  0.00  0.00    +0.000 A 
ATOM      3  C   UNL     1       2.768   4.472  20.857  0.00  0.00    +0.000 A 
ATOM      4  C   UNL     1       2.046   3.551  21.623  0.00  0.00    +0.000 A 
ATOM      5  C   UNL     1       1.103   2.725  21.017  0.00  0.00    +0.000 A 
ATOM      6  C   UNL     1       0.824   2.875  19.661  0.00  0.00    +0.000 A 
ATOM      7  C   UNL     1       1.483   3.854  18.909  0.00  0.00    +0.000 A 
ATOM      8 CL   UNL     1       0.917   4.112  17.302  0.00  0.00    +0.000 Cl
ENDBRANCH   1   2
BRANCH   1   9
ATOM      9  S   UNL     1       4.510   4.861  17.719  0.00  0.00    +0.000 S 
ATOM     10  O   UNL     1       4.732   3.479  18.093  0.00  0.00    +0.000 OA
ATOM     11  O   UNL     1       4.177   5.208  16.354  0.00  0.00    +0.000 OA
BRANCH   9  12
ATOM     12  C   UNL     1       5.978   5.797  18.106  0.00  0.00    +0.000 A 
ATOM     13  C   UNL     1       6.778   5.444  19.193  0.00  0.00    +0.000 A 
ATOM     14  C   UNL     1       7.966   6.146  19.432  0.00  0.00    +0.000 A 
ATOM     15  C   UNL     1       8.342   7.194  18.591  0.00  0.00    +0.000 A 
ATOM     16  C   UNL     1       7.545   7.539  17.498  0.00  0.00    +0.000 A 
ATOM     17  C   UNL     1       6.361   6.838  17.249  0.00  0.00    +0.000 A 
ENDBRANCH   9  12
ENDBRANCH   1   9
BRANCH   1  18
ATOM     18  C   UNL     1       3.432   6.940  19.198  0.00  0.00    +0.000 C 
BRANCH  18  20
ATOM     19  O   UNL     1       2.275   8.172  17.501  0.00  0.00    +0.000 OA
ATOM     20  C   UNL     1       2.383   7.915  18.702  0.00  0.00    +0.000 C 
ATOM     21  N   UNL     1       1.498   8.490  19.566  0.00  0.00    +0.000 N 
ATOM     22  H   UNL     1       0.859   9.129  19.110  0.00  0.00    +0.000 HD
BRANCH  21  23
ATOM     23  C   UNL     1       1.341   8.323  20.993  0.00  0.00    +0.000 C 
BRANCH  23  24
ATOM     24  C   UNL     1       0.587   9.481  21.580  0.00  0.00    +0.000 A 
ATOM     25  C   UNL     1      -0.235   9.301  22.698  0.00  0.00    +0.000 A 
ATOM     26  C   UNL     1      -0.986  10.365  23.195  0.00  0.00    +0.000 A 
ATOM     27  C   UNL     1      -0.919  11.613  22.579  0.00  0.00    +0.000 A 
ATOM     28  C   UNL     1      -0.094  11.807  21.476  0.00  0.00    +0.000 A 
ATOM     29  C   UNL     1       0.658  10.745  20.975  0.00  0.00    +0.000 A 
ENDBRANCH  23  24
ENDBRANCH  21  23
ENDBRANCH  18  20
ENDBRANCH   1  18
TORSDOF 7
ENDMDL
MODEL 8
REMARK VINA RESULT:      -7.2      2.129      7.073
REMARK  Name = 
REMARK  7 active torsions:
REMARK  status: ('A' for Active; 'I' for Inactive)
REMARK    1  A    between atoms: C_2  and  C_3
REMARK    2  A    between atoms: C_3  and  N_4
REMARK    3  A    between atoms: N_4  and  C_5
REMARK    4  A    between atoms: N_4  and  S_12
REMARK    5  A    between atoms: S_12  and  C_15
REMARK    6  A    between atoms: N_21  and  C_22
REMARK    7  A    between atoms: C_22  and  C_23
REMARK                            x       y       z     vdW  Elec       q    Type
REMARK                         _______ _______ _______ _____ _____    ______ ____
ROOT
ATOM      1  N   UNL     1       4.422   4.725  18.179  0.00  0.00    +0.000 N 
ENDROOT
BRANCH   1   2
ATOM      2  C   UNL     1       3.738   5.986  18.334  0.00  0.00    +0.000 A 
ATOM      3  C   UNL     1       3.031   6.190  19.527  0.00  0.00    +0.000 A 
ATOM      4  C   UNL     1       2.285   7.356  19.720  0.00  0.00    +0.000 A 
ATOM      5  C   UNL     1       2.189   8.301  18.701  0.00  0.00    +0.000 A 
ATOM      6  C   UNL     1       2.903   8.118  17.520  0.00  0.00    +0.000 A 
ATOM      7  C   UNL     1       3.718   6.993  17.357  0.00  0.00    +0.000 A 
ATOM      8 CL   UNL     1       4.729   6.961  15.962  0.00  0.00    +0.000 Cl
ENDBRANCH   1   2
BRANCH   1   9
ATOM      9  S   UNL     1       3.476   3.373  17.792  0.00  0.00    +0.000 S 
ATOM     10  O   UNL     1       2.521   3.741  16.767  0.00  0.00    +0.000 OA
ATOM     11  O   UNL     1       4.350   2.234  17.607  0.00  0.00    +0.000 OA
BRANCH   9  12
ATOM     12  C   UNL     1       2.590   3.053  19.307  0.00  0.00    +0.000 A 
ATOM     13  C   UNL     1       3.276   2.684  20.464  0.00  0.00    +0.000 A 
ATOM     14  C   UNL     1       2.567   2.513  21.661  0.00  0.00    +0.000 A 
ATOM     15  C   UNL     1       1.185   2.706  21.690  0.00  0.00    +0.000 A 
ATOM     16  C   UNL     1       0.503   3.084  20.533  0.00  0.00    +0.000 A 
ATOM     17  C   UNL     1       1.205   3.265  19.337  0.00  0.00    +0.000 A 
ENDBRANCH   9  12
ENDBRANCH   1   9
BRANCH   1  18
ATOM     18  C   UNL     1       5.785   4.579  18.732  0.00  0.00    +0.000 C 
BRANCH  18  20
ATOM     19  O   UNL     1       7.792   5.860  18.464  0.00  0.00    +0.000 OA
ATOM     20  C   UNL     1       6.946   5.137  17.932  0.00  0.00    +0.000 C 
ATOM     21  N   UNL     1       7.113   4.808  16.619  0.00  0.00    +0.000 N 
ATOM     22  H   UNL     1       7.919   5.255  16.199  0.00  0.00    +0.000 HD
BRANCH  21  23
ATOM     23  C   UNL     1       6.335   3.938  15.767  0.00  0.00    +0.000 C 
BRANCH  23  24
ATOM     24  C   UNL     1       6.650   4.197  14.322  0.00  0.00    +0.000 A 
ATOM     25  C   UNL     1       6.124   3.372  13.321  0.00  0.00    +0.000 A 
ATOM     26  C   UNL     1       6.476   3.576  11.987  0.00  0.00    +0.000 A 
ATOM     27  C   UNL     1       7.355   4.603  11.647  0.00  0.00    +0.000 A 
ATOM     28  C   UNL     1       7.873   5.437  12.633  0.00  0.00    +0.000 A 
ATOM     29  C   UNL     1       7.524   5.236  13.968  0.00  0.00    +0.000 A 
ENDBRANCH  23  24
ENDBRANCH  21  23
ENDBRANCH  18  20
ENDBRANCH   1  18
TORSDOF 7
ENDMDL
MODEL 9
REMARK VINA RESULT:      -7.2      3.772      6.554
REMARK  Name = 
REMARK  7 active torsions:
REMARK  status: ('A' for Active; 'I' for Inactive)
REMARK    1  A    between atoms: C_2  and  C_3
REMARK    2  A    between atoms: C_3  and  N_4
REMARK    3  A    between atoms: N_4  and  C_5
REMARK    4  A    between atoms: N_4  and  S_12
REMARK    5  A    between atoms: S_12  and  C_15
REMARK    6  A    between atoms: N_21  and  C_22
REMARK    7  A    between atoms: C_22  and  C_23
REMARK                            x       y       z     vdW  Elec       q    Type
REMARK                         _______ _______ _______ _____ _____    ______ ____
ROOT
ATOM      1  N   UNL     1       3.732   5.482  18.066  0.00  0.00    +0.000 N 
ENDROOT
BRANCH   1   2
ATOM      2  C   UNL     1       5.159   5.693  18.072  0.00  0.00    +0.000 A 
ATOM      3  C   UNL     1       5.842   5.425  19.267  0.00  0.00    +0.000 A 
ATOM      4  C   UNL     1       7.214   5.673  19.372  0.00  0.00    +0.000 A 
ATOM      5  C   UNL     1       7.904   6.248  18.307  0.00  0.00    +0.000 A 
ATOM      6  C   UNL     1       7.239   6.500  17.110  0.00  0.00    +0.000 A 
ATOM      7  C   UNL     1       5.886   6.174  16.973  0.00  0.00    +0.000 A 
ATOM      8 CL   UNL     1       5.208   6.317  15.395  0.00  0.00    +0.000 Cl
ENDBRANCH   1   2
BRANCH   1   9
ATOM      9  S   UNL     1       3.182   3.908  17.764  0.00  0.00    +0.000 S 
ATOM     10  O   UNL     1       2.071   3.965  16.837  0.00  0.00    +0.000 OA
ATOM     11  O   UNL     1       4.324   3.062  17.491  0.00  0.00    +0.000 OA
BRANCH   9  12
ATOM     12  C   UNL     1       2.569   3.384  19.356  0.00  0.00    +0.000 A 
ATOM     13  C   UNL     1       1.207   3.455  19.648  0.00  0.00    +0.000 A 
ATOM     14  C   UNL     1       0.739   2.967  20.875  0.00  0.00    +0.000 A 
ATOM     15  C   UNL     1       1.631   2.419  21.798  0.00  0.00    +0.000 A 
ATOM     16  C   UNL     1       2.992   2.341  21.499  0.00  0.00    +0.000 A 
ATOM     17  C   UNL     1       3.466   2.819  20.273  0.00  0.00    +0.000 A 
ENDBRANCH   9  12
ENDBRANCH   1   9
BRANCH   1  18
ATOM     18  C   UNL     1       2.838   6.651  17.926  0.00  0.00    +0.000 C 
BRANCH  18  20
ATOM     19  O   UNL     1       2.280   6.660  20.255  0.00  0.00    +0.000 OA
ATOM     20  C   UNL     1       2.269   7.274  19.186  0.00  0.00    +0.000 C 
ATOM     21  N   UNL     1       1.781   8.547  19.179  0.00  0.00    +0.000 N 
ATOM     22  H   UNL     1       1.421   8.837  20.080  0.00  0.00    +0.000 HD
BRANCH  21  23
ATOM     23  C   UNL     1       1.708   9.515  18.108  0.00  0.00    +0.000 C 
BRANCH  23  24
ATOM     24  C   UNL     1       0.718  10.594  18.438  0.00  0.00    +0.000 A 
ATOM     25  C   UNL     1      -0.653  10.316  18.466  0.00  0.00    +0.000 A 
ATOM     26  C   UNL     1      -1.571  11.338  18.705  0.00  0.00    +0.000 A 
ATOM     27  C   UNL     1      -1.123  12.641  18.918  0.00  0.00    +0.000 A 
ATOM     28  C   UNL     1       0.238  12.925  18.907  0.00  0.00    +0.000 A 
ATOM     29  C   UNL     1       1.159  11.906  18.667  0.00  0.00    +0.000 A 
ENDBRANCH  23  24
ENDBRANCH  21  23
ENDBRANCH  18  20
ENDBRANCH   1  18
TORSDOF 7
ENDMDL
