MODEL 1
REMARK VINA RESULT:      -9.1      0.000      0.000
REMARK  Name = 
REMARK  7 active torsions:
REMARK  status: ('A' for Active; 'I' for Inactive)
REMARK    1  A    between atoms: C_2  and  C_18
REMARK    2  A    between atoms: N_3  and  C_4
REMARK    3  A    between atoms: C_6  and  C_7
REMARK    4  A    between atoms: C_12  and  C_13
REMARK    5  A    between atoms: C_21  and  S_22
REMARK    6  A    between atoms: S_22  and  C_25
REMARK    7  A    between atoms: C_28  and  O_29
REMARK                            x       y       z     vdW  Elec       q    Type
REMARK                         _______ _______ _______ _____ _____    ______ ____
ROOT
ATOM      1  O   UNL     1       2.294   6.767  20.461  0.00  0.00    +0.000 OA
ATOM      2  C   UNL     1       2.180   7.396  19.411  0.00  0.00    +0.000 C 
ATOM      3  N   UNL     1       2.726   7.045  18.187  0.00  0.00    +0.000 N 
ATOM      4  H   UNL     1       2.632   7.685  17.411  0.00  0.00    +0.000 HD
ENDROOT
BRANCH   3   5
ATOM      5  C   UNL     1       3.465   5.866  17.933  0.00  0.00    +0.000 A 
ATOM      6  C   UNL     1       2.933   4.589  18.124  0.00  0.00    +0.000 A 
ATOM      7  C   UNL     1       3.696   3.436  17.904  0.00  0.00    +0.000 A 
ATOM      8  C   UNL     1       5.021   3.574  17.469  0.00  0.00    +0.000 A 
ATOM      9  C   UNL     1       5.578   4.846  17.256  0.00  0.00    +0.000 A 
ATOM     10  C   UNL     1       4.782   5.987  17.473  0.00  0.00    +0.000 A 
BRANCH   7  11
ATOM     11  C   UNL     1       3.100   2.071  18.152  0.00  0.00    +0.000 C 
ATOM     12  F   UNL     1       2.508   1.938  19.370  0.00  0.00    +0.000 F 
ATOM     13  F   UNL     1       2.145   1.752  17.236  0.00  0.00    +0.000 F 
ATOM     14  F   UNL     1       4.034   1.082  18.079  0.00  0.00    +0.000 F 
ENDBRANCH   7  11
BRANCH   9  15
ATOM     15  C   UNL     1       7.021   4.998  16.836  0.00  0.00    +0.000 C 
ATOM     16  F   UNL     1       7.432   6.293  16.762  0.00  0.00    +0.000 F 
ATOM     17  F   UNL     1       7.880   4.379  17.691  0.00  0.00    +0.000 F 
ATOM     18  F   UNL     1       7.259   4.459  15.609  0.00  0.00    +0.000 F 
ENDBRANCH   9  15
ENDBRANCH   3   5
BRANCH   2  19
ATOM     19  C   UNL     1       1.397   8.661  19.471  0.00  0.00    +0.000 A 
ATOM     20  C   UNL     1       0.703   9.079  20.615  0.00  0.00    +0.000 A 
ATOM     21  C   UNL     1      -0.051  10.255  20.579  0.00  0.00    +0.000 A 
ATOM     22  C   UNL     1      -0.122  11.002  19.396  0.00  0.00    +0.000 A 
ATOM     23  C   UNL     1       0.575  10.603  18.257  0.00  0.00    +0.000 A 
ATOM     24  C   UNL     1       1.324   9.428  18.295  0.00  0.00    +0.000 A 
BRANCH  22  25
ATOM     25  S   UNL     1      -1.067  12.509  19.370  0.00  0.00    +0.000 S 
ATOM     26  O   UNL     1      -1.095  12.997  20.736  0.00  0.00    +0.000 OA
ATOM     27  O   UNL     1      -0.540  13.341  18.303  0.00  0.00    +0.000 OA
BRANCH  25  28
ATOM     28  C   UNL     1      -2.732  12.081  18.912  0.00  0.00    +0.000 A 
ATOM     29  C   UNL     1      -3.798  12.445  19.742  0.00  0.00    +0.000 A 
ATOM     30  C   UNL     1      -5.106  12.142  19.360  0.00  0.00    +0.000 A 
ATOM     31  C   UNL     1      -5.332  11.480  18.155  0.00  0.00    +0.000 A 
ATOM     32  C   UNL     1      -4.273  11.113  17.328  0.00  0.00    +0.000 A 
ATOM     33  C   UNL     1      -2.963  11.416  17.703  0.00  0.00    +0.000 A 
BRANCH  31  34
ATOM     34  O   UNL     1      -6.593  11.175  17.740  0.00  0.00    +0.000 OA
ATOM     35  H   UNL     1      -7.233  11.605  18.332  0.00  0.00    +0.000 HD
ENDBRANCH  31  34
ENDBRANCH  25  28
ENDBRANCH  22  25
ENDBRANCH   2  19
TORSDOF 7
ENDMDL
MODEL 2
REMARK VINA RESULT:      -9.1      0.073      1.258
REMARK  Name = 
REMARK  7 active torsions:
REMARK  status: ('A' for Active; 'I' for Inactive)
REMARK    1  A    between atoms: C_2  and  C_18
REMARK    2  A    between atoms: N_3  and  C_4
REMARK    3  A    between atoms: C_6  and  C_7
REMARK    4  A    between atoms: C_12  and  C_13
REMARK    5  A    between atoms: C_21  and  S_22
REMARK    6  A    between atoms: S_22  and  C_25
REMARK    7  A    between atoms: C_28  and  O_29
REMARK                            x       y       z     vdW  Elec       q    Type
REMARK                         _______ _______ _______ _____ _____    ______ ____
ROOT
ATOM      1  O   UNL     1       2.280   6.708  20.439  0.00  0.00    +0.000 OA
ATOM      2  C   UNL     1       2.182   7.360  19.402  0.00  0.00    +0.000 C 
ATOM      3  N   UNL     1       2.742   7.033  18.178  0.00  0.00    +0.000 N 
ATOM      4  H   UNL     1       2.661   7.689  17.414  0.00  0.00    +0.000 HD
ENDROOT
BRANCH   3   5
ATOM      5  C   UNL     1       3.479   5.856  17.908  0.00  0.00    +0.000 A 
ATOM      6  C   UNL     1       2.946   4.577  18.086  0.00  0.00    +0.000 A 
ATOM      7  C   UNL     1       3.706   3.426  17.851  0.00  0.00    +0.000 A 
ATOM      8  C   UNL     1       5.030   3.567  17.412  0.00  0.00    +0.000 A 
ATOM      9  C   UNL     1       5.588   4.840  17.213  0.00  0.00    +0.000 A 
ATOM     10  C   UNL     1       4.794   5.980  17.445  0.00  0.00    +0.000 A 
BRANCH   7  11
ATOM     11  C   UNL     1       3.109   2.059  18.085  0.00  0.00    +0.000 C 
ATOM     12  F   UNL     1       4.017   1.044  18.047  0.00  0.00    +0.000 F 
ATOM     13  F   UNL     1       2.496   1.965  19.296  0.00  0.00    +0.000 F 
ATOM     14  F   UNL     1       2.161   1.747  17.159  0.00  0.00    +0.000 F 
ENDBRANCH   7  11
BRANCH   9  15
ATOM     15  C   UNL     1       7.030   4.995  16.789  0.00  0.00    +0.000 C 
ATOM     16  F   UNL     1       7.909   4.359  17.612  0.00  0.00    +0.000 F 
ATOM     17  F   UNL     1       7.262   4.505  15.541  0.00  0.00    +0.000 F 
ATOM     18  F   UNL     1       7.421   6.298  16.760  0.00  0.00    +0.000 F 
ENDBRANCH   9  15
ENDBRANCH   3   5
BRANCH   2  19
ATOM     19  C   UNL     1       1.404   8.627  19.479  0.00  0.00    +0.000 A 
ATOM     20  C   UNL     1       0.669   9.007  20.610  0.00  0.00    +0.000 A 
ATOM     21  C   UNL     1      -0.076  10.190  20.590  0.00  0.00    +0.000 A 
ATOM     22  C   UNL     1      -0.097  10.981  19.434  0.00  0.00    +0.000 A 
ATOM     23  C   UNL     1       0.642  10.620  18.308  0.00  0.00    +0.000 A 
ATOM     24  C   UNL     1       1.383   9.438  18.331  0.00  0.00    +0.000 A 
BRANCH  22  25
ATOM     25  S   UNL     1      -1.031  12.494  19.428  0.00  0.00    +0.000 S 
ATOM     26  O   UNL     1      -1.103  12.935  20.809  0.00  0.00    +0.000 OA
ATOM     27  O   UNL     1      -0.464  13.359  18.409  0.00  0.00    +0.000 OA
BRANCH  25  28
ATOM     28  C   UNL     1      -2.683  12.094  18.899  0.00  0.00    +0.000 A 
ATOM     29  C   UNL     1      -2.880  11.384  17.710  0.00  0.00    +0.000 A 
ATOM     30  C   UNL     1      -4.174  11.038  17.319  0.00  0.00    +0.000 A 
ATOM     31  C   UNL     1      -5.253  11.405  18.120  0.00  0.00    +0.000 A 
ATOM     32  C   UNL     1      -5.060  12.115  19.303  0.00  0.00    +0.000 A 
ATOM     33  C   UNL     1      -3.769  12.461  19.701  0.00  0.00    +0.000 A 
BRANCH  31  34
ATOM     34  O   UNL     1      -6.532  11.078  17.781  0.00  0.00    +0.000 OA
ATOM     35  H   UNL     1      -6.549  10.160  17.464  0.00  0.00    +0.000 HD
ENDBRANCH  31  34
ENDBRANCH  25  28
ENDBRANCH  22  25
ENDBRANCH   2  19
TORSDOF 7
ENDMDL
MODEL 3
REMARK VINA RESULT:      -9.1      0.132      3.036
REMARK  Name = 
REMARK  7 active torsions:
REMARK  status: ('A' for Active; 'I' for Inactive)
REMARK    1  A    between atoms: C_2  and  C_18
REMARK    2  A    between atoms: N_3  and  C_4
REMARK    3  A    between atoms: C_6  and  C_7
REMARK    4  A    between atoms: C_12  and  C_13
REMARK    5  A    between atoms: C_21  and  S_22
REMARK    6  A    between atoms: S_22  and  C_25
REMARK    7  A    between atoms: C_28  and  O_29
REMARK                            x       y       z     vdW  Elec       q    Type
REMARK                         _______ _______ _______ _____ _____    ______ ____
ROOT
ATOM      1  O   UNL     1       2.199   6.715  20.503  0.00  0.00    +0.000 OA
ATOM      2  C   UNL     1       2.175   7.396  19.480  0.00  0.00    +0.000 C 
ATOM      3  N   UNL     1       2.832   7.109  18.295  0.00  0.00    +0.000 N 
ATOM      4  H   UNL     1       2.804   7.788  17.546  0.00  0.00    +0.000 HD
ENDROOT
BRANCH   3   5
ATOM      5  C   UNL     1       3.600   5.947  18.050  0.00  0.00    +0.000 A 
ATOM      6  C   UNL     1       4.927   6.000  17.616  0.00  0.00    +0.000 A 
ATOM      7  C   UNL     1       5.656   4.837  17.341  0.00  0.00    +0.000 A 
ATOM      8  C   UNL     1       5.037   3.592  17.521  0.00  0.00    +0.000 A 
ATOM      9  C   UNL     1       3.708   3.509  17.968  0.00  0.00    +0.000 A 
ATOM     10  C   UNL     1       3.005   4.696  18.249  0.00  0.00    +0.000 A 
BRANCH   7  11
ATOM     11  C   UNL     1       7.078   4.930  16.842  0.00  0.00    +0.000 C 
ATOM     12  F   UNL     1       7.986   4.298  17.636  0.00  0.00    +0.000 F 
ATOM     13  F   UNL     1       7.226   4.388  15.603  0.00  0.00    +0.000 F 
ATOM     14  F   UNL     1       7.503   6.220  16.741  0.00  0.00    +0.000 F 
ENDBRANCH   7  11
BRANCH   9  15
ATOM     15  C   UNL     1       3.024   2.170  18.114  0.00  0.00    +0.000 C 
ATOM     16  F   UNL     1       3.890   1.125  18.215  0.00  0.00    +0.000 F 
ATOM     17  F   UNL     1       2.230   2.108  19.218  0.00  0.00    +0.000 F 
ATOM     18  F   UNL     1       2.217   1.886  17.055  0.00  0.00    +0.000 F 
ENDBRANCH   9  15
ENDBRANCH   3   5
BRANCH   2  19
ATOM     19  C   UNL     1       1.380   8.654  19.532  0.00  0.00    +0.000 A 
ATOM     20  C   UNL     1       0.656   9.057  20.662  0.00  0.00    +0.000 A 
ATOM     21  C   UNL     1      -0.106  10.227  20.619  0.00  0.00    +0.000 A 
ATOM     22  C   UNL     1      -0.156  10.984  19.441  0.00  0.00    +0.000 A 
ATOM     23  C   UNL     1       0.571  10.600  18.315  0.00  0.00    +0.000 A 
ATOM     24  C   UNL     1       1.329   9.430  18.361  0.00  0.00    +0.000 A 
BRANCH  22  25
ATOM     25  S   UNL     1      -1.113  12.483  19.405  0.00  0.00    +0.000 S 
ATOM     26  O   UNL     1      -1.147  12.978  20.769  0.00  0.00    +0.000 OA
ATOM     27  O   UNL     1      -0.591  13.313  18.334  0.00  0.00    +0.000 OA
BRANCH  25  28
ATOM     28  C   UNL     1      -2.774  12.039  18.947  0.00  0.00    +0.000 A 
ATOM     29  C   UNL     1      -3.849  12.458  19.738  0.00  0.00    +0.000 A 
ATOM     30  C   UNL     1      -5.153  12.141  19.354  0.00  0.00    +0.000 A 
ATOM     31  C   UNL     1      -5.366  11.411  18.186  0.00  0.00    +0.000 A 
ATOM     32  C   UNL     1      -4.297  10.990  17.399  0.00  0.00    +0.000 A 
ATOM     33  C   UNL     1      -2.991  11.306  17.775  0.00  0.00    +0.000 A 
BRANCH  31  34
ATOM     34  O   UNL     1      -6.623  11.090  17.770  0.00  0.00    +0.000 OA
ATOM     35  H   UNL     1      -6.715  11.327  16.832  0.00  0.00    +0.000 HD
ENDBRANCH  31  34
ENDBRANCH  25  28
ENDBRANCH  22  25
ENDBRANCH   2  19
TORSDOF 7
ENDMDL
MODEL 4
REMARK VINA RESULT:      -9.0      0.196      3.168
REMARK  Name = 
REMARK  7 active torsions:
REMARK  status: ('A' for Active; 'I' for Inactive)
REMARK    1  A    between atoms: C_2  and  C_18
REMARK    2  A    between atoms: N_3  and  C_4
REMARK    3  A    between atoms: C_6  and  C_7
REMARK    4  A    between atoms: C_12  and  C_13
REMARK    5  A    between atoms: C_21  and  S_22
REMARK    6  A    between atoms: S_22  and  C_25
REMARK    7  A    between atoms: C_28  and  O_29
REMARK                            x       y       z     vdW  Elec       q    Type
REMARK                         _______ _______ _______ _____ _____    ______ ____
ROOT
ATOM      1  O   UNL     1       2.308   6.904  20.446  0.00  0.00    +0.000 OA
ATOM      2  C   UNL     1       2.186   7.495  19.375  0.00  0.00    +0.000 C 
ATOM      3  N   UNL     1       2.764   7.127  18.172  0.00  0.00    +0.000 N 
ATOM      4  H   UNL     1       2.658   7.738  17.374  0.00  0.00    +0.000 HD
ENDROOT
BRANCH   3   5
ATOM      5  C   UNL     1       3.550   5.969  17.966  0.00  0.00    +0.000 A 
ATOM      6  C   UNL     1       4.876   6.028  17.531  0.00  0.00    +0.000 A 
ATOM      7  C   UNL     1       5.623   4.868  17.295  0.00  0.00    +0.000 A 
ATOM      8  C   UNL     1       5.023   3.621  17.516  0.00  0.00    +0.000 A 
ATOM      9  C   UNL     1       3.695   3.532  17.966  0.00  0.00    +0.000 A 
ATOM     10  C   UNL     1       2.973   4.717  18.207  0.00  0.00    +0.000 A 
BRANCH   7  11
ATOM     11  C   UNL     1       7.044   4.966  16.794  0.00  0.00    +0.000 C 
ATOM     12  F   UNL     1       7.962   4.389  17.616  0.00  0.00    +0.000 F 
ATOM     13  F   UNL     1       7.204   4.371  15.581  0.00  0.00    +0.000 F 
ATOM     14  F   UNL     1       7.443   6.258  16.634  0.00  0.00    +0.000 F 
ENDBRANCH   7  11
BRANCH   9  15
ATOM     15  C   UNL     1       3.032   2.188  18.156  0.00  0.00    +0.000 C 
ATOM     16  F   UNL     1       2.177   1.857  17.149  0.00  0.00    +0.000 F 
ATOM     17  F   UNL     1       3.930   1.170  18.235  0.00  0.00    +0.000 F 
ATOM     18  F   UNL     1       2.299   2.133  19.302  0.00  0.00    +0.000 F 
ENDBRANCH   9  15
ENDBRANCH   3   5
BRANCH   2  19
ATOM     19  C   UNL     1       1.356   8.731  19.384  0.00  0.00    +0.000 A 
ATOM     20  C   UNL     1       1.303   9.628  18.308  0.00  0.00    +0.000 A 
ATOM     21  C   UNL     1       0.538  10.792  18.409  0.00  0.00    +0.000 A 
ATOM     22  C   UNL     1      -0.161  11.066  19.592  0.00  0.00    +0.000 A 
ATOM     23  C   UNL     1      -0.128  10.175  20.664  0.00  0.00    +0.000 A 
ATOM     24  C   UNL     1       0.639   9.015  20.560  0.00  0.00    +0.000 A 
BRANCH  22  25
ATOM     25  S   UNL     1      -1.149  12.541  19.701  0.00  0.00    +0.000 S 
ATOM     26  O   UNL     1      -1.238  12.869  21.113  0.00  0.00    +0.000 OA
ATOM     27  O   UNL     1      -0.612  13.503  18.756  0.00  0.00    +0.000 OA
BRANCH  25  28
ATOM     28  C   UNL     1      -2.784  12.125  19.137  0.00  0.00    +0.000 A 
ATOM     29  C   UNL     1      -3.901  12.546  19.868  0.00  0.00    +0.000 A 
ATOM     30  C   UNL     1      -5.183  12.251  19.401  0.00  0.00    +0.000 A 
ATOM     31  C   UNL     1      -5.332  11.541  18.211  0.00  0.00    +0.000 A 
ATOM     32  C   UNL     1      -4.223  11.118  17.484  0.00  0.00    +0.000 A 
ATOM     33  C   UNL     1      -2.939  11.412  17.943  0.00  0.00    +0.000 A 
BRANCH  31  34
ATOM     34  O   UNL     1      -6.566  11.242  17.715  0.00  0.00    +0.000 OA
ATOM     35  H   UNL     1      -7.160  11.995  17.872  0.00  0.00    +0.000 HD
ENDBRANCH  31  34
ENDBRANCH  25  28
ENDBRANCH  22  25
ENDBRANCH   2  19
TORSDOF 7
ENDMDL
MODEL 5
REMARK VINA RESULT:      -9.0      0.220      3.298
REMARK  Name = 
REMARK  7 active torsions:
REMARK  status: ('A' for Active; 'I' for Inactive)
REMARK    1  A    between atoms: C_2  and  C_18
REMARK    2  A    between atoms: N_3  and  C_4
REMARK    3  A    between atoms: C_6  and  C_7
REMARK    4  A    between atoms: C_12  and  C_13
REMARK    5  A    between atoms: C_21  and  S_22
REMARK    6  A    between atoms: S_22  and  C_25
REMARK    7  A    between atoms: C_28  and  O_29
REMARK                            x       y       z     vdW  Elec       q    Type
REMARK                         _______ _______ _______ _____ _____    ______ ____
ROOT
ATOM      1  O   UNL     1       2.298   6.866  20.459  0.00  0.00    +0.000 OA
ATOM      2  C   UNL     1       2.198   7.479  19.398  0.00  0.00    +0.000 C 
ATOM      3  N   UNL     1       2.796   7.132  18.198  0.00  0.00    +0.000 N 
ATOM      4  H   UNL     1       2.707   7.759  17.411  0.00  0.00    +0.000 HD
ENDROOT
BRANCH   3   5
ATOM      5  C   UNL     1       3.580   5.975  17.983  0.00  0.00    +0.000 A 
ATOM      6  C   UNL     1       4.907   6.035  17.548  0.00  0.00    +0.000 A 
ATOM      7  C   UNL     1       5.652   4.876  17.303  0.00  0.00    +0.000 A 
ATOM      8  C   UNL     1       5.051   3.628  17.515  0.00  0.00    +0.000 A 
ATOM      9  C   UNL     1       3.723   3.538  17.964  0.00  0.00    +0.000 A 
ATOM     10  C   UNL     1       3.003   4.721  18.214  0.00  0.00    +0.000 A 
BRANCH   7  11
ATOM     11  C   UNL     1       7.073   4.977  16.802  0.00  0.00    +0.000 C 
ATOM     12  F   UNL     1       7.259   4.459  15.557  0.00  0.00    +0.000 F 
ATOM     13  F   UNL     1       7.506   6.265  16.739  0.00  0.00    +0.000 F 
ATOM     14  F   UNL     1       7.951   4.325  17.614  0.00  0.00    +0.000 F 
ENDBRANCH   7  11
BRANCH   9  15
ATOM     15  C   UNL     1       3.058   2.193  18.144  0.00  0.00    +0.000 C 
ATOM     16  F   UNL     1       2.344   2.090  19.298  0.00  0.00    +0.000 F 
ATOM     17  F   UNL     1       2.188   1.903  17.138  0.00  0.00    +0.000 F 
ATOM     18  F   UNL     1       3.958   1.172  18.169  0.00  0.00    +0.000 F 
ENDBRANCH   9  15
ENDBRANCH   3   5
BRANCH   2  19
ATOM     19  C   UNL     1       1.373   8.718  19.417  0.00  0.00    +0.000 A 
ATOM     20  C   UNL     1       1.382   9.661  18.380  0.00  0.00    +0.000 A 
ATOM     21  C   UNL     1       0.617  10.825  18.492  0.00  0.00    +0.000 A 
ATOM     22  C   UNL     1      -0.144  11.051  19.646  0.00  0.00    +0.000 A 
ATOM     23  C   UNL     1      -0.172  10.113  20.678  0.00  0.00    +0.000 A 
ATOM     24  C   UNL     1       0.595   8.954  20.565  0.00  0.00    +0.000 A 
BRANCH  22  25
ATOM     25  S   UNL     1      -1.131  12.526  19.768  0.00  0.00    +0.000 S 
ATOM     26  O   UNL     1      -1.285  12.798  21.185  0.00  0.00    +0.000 OA
ATOM     27  O   UNL     1      -0.546  13.521  18.888  0.00  0.00    +0.000 OA
BRANCH  25  28
ATOM     28  C   UNL     1      -2.739  12.141  19.111  0.00  0.00    +0.000 A 
ATOM     29  C   UNL     1      -2.849  11.455  17.897  0.00  0.00    +0.000 A 
ATOM     30  C   UNL     1      -4.112  11.121  17.405  0.00  0.00    +0.000 A 
ATOM     31  C   UNL     1      -5.246  11.476  18.131  0.00  0.00    +0.000 A 
ATOM     32  C   UNL     1      -5.140  12.162  19.338  0.00  0.00    +0.000 A 
ATOM     33  C   UNL     1      -3.881  12.496  19.837  0.00  0.00    +0.000 A 
BRANCH  31  34
ATOM     34  O   UNL     1      -6.497  11.159  17.691  0.00  0.00    +0.000 OA
ATOM     35  H   UNL     1      -7.069  10.995  18.459  0.00  0.00    +0.000 HD
ENDBRANCH  31  34
ENDBRANCH  25  28
ENDBRANCH  22  25
ENDBRANCH   2  19
TORSDOF 7
ENDMDL
MODEL 6
REMARK VINA RESULT:      -9.0      0.343      3.179
REMARK  Name = 
REMARK  7 active torsions:
REMARK  status: ('A' for Active; 'I' for Inactive)
REMARK    1  A    between atoms: C_2  and  C_18
REMARK    2  A    between atoms: N_3  and  C_4
REMARK    3  A    between atoms: C_6  and  C_7
REMARK    4  A    between atoms: C_12  and  C_13
REMARK    5  A    between atoms: C_21  and  S_22
REMARK    6  A    between atoms: S_22  and  C_25
REMARK    7  A    between atoms: C_28  and  O_29
REMARK                            x       y       z     vdW  Elec       q    Type
REMARK                         _______ _______ _______ _____ _____    ______ ____
ROOT
ATOM      1  O   UNL     1       2.148   6.781  20.529  0.00  0.00    +0.000 OA
ATOM      2  C   UNL     1       2.113   7.505  19.536  0.00  0.00    +0.000 C 
ATOM      3  N   UNL     1       2.774   7.280  18.340  0.00  0.00    +0.000 N 
ATOM      4  H   UNL     1       2.734   7.989  17.621  0.00  0.00    +0.000 HD
ENDROOT
BRANCH   3   5
ATOM      5  C   UNL     1       3.562   6.143  18.046  0.00  0.00    +0.000 A 
ATOM      6  C   UNL     1       4.854   6.237  17.523  0.00  0.00    +0.000 A 
ATOM      7  C   UNL     1       5.600   5.097  17.202  0.00  0.00    +0.000 A 
ATOM      8  C   UNL     1       5.036   3.834  17.425  0.00  0.00    +0.000 A 
ATOM      9  C   UNL     1       3.743   3.709  17.961  0.00  0.00    +0.000 A 
ATOM     10  C   UNL     1       3.022   4.874  18.286  0.00  0.00    +0.000 A 
BRANCH   7  11
ATOM     11  C   UNL     1       6.982   5.234  16.609  0.00  0.00    +0.000 C 
ATOM     12  F   UNL     1       7.020   5.090  15.256  0.00  0.00    +0.000 F 
ATOM     13  F   UNL     1       7.536   6.450  16.869  0.00  0.00    +0.000 F 
ATOM     14  F   UNL     1       7.850   4.312  17.109  0.00  0.00    +0.000 F 
ENDBRANCH   7  11
BRANCH   9  15
ATOM     15  C   UNL     1       3.114   2.349  18.154  0.00  0.00    +0.000 C 
ATOM     16  F   UNL     1       3.867   1.327  17.662  0.00  0.00    +0.000 F 
ATOM     17  F   UNL     1       2.897   2.057  19.465  0.00  0.00    +0.000 F 
ATOM     18  F   UNL     1       1.903   2.250  17.541  0.00  0.00    +0.000 F 
ENDBRANCH   9  15
ENDBRANCH   3   5
BRANCH   2  19
ATOM     19  C   UNL     1       1.297   8.745  19.642  0.00  0.00    +0.000 A 
ATOM     20  C   UNL     1       0.530   9.065  20.771  0.00  0.00    +0.000 A 
ATOM     21  C   UNL     1      -0.249  10.225  20.777  0.00  0.00    +0.000 A 
ATOM     22  C   UNL     1      -0.272  11.055  19.649  0.00  0.00    +0.000 A 
ATOM     23  C   UNL     1       0.497  10.755  18.525  0.00  0.00    +0.000 A 
ATOM     24  C   UNL     1       1.271   9.595  18.521  0.00  0.00    +0.000 A 
BRANCH  22  25
ATOM     25  S   UNL     1      -1.251  12.540  19.676  0.00  0.00    +0.000 S 
ATOM     26  O   UNL     1      -1.368  12.926  21.071  0.00  0.00    +0.000 OA
ATOM     27  O   UNL     1      -0.685  13.459  18.705  0.00  0.00    +0.000 OA
BRANCH  25  28
ATOM     28  C   UNL     1      -2.876  12.113  19.092  0.00  0.00    +0.000 A 
ATOM     29  C   UNL     1      -3.020  11.371  17.915  0.00  0.00    +0.000 A 
ATOM     30  C   UNL     1      -4.296  11.005  17.481  0.00  0.00    +0.000 A 
ATOM     31  C   UNL     1      -5.409  11.384  18.228  0.00  0.00    +0.000 A 
ATOM     32  C   UNL     1      -5.269  12.126  19.399  0.00  0.00    +0.000 A 
ATOM     33  C   UNL     1      -3.996  12.493  19.839  0.00  0.00    +0.000 A 
BRANCH  31  34
ATOM     34  O   UNL     1      -6.670  11.038  17.846  0.00  0.00    +0.000 OA
ATOM     35  H   UNL     1      -6.635  10.192  17.370  0.00  0.00    +0.000 HD
ENDBRANCH  31  34
ENDBRANCH  25  28
ENDBRANCH  22  25
ENDBRANCH   2  19
TORSDOF 7
ENDMDL
MODEL 7
REMARK VINA RESULT:      -9.0      0.299      1.303
REMARK  Name = 
REMARK  7 active torsions:
REMARK  status: ('A' for Active; 'I' for Inactive)
REMARK    1  A    between atoms: C_2  and  C_18
REMARK    2  A    between atoms: N_3  and  C_4
REMARK    3  A    between atoms: C_6  and  C_7
REMARK    4  A    between atoms: C_12  and  C_13
REMARK    5  A    between atoms: C_21  and  S_22
REMARK    6  A    between atoms: S_22  and  C_25
REMARK    7  A    between atoms: C_28  and  O_29
REMARK                            x       y       z     vdW  Elec       q    Type
REMARK                         _______ _______ _______ _____ _____    ______ ____
ROOT
ATOM      1  O   UNL     1       2.422   6.986  20.378  0.00  0.00    +0.000 OA
ATOM      2  C   UNL     1       2.189   7.544  19.308  0.00  0.00    +0.000 C 
ATOM      3  N   UNL     1       2.645   7.145  18.063  0.00  0.00    +0.000 N 
ATOM      4  H   UNL     1       2.455   7.732  17.263  0.00  0.00    +0.000 HD
ENDROOT
BRANCH   3   5
ATOM      5  C   UNL     1       3.416   5.985  17.812  0.00  0.00    +0.000 A 
ATOM      6  C   UNL     1       2.919   4.694  18.007  0.00  0.00    +0.000 A 
ATOM      7  C   UNL     1       3.712   3.562  17.790  0.00  0.00    +0.000 A 
ATOM      8  C   UNL     1       5.033   3.735  17.354  0.00  0.00    +0.000 A 
ATOM      9  C   UNL     1       5.555   5.021  17.138  0.00  0.00    +0.000 A 
ATOM     10  C   UNL     1       4.729   6.140  17.352  0.00  0.00    +0.000 A 
BRANCH   7  11
ATOM     11  C   UNL     1       3.153   2.182  18.041  0.00  0.00    +0.000 C 
ATOM     12  F   UNL     1       4.085   1.190  17.993  0.00  0.00    +0.000 F 
ATOM     13  F   UNL     1       2.563   2.080  19.263  0.00  0.00    +0.000 F 
ATOM     14  F   UNL     1       2.197   1.842  17.133  0.00  0.00    +0.000 F 
ENDBRANCH   7  11
BRANCH   9  15
ATOM     15  C   UNL     1       6.994   5.210  16.718  0.00  0.00    +0.000 C 
ATOM     16  F   UNL     1       7.859   4.366  17.345  0.00  0.00    +0.000 F 
ATOM     17  F   UNL     1       7.177   5.012  15.384  0.00  0.00    +0.000 F 
ATOM     18  F   UNL     1       7.445   6.468  16.977  0.00  0.00    +0.000 F 
ENDBRANCH   9  15
ENDBRANCH   3   5
BRANCH   2  19
ATOM     19  C   UNL     1       1.354   8.776  19.366  0.00  0.00    +0.000 A 
ATOM     20  C   UNL     1       1.341   9.742  18.350  0.00  0.00    +0.000 A 
ATOM     21  C   UNL     1       0.567  10.896  18.497  0.00  0.00    +0.000 A 
ATOM     22  C   UNL     1      -0.179  11.090  19.667  0.00  0.00    +0.000 A 
ATOM     23  C   UNL     1      -0.186  10.130  20.678  0.00  0.00    +0.000 A 
ATOM     24  C   UNL     1       0.589   8.980  20.528  0.00  0.00    +0.000 A 
BRANCH  22  25
ATOM     25  S   UNL     1      -1.177  12.553  19.834  0.00  0.00    +0.000 S 
ATOM     26  O   UNL     1      -1.300  12.802  21.259  0.00  0.00    +0.000 OA
ATOM     27  O   UNL     1      -0.623  13.568  18.956  0.00  0.00    +0.000 OA
BRANCH  25  28
ATOM     28  C   UNL     1      -2.797  12.163  19.209  0.00  0.00    +0.000 A 
ATOM     29  C   UNL     1      -3.932  12.561  19.923  0.00  0.00    +0.000 A 
ATOM     30  C   UNL     1      -5.201  12.287  19.410  0.00  0.00    +0.000 A 
ATOM     31  C   UNL     1      -5.319  11.621  18.192  0.00  0.00    +0.000 A 
ATOM     32  C   UNL     1      -4.190  11.220  17.481  0.00  0.00    +0.000 A 
ATOM     33  C   UNL     1      -2.919  11.494  17.987  0.00  0.00    +0.000 A 
BRANCH  31  34
ATOM     34  O   UNL     1      -6.539  11.344  17.651  0.00  0.00    +0.000 OA
ATOM     35  H   UNL     1      -6.457  10.572  17.067  0.00  0.00    +0.000 HD
ENDBRANCH  31  34
ENDBRANCH  25  28
ENDBRANCH  22  25
ENDBRANCH   2  19
TORSDOF 7
ENDMDL
MODEL 8
REMARK VINA RESULT:      -8.8      6.074     10.254
REMARK  Name = 
REMARK  7 active torsions:
REMARK  status: ('A' for Active; 'I' for Inactive)
REMARK    1  A    between atoms: C_2  and  C_18
REMARK    2  A    between atoms: N_3  and  C_4
REMARK    3  A    between atoms: C_6  and  C_7
REMARK    4  A    between atoms: C_12  and  C_13
REMARK    5  A    between atoms: C_21  and  S_22
REMARK    6  A    between atoms: S_22  and  C_25
REMARK    7  A    between atoms: C_28  and  O_29
REMARK                            x       y       z     vdW  Elec       q    Type
REMARK                         _______ _______ _______ _____ _____    ______ ____
ROOT
ATOM      1  O   UNL     1       1.324   8.440  21.968  0.00  0.00    +0.000 OA
ATOM      2  C   UNL     1       1.339   8.381  20.740  0.00  0.00    +0.000 C 
ATOM      3  N   UNL     1       0.884   9.360  19.872  0.00  0.00    +0.000 N 
ATOM      4  H   UNL     1       0.873   9.165  18.881  0.00  0.00    +0.000 HD
ENDROOT
BRANCH   3   5
ATOM      5  C   UNL     1       0.374  10.621  20.262  0.00  0.00    +0.000 A 
ATOM      6  C   UNL     1      -0.527  10.775  21.318  0.00  0.00    +0.000 A 
ATOM      7  C   UNL     1      -1.050  12.027  21.660  0.00  0.00    +0.000 A 
ATOM      8  C   UNL     1      -0.644  13.152  20.930  0.00  0.00    +0.000 A 
ATOM      9  C   UNL     1       0.270  13.029  19.871  0.00  0.00    +0.000 A 
ATOM     10  C   UNL     1       0.789  11.758  19.558  0.00  0.00    +0.000 A 
BRANCH   7  11
ATOM     11  C   UNL     1      -2.047  12.153  22.787  0.00  0.00    +0.000 C 
ATOM     12  F   UNL     1      -1.789  13.179  23.643  0.00  0.00    +0.000 F 
ATOM     13  F   UNL     1      -3.314  12.357  22.333  0.00  0.00    +0.000 F 
ATOM     14  F   UNL     1      -2.100  11.029  23.555  0.00  0.00    +0.000 F 
ENDBRANCH   7  11
BRANCH   9  15
ATOM     15  C   UNL     1       0.669  14.233  19.050  0.00  0.00    +0.000 C 
ATOM     16  F   UNL     1       1.158  15.262  19.797  0.00  0.00    +0.000 F 
ATOM     17  F   UNL     1       1.633  13.943  18.134  0.00  0.00    +0.000 F 
ATOM     18  F   UNL     1      -0.377  14.746  18.346  0.00  0.00    +0.000 F 
ENDBRANCH   9  15
ENDBRANCH   3   5
BRANCH   2  19
ATOM     19  C   UNL     1       1.879   7.132  20.137  0.00  0.00    +0.000 A 
ATOM     20  C   UNL     1       1.828   5.887  20.777  0.00  0.00    +0.000 A 
ATOM     21  C   UNL     1       2.401   4.767  20.167  0.00  0.00    +0.000 A 
ATOM     22  C   UNL     1       3.037   4.898  18.926  0.00  0.00    +0.000 A 
ATOM     23  C   UNL     1       3.082   6.130  18.273  0.00  0.00    +0.000 A 
ATOM     24  C   UNL     1       2.512   7.245  18.886  0.00  0.00    +0.000 A 
BRANCH  22  25
ATOM     25  S   UNL     1       3.744   3.462  18.150  0.00  0.00    +0.000 S 
ATOM     26  O   UNL     1       4.394   2.707  19.205  0.00  0.00    +0.000 OA
ATOM     27  O   UNL     1       2.711   2.848  17.336  0.00  0.00    +0.000 OA
BRANCH  25  28
ATOM     28  C   UNL     1       5.006   4.032  17.033  0.00  0.00    +0.000 A 
ATOM     29  C   UNL     1       4.742   4.099  15.661  0.00  0.00    +0.000 A 
ATOM     30  C   UNL     1       5.722   4.584  14.793  0.00  0.00    +0.000 A 
ATOM     31  C   UNL     1       6.950   4.994  15.306  0.00  0.00    +0.000 A 
ATOM     32  C   UNL     1       7.217   4.924  16.671  0.00  0.00    +0.000 A 
ATOM     33  C   UNL     1       6.241   4.444  17.545  0.00  0.00    +0.000 A 
BRANCH  31  34
ATOM     34  O   UNL     1       7.930   5.483  14.494  0.00  0.00    +0.000 OA
ATOM     35  H   UNL     1       8.776   5.459  14.971  0.00  0.00    +0.000 HD
ENDBRANCH  31  34
ENDBRANCH  25  28
ENDBRANCH  22  25
ENDBRANCH   2  19
TORSDOF 7
ENDMDL
MODEL 9
REMARK VINA RESULT:      -8.8      6.045     10.625
REMARK  Name = 
REMARK  7 active torsions:
REMARK  status: ('A' for Active; 'I' for Inactive)
REMARK    1  A    between atoms: C_2  and  C_18
REMARK    2  A    between atoms: N_3  and  C_4
REMARK    3  A    between atoms: C_6  and  C_7
REMARK    4  A    between atoms: C_12  and  C_13
REMARK    5  A    between atoms: C_21  and  S_22
REMARK    6  A    between atoms: S_22  and  C_25
REMARK    7  A    between atoms: C_28  and  O_29
REMARK                            x       y       z     vdW  Elec       q    Type
REMARK                         _______ _______ _______ _____ _____    ______ ____
ROOT
ATOM      1  O   UNL     1       1.286   8.492  21.942  0.00  0.00    +0.000 OA
ATOM      2  C   UNL     1       1.375   8.406  20.719  0.00  0.00    +0.000 C 
ATOM      3  N   UNL     1       0.958   9.357  19.803  0.00  0.00    +0.000 N 
ATOM      4  H   UNL     1       1.009   9.139  18.818  0.00  0.00    +0.000 HD
ENDROOT
BRANCH   3   5
ATOM      5  C   UNL     1       0.408  10.618  20.131  0.00  0.00    +0.000 A 
ATOM      6  C   UNL     1       0.745  11.788  19.445  0.00  0.00    +0.000 A 
ATOM      7  C   UNL     1       0.218  13.032  19.813  0.00  0.00    +0.000 A 
ATOM      8  C   UNL     1      -0.679  13.095  20.888  0.00  0.00    +0.000 A 
ATOM      9  C   UNL     1      -1.045  11.934  21.587  0.00  0.00    +0.000 A 
ATOM     10  C   UNL     1      -0.509  10.695  21.186  0.00  0.00    +0.000 A 
BRANCH   7  11
ATOM     11  C   UNL     1       0.629  14.281  19.071  0.00  0.00    +0.000 C 
ATOM     12  F   UNL     1       1.009  15.307  19.881  0.00  0.00    +0.000 F 
ATOM     13  F   UNL     1       1.678  14.061  18.233  0.00  0.00    +0.000 F 
ATOM     14  F   UNL     1      -0.377  14.770  18.294  0.00  0.00    +0.000 F 
ENDBRANCH   7  11
BRANCH   9  15
ATOM     15  C   UNL     1      -1.972  12.009  22.778  0.00  0.00    +0.000 C 
ATOM     16  F   UNL     1      -3.279  12.187  22.439  0.00  0.00    +0.000 F 
ATOM     17  F   UNL     1      -1.933  10.882  23.541  0.00  0.00    +0.000 F 
ATOM     18  F   UNL     1      -1.658  13.038  23.611  0.00  0.00    +0.000 F 
ENDBRANCH   9  15
ENDBRANCH   3   5
BRANCH   2  19
ATOM     19  C   UNL     1       1.968   7.152  20.179  0.00  0.00    +0.000 A 
ATOM     20  C   UNL     1       1.935   5.930  20.865  0.00  0.00    +0.000 A 
ATOM     21  C   UNL     1       2.557   4.807  20.314  0.00  0.00    +0.000 A 
ATOM     22  C   UNL     1       3.225   4.910  19.087  0.00  0.00    +0.000 A 
ATOM     23  C   UNL     1       3.252   6.117  18.389  0.00  0.00    +0.000 A 
ATOM     24  C   UNL     1       2.633   7.237  18.943  0.00  0.00    +0.000 A 
BRANCH  22  25
ATOM     25  S   UNL     1       3.994   3.468  18.386  0.00  0.00    +0.000 S 
ATOM     26  O   UNL     1       4.737   2.838  19.463  0.00  0.00    +0.000 OA
ATOM     27  O   UNL     1       2.972   2.728  17.668  0.00  0.00    +0.000 OA
BRANCH  25  28
ATOM     28  C   UNL     1       5.168   4.032  17.174  0.00  0.00    +0.000 A 
ATOM     29  C   UNL     1       4.826   4.021  15.817  0.00  0.00    +0.000 A 
ATOM     30  C   UNL     1       5.735   4.500  14.872  0.00  0.00    +0.000 A 
ATOM     31  C   UNL     1       6.971   4.984  15.295  0.00  0.00    +0.000 A 
ATOM     32  C   UNL     1       7.316   4.992  16.644  0.00  0.00    +0.000 A 
ATOM     33  C   UNL     1       6.410   4.517  17.594  0.00  0.00    +0.000 A 
BRANCH  31  34
ATOM     34  O   UNL     1       7.883   5.471  14.406  0.00  0.00    +0.000 OA
ATOM     35  H   UNL     1       8.642   4.866  14.369  0.00  0.00    +0.000 HD
ENDBRANCH  31  34
ENDBRANCH  25  28
ENDBRANCH  22  25
ENDBRANCH   2  19
TORSDOF 7
ENDMDL
