MODEL 1
REMARK VINA RESULT:      -7.4      0.000      0.000
REMARK  Name = 
REMARK  8 active torsions:
REMARK  status: ('A' for Active; 'I' for Inactive)
REMARK    1  A    between atoms: C_1  and  O_2
REMARK    2  A    between atoms: O_2  and  C_3
REMARK    3  A    between atoms: C_6  and  C_7
REMARK    4  A    between atoms: C_7  and  C_8
REMARK    5  A    between atoms: N_10  and  C_11
REMARK    6  A    between atoms: C_16  and  N_17
REMARK    7  A    between atoms: C_23  and  O_24
REMARK    8  A    between atoms: O_24  and  C_25
REMARK                            x       y       z     vdW  Elec       q    Type
REMARK                         _______ _______ _______ _____ _____    ______ ____
ROOT
ATOM      1  C   UNL     1       2.402   7.565  18.538  0.00  0.00    +0.000 C 
ATOM      2  O   UNL     1       2.150   7.469  19.733  0.00  0.00    +0.000 OA
ATOM      3  N   UNL     1       2.777   6.513  17.710  0.00  0.00    +0.000 N 
ATOM      4  H   UNL     1       3.359   6.723  16.902  0.00  0.00    +0.000 HD
ENDROOT
BRANCH   3   5
ATOM      5  C   UNL     1       2.855   5.171  18.144  0.00  0.00    +0.000 A 
ATOM      6  C   UNL     1       1.680   4.434  18.359  0.00  0.00    +0.000 A 
ATOM      7  C   UNL     1       1.746   3.100  18.740  0.00  0.00    +0.000 A 
ATOM      8  C   UNL     1       2.986   2.499  18.933  0.00  0.00    +0.000 A 
ATOM      9  C   UNL     1       4.159   3.232  18.722  0.00  0.00    +0.000 A 
ATOM     10  C   UNL     1       4.135   4.571  18.301  0.00  0.00    +0.000 A 
BRANCH  10  11
ATOM     11  N   UNL     1       5.305   5.336  18.101  0.00  0.00    +0.000 N 
ATOM     12  C   UNL     1       6.128   5.132  16.893  0.00  0.00    +0.000 C 
ATOM     13  C   UNL     1       7.503   4.724  17.417  0.00  0.00    +0.000 C 
ATOM     14  C   UNL     1       7.601   5.482  18.724  0.00  0.00    +0.000 C 
ATOM     15  C   UNL     1       6.190   5.370  19.288  0.00  0.00    +0.000 C 
ENDBRANCH  10  11
ENDBRANCH   3   5
BRANCH   1  16
ATOM     16  C   UNL     1       2.322   8.905  17.830  0.00  0.00    +0.000 C 
BRANCH  16  20
ATOM     17  C   UNL     1      -1.107  11.326  18.906  0.00  0.00    +0.000 A 
ATOM     18  C   UNL     1       0.156  11.591  19.460  0.00  0.00    +0.000 A 
ATOM     19  C   UNL     1       1.271  10.819  19.120  0.00  0.00    +0.000 A 
ATOM     20  C   UNL     1       1.139   9.746  18.236  0.00  0.00    +0.000 A 
ATOM     21  C   UNL     1      -0.138   9.436  17.749  0.00  0.00    +0.000 A 
ATOM     22  C   UNL     1      -1.262  10.212  18.069  0.00  0.00    +0.000 A 
BRANCH  17  24
ATOM     23  C   UNL     1      -2.362  12.485  20.556  0.00  0.00    +0.000 C 
ATOM     24  O   UNL     1      -2.191  12.116  19.188  0.00  0.00    +0.000 OA
ENDBRANCH  17  24
BRANCH  22  25
ATOM     25  O   UNL     1      -2.391   9.734  17.458  0.00  0.00    +0.000 OA
ATOM     26  C   UNL     1      -2.650  10.064  16.106  0.00  0.00    +0.000 C 
ENDBRANCH  22  25
ENDBRANCH  16  20
ENDBRANCH   1  16
TORSDOF 6
ENDMDL
MODEL 2
REMARK VINA RESULT:      -7.3      1.038      2.086
REMARK  Name = 
REMARK  8 active torsions:
REMARK  status: ('A' for Active; 'I' for Inactive)
REMARK    1  A    between atoms: C_1  and  O_2
REMARK    2  A    between atoms: O_2  and  C_3
REMARK    3  A    between atoms: C_6  and  C_7
REMARK    4  A    between atoms: C_7  and  C_8
REMARK    5  A    between atoms: N_10  and  C_11
REMARK    6  A    between atoms: C_16  and  N_17
REMARK    7  A    between atoms: C_23  and  O_24
REMARK    8  A    between atoms: O_24  and  C_25
REMARK                            x       y       z     vdW  Elec       q    Type
REMARK                         _______ _______ _______ _____ _____    ______ ____
ROOT
ATOM      1  C   UNL     1       2.422   7.448  18.521  0.00  0.00    +0.000 C 
ATOM      2  O   UNL     1       2.220   7.246  19.713  0.00  0.00    +0.000 OA
ATOM      3  N   UNL     1       2.740   6.471  17.584  0.00  0.00    +0.000 N 
ATOM      4  H   UNL     1       3.291   6.746  16.773  0.00  0.00    +0.000 HD
ENDROOT
BRANCH   3   5
ATOM      5  C   UNL     1       2.811   5.094  17.889  0.00  0.00    +0.000 A 
ATOM      6  C   UNL     1       1.632   4.338  17.996  0.00  0.00    +0.000 A 
ATOM      7  C   UNL     1       1.692   2.974  18.249  0.00  0.00    +0.000 A 
ATOM      8  C   UNL     1       2.928   2.358  18.420  0.00  0.00    +0.000 A 
ATOM      9  C   UNL     1       4.104   3.109  18.317  0.00  0.00    +0.000 A 
ATOM     10  C   UNL     1       4.087   4.483  18.027  0.00  0.00    +0.000 A 
BRANCH  10  11
ATOM     11  N   UNL     1       5.260   5.264  17.936  0.00  0.00    +0.000 N 
ATOM     12  C   UNL     1       6.237   5.017  16.859  0.00  0.00    +0.000 C 
ATOM     13  C   UNL     1       7.539   4.672  17.577  0.00  0.00    +0.000 C 
ATOM     14  C   UNL     1       7.453   5.500  18.842  0.00  0.00    +0.000 C 
ATOM     15  C   UNL     1       5.982   5.384  19.224  0.00  0.00    +0.000 C 
ENDBRANCH  10  11
ENDBRANCH   3   5
BRANCH   1  16
ATOM     16  C   UNL     1       2.339   8.848  17.943  0.00  0.00    +0.000 C 
BRANCH  16  20
ATOM     17  C   UNL     1      -0.893  11.198  19.620  0.00  0.00    +0.000 A 
ATOM     18  C   UNL     1      -1.104  10.404  18.482  0.00  0.00    +0.000 A 
ATOM     19  C   UNL     1      -0.071   9.640  17.931  0.00  0.00    +0.000 A 
ATOM     20  C   UNL     1       1.205   9.675  18.496  0.00  0.00    +0.000 A 
ATOM     21  C   UNL     1       1.431  10.530  19.583  0.00  0.00    +0.000 A 
ATOM     22  C   UNL     1       0.399  11.290  20.155  0.00  0.00    +0.000 A 
BRANCH  17  24
ATOM     23  C   UNL     1      -3.061  12.139  19.381  0.00  0.00    +0.000 C 
ATOM     24  O   UNL     1      -1.917  11.901  20.201  0.00  0.00    +0.000 OA
ENDBRANCH  17  24
BRANCH  22  25
ATOM     25  O   UNL     1       0.850  12.026  21.218  0.00  0.00    +0.000 OA
ATOM     26  C   UNL     1       1.146  13.400  21.045  0.00  0.00    +0.000 C 
ENDBRANCH  22  25
ENDBRANCH  16  20
ENDBRANCH   1  16
TORSDOF 6
ENDMDL
MODEL 3
REMARK VINA RESULT:      -7.2      1.508      2.284
REMARK  Name = 
REMARK  8 active torsions:
REMARK  status: ('A' for Active; 'I' for Inactive)
REMARK    1  A    between atoms: C_1  and  O_2
REMARK    2  A    between atoms: O_2  and  C_3
REMARK    3  A    between atoms: C_6  and  C_7
REMARK    4  A    between atoms: C_7  and  C_8
REMARK    5  A    between atoms: N_10  and  C_11
REMARK    6  A    between atoms: C_16  and  N_17
REMARK    7  A    between atoms: C_23  and  O_24
REMARK    8  A    between atoms: O_24  and  C_25
REMARK                            x       y       z     vdW  Elec       q    Type
REMARK                         _______ _______ _______ _____ _____    ______ ____
ROOT
ATOM      1  C   UNL     1       2.497   7.134  18.592  0.00  0.00    +0.000 C 
ATOM      2  O   UNL     1       2.641   6.930  19.791  0.00  0.00    +0.000 OA
ATOM      3  N   UNL     1       2.466   6.150  17.609  0.00  0.00    +0.000 N 
ATOM      4  H   UNL     1       2.770   6.401  16.670  0.00  0.00    +0.000 HD
ENDROOT
BRANCH   3   5
ATOM      5  C   UNL     1       2.536   4.768  17.888  0.00  0.00    +0.000 A 
ATOM      6  C   UNL     1       1.373   4.061  18.232  0.00  0.00    +0.000 A 
ATOM      7  C   UNL     1       1.423   2.693  18.463  0.00  0.00    +0.000 A 
ATOM      8  C   UNL     1       2.639   2.024  18.377  0.00  0.00    +0.000 A 
ATOM      9  C   UNL     1       3.802   2.726  18.037  0.00  0.00    +0.000 A 
ATOM     10  C   UNL     1       3.786   4.102  17.760  0.00  0.00    +0.000 A 
BRANCH  10  11
ATOM     11  N   UNL     1       4.949   4.834  17.435  0.00  0.00    +0.000 N 
ATOM     12  C   UNL     1       5.433   4.880  16.042  0.00  0.00    +0.000 C 
ATOM     13  C   UNL     1       6.842   4.294  16.094  0.00  0.00    +0.000 C 
ATOM     14  C   UNL     1       7.330   4.718  17.463  0.00  0.00    +0.000 C 
ATOM     15  C   UNL     1       6.090   4.546  18.334  0.00  0.00    +0.000 C 
ENDBRANCH  10  11
ENDBRANCH   3   5
BRANCH   1  16
ATOM     16  C   UNL     1       2.336   8.544  18.054  0.00  0.00    +0.000 C 
BRANCH  16  20
ATOM     17  C   UNL     1      -0.748  10.785  20.115  0.00  0.00    +0.000 A 
ATOM     18  C   UNL     1      -0.811  10.596  18.725  0.00  0.00    +0.000 A 
ATOM     19  C   UNL     1       0.176   9.874  18.048  0.00  0.00    +0.000 A 
ATOM     20  C   UNL     1       1.263   9.346  18.747  0.00  0.00    +0.000 A 
ATOM     21  C   UNL     1       1.364   9.605  20.121  0.00  0.00    +0.000 A 
ATOM     22  C   UNL     1       0.372  10.315  20.815  0.00  0.00    +0.000 A 
BRANCH  17  24
ATOM     23  C   UNL     1      -1.774  12.859  20.651  0.00  0.00    +0.000 C 
ATOM     24  O   UNL     1      -1.744  11.439  20.794  0.00  0.00    +0.000 OA
ENDBRANCH  17  24
BRANCH  22  25
ATOM     25  O   UNL     1       0.673  10.421  22.147  0.00  0.00    +0.000 OA
ATOM     26  C   UNL     1       0.038   9.567  23.081  0.00  0.00    +0.000 C 
ENDBRANCH  22  25
ENDBRANCH  16  20
ENDBRANCH   1  16
TORSDOF 6
ENDMDL
MODEL 4
REMARK VINA RESULT:      -7.1      1.579      1.954
REMARK  Name = 
REMARK  8 active torsions:
REMARK  status: ('A' for Active; 'I' for Inactive)
REMARK    1  A    between atoms: C_1  and  O_2
REMARK    2  A    between atoms: O_2  and  C_3
REMARK    3  A    between atoms: C_6  and  C_7
REMARK    4  A    between atoms: C_7  and  C_8
REMARK    5  A    between atoms: N_10  and  C_11
REMARK    6  A    between atoms: C_16  and  N_17
REMARK    7  A    between atoms: C_23  and  O_24
REMARK    8  A    between atoms: O_24  and  C_25
REMARK                            x       y       z     vdW  Elec       q    Type
REMARK                         _______ _______ _______ _____ _____    ______ ____
ROOT
ATOM      1  C   UNL     1       2.581   6.859  18.629  0.00  0.00    +0.000 C 
ATOM      2  O   UNL     1       3.098   6.639  19.718  0.00  0.00    +0.000 OA
ATOM      3  N   UNL     1       2.244   5.890  17.690  0.00  0.00    +0.000 N 
ATOM      4  H   UNL     1       2.235   6.157  16.708  0.00  0.00    +0.000 HD
ENDROOT
BRANCH   3   5
ATOM      5  C   UNL     1       2.405   4.504  17.910  0.00  0.00    +0.000 A 
ATOM      6  C   UNL     1       1.335   3.744  18.409  0.00  0.00    +0.000 A 
ATOM      7  C   UNL     1       1.469   2.373  18.584  0.00  0.00    +0.000 A 
ATOM      8  C   UNL     1       2.677   1.754  18.285  0.00  0.00    +0.000 A 
ATOM      9  C   UNL     1       3.747   2.509  17.790  0.00  0.00    +0.000 A 
ATOM     10  C   UNL     1       3.641   3.891  17.564  0.00  0.00    +0.000 A 
BRANCH  10  11
ATOM     11  N   UNL     1       4.711   4.676  17.083  0.00  0.00    +0.000 N 
ATOM     12  C   UNL     1       5.168   4.535  15.688  0.00  0.00    +0.000 C 
ATOM     13  C   UNL     1       6.633   4.119  15.791  0.00  0.00    +0.000 C 
ATOM     14  C   UNL     1       7.091   4.819  17.053  0.00  0.00    +0.000 C 
ATOM     15  C   UNL     1       5.890   4.667  17.980  0.00  0.00    +0.000 C 
ENDBRANCH  10  11
ENDBRANCH   3   5
BRANCH   1  16
ATOM     16  C   UNL     1       2.252   8.275  18.194  0.00  0.00    +0.000 C 
BRANCH  16  20
ATOM     17  C   UNL     1      -0.334  10.481  20.882  0.00  0.00    +0.000 A 
ATOM     18  C   UNL     1       0.428   9.398  21.352  0.00  0.00    +0.000 A 
ATOM     19  C   UNL     1       1.267   8.679  20.496  0.00  0.00    +0.000 A 
ATOM     20  C   UNL     1       1.342   9.013  19.143  0.00  0.00    +0.000 A 
ATOM     21  C   UNL     1       0.521  10.042  18.663  0.00  0.00    +0.000 A 
ATOM     22  C   UNL     1      -0.315  10.782  19.514  0.00  0.00    +0.000 A 
BRANCH  17  24
ATOM     23  C   UNL     1      -1.160  10.793  23.088  0.00  0.00    +0.000 C 
ATOM     24  O   UNL     1      -1.112  11.228  21.729  0.00  0.00    +0.000 OA
ENDBRANCH  17  24
BRANCH  22  25
ATOM     25  O   UNL     1      -1.000  11.748  18.826  0.00  0.00    +0.000 OA
ATOM     26  C   UNL     1      -0.323  12.911  18.386  0.00  0.00    +0.000 C 
ENDBRANCH  22  25
ENDBRANCH  16  20
ENDBRANCH   1  16
TORSDOF 6
ENDMDL
MODEL 5
REMARK VINA RESULT:      -7.0      1.663      1.864
REMARK  Name = 
REMARK  8 active torsions:
REMARK  status: ('A' for Active; 'I' for Inactive)
REMARK    1  A    between atoms: C_1  and  O_2
REMARK    2  A    between atoms: O_2  and  C_3
REMARK    3  A    between atoms: C_6  and  C_7
REMARK    4  A    between atoms: C_7  and  C_8
REMARK    5  A    between atoms: N_10  and  C_11
REMARK    6  A    between atoms: C_16  and  N_17
REMARK    7  A    between atoms: C_23  and  O_24
REMARK    8  A    between atoms: O_24  and  C_25
REMARK                            x       y       z     vdW  Elec       q    Type
REMARK                         _______ _______ _______ _____ _____    ______ ____
ROOT
ATOM      1  C   UNL     1       2.380   6.981  18.453  0.00  0.00    +0.000 C 
ATOM      2  O   UNL     1       1.798   6.260  17.652  0.00  0.00    +0.000 OA
ATOM      3  N   UNL     1       3.090   6.537  19.563  0.00  0.00    +0.000 N 
ATOM      4  H   UNL     1       3.162   7.159  20.366  0.00  0.00    +0.000 HD
ENDROOT
BRANCH   3   5
ATOM      5  C   UNL     1       3.278   5.172  19.872  0.00  0.00    +0.000 A 
ATOM      6  C   UNL     1       2.340   4.498  20.671  0.00  0.00    +0.000 A 
ATOM      7  C   UNL     1       2.491   3.145  20.942  0.00  0.00    +0.000 A 
ATOM      8  C   UNL     1       3.591   2.459  20.440  0.00  0.00    +0.000 A 
ATOM      9  C   UNL     1       4.530   3.129  19.646  0.00  0.00    +0.000 A 
ATOM     10  C   UNL     1       4.394   4.487  19.318  0.00  0.00    +0.000 A 
BRANCH  10  11
ATOM     11  N   UNL     1       5.338   5.188  18.536  0.00  0.00    +0.000 N 
ATOM     12  C   UNL     1       5.682   4.711  17.183  0.00  0.00    +0.000 C 
ATOM     13  C   UNL     1       7.184   4.441  17.228  0.00  0.00    +0.000 C 
ATOM     14  C   UNL     1       7.681   5.482  18.208  0.00  0.00    +0.000 C 
ATOM     15  C   UNL     1       6.587   5.500  19.269  0.00  0.00    +0.000 C 
ENDBRANCH  10  11
ENDBRANCH   3   5
BRANCH   1  16
ATOM     16  C   UNL     1       2.375   8.490  18.291  0.00  0.00    +0.000 C 
BRANCH  16  20
ATOM     17  C   UNL     1      -0.465  10.612  20.784  0.00  0.00    +0.000 A 
ATOM     18  C   UNL     1       0.221   9.490  21.278  0.00  0.00    +0.000 A 
ATOM     19  C   UNL     1       1.140   8.797  20.485  0.00  0.00    +0.000 A 
ATOM     20  C   UNL     1       1.374   9.199  19.169  0.00  0.00    +0.000 A 
ATOM     21  C   UNL     1       0.630  10.269  18.655  0.00  0.00    +0.000 A 
ATOM     22  C   UNL     1      -0.285  10.982  19.444  0.00  0.00    +0.000 A 
BRANCH  17  24
ATOM     23  C   UNL     1      -1.210  11.115  22.983  0.00  0.00    +0.000 C 
ATOM     24  O   UNL     1      -1.322  11.331  21.576  0.00  0.00    +0.000 OA
ENDBRANCH  17  24
BRANCH  22  25
ATOM     25  O   UNL     1      -0.872  11.997  18.737  0.00  0.00    +0.000 OA
ATOM     26  C   UNL     1      -1.871  11.699  17.778  0.00  0.00    +0.000 C 
ENDBRANCH  22  25
ENDBRANCH  16  20
ENDBRANCH   1  16
TORSDOF 6
ENDMDL
MODEL 6
REMARK VINA RESULT:      -6.9      1.861      3.794
REMARK  Name = 
REMARK  8 active torsions:
REMARK  status: ('A' for Active; 'I' for Inactive)
REMARK    1  A    between atoms: C_1  and  O_2
REMARK    2  A    between atoms: O_2  and  C_3
REMARK    3  A    between atoms: C_6  and  C_7
REMARK    4  A    between atoms: C_7  and  C_8
REMARK    5  A    between atoms: N_10  and  C_11
REMARK    6  A    between atoms: C_16  and  N_17
REMARK    7  A    between atoms: C_23  and  O_24
REMARK    8  A    between atoms: O_24  and  C_25
REMARK                            x       y       z     vdW  Elec       q    Type
REMARK                         _______ _______ _______ _____ _____    ______ ____
ROOT
ATOM      1  C   UNL     1       1.813   8.909  18.490  0.00  0.00    +0.000 C 
ATOM      2  O   UNL     1       2.011   9.318  17.352  0.00  0.00    +0.000 OA
ATOM      3  N   UNL     1       2.247   7.686  18.991  0.00  0.00    +0.000 N 
ATOM      4  H   UNL     1       1.706   7.255  19.737  0.00  0.00    +0.000 HD
ENDROOT
BRANCH   3   5
ATOM      5  C   UNL     1       3.035   6.778  18.250  0.00  0.00    +0.000 A 
ATOM      6  C   UNL     1       3.983   7.257  17.332  0.00  0.00    +0.000 A 
ATOM      7  C   UNL     1       4.795   6.374  16.634  0.00  0.00    +0.000 A 
ATOM      8  C   UNL     1       4.650   5.004  16.827  0.00  0.00    +0.000 A 
ATOM      9  C   UNL     1       3.704   4.522  17.739  0.00  0.00    +0.000 A 
ATOM     10  C   UNL     1       2.890   5.384  18.492  0.00  0.00    +0.000 A 
BRANCH  10  11
ATOM     11  N   UNL     1       1.916   4.921  19.403  0.00  0.00    +0.000 N 
ATOM     12  C   UNL     1       2.214   4.868  20.847  0.00  0.00    +0.000 C 
ATOM     13  C   UNL     1       2.048   3.400  21.232  0.00  0.00    +0.000 C 
ATOM     14  C   UNL     1       0.953   2.931  20.297  0.00  0.00    +0.000 C 
ATOM     15  C   UNL     1       1.294   3.640  18.992  0.00  0.00    +0.000 C 
ENDBRANCH  10  11
ENDBRANCH   3   5
BRANCH   1  16
ATOM     16  C   UNL     1       1.040   9.744  19.495  0.00  0.00    +0.000 C 
BRANCH  16  20
ATOM     17  C   UNL     1      -2.745  11.302  18.073  0.00  0.00    +0.000 A 
ATOM     18  C   UNL     1      -2.054  10.324  17.339  0.00  0.00    +0.000 A 
ATOM     19  C   UNL     1      -0.833   9.811  17.787  0.00  0.00    +0.000 A 
ATOM     20  C   UNL     1      -0.264  10.287  18.969  0.00  0.00    +0.000 A 
ATOM     21  C   UNL     1      -0.917  11.320  19.657  0.00  0.00    +0.000 A 
ATOM     22  C   UNL     1      -2.150  11.832  19.226  0.00  0.00    +0.000 A 
BRANCH  17  24
ATOM     23  C   UNL     1      -5.078  10.893  17.900  0.00  0.00    +0.000 C 
ATOM     24  O   UNL     1      -3.971  11.764  17.670  0.00  0.00    +0.000 OA
ENDBRANCH  17  24
BRANCH  22  25
ATOM     25  O   UNL     1      -2.606  12.812  20.067  0.00  0.00    +0.000 OA
ATOM     26  C   UNL     1      -1.776  13.920  20.369  0.00  0.00    +0.000 C 
ENDBRANCH  22  25
ENDBRANCH  16  20
ENDBRANCH   1  16
TORSDOF 6
ENDMDL
MODEL 7
REMARK VINA RESULT:      -6.9      1.781      2.467
REMARK  Name = 
REMARK  8 active torsions:
REMARK  status: ('A' for Active; 'I' for Inactive)
REMARK    1  A    between atoms: C_1  and  O_2
REMARK    2  A    between atoms: O_2  and  C_3
REMARK    3  A    between atoms: C_6  and  C_7
REMARK    4  A    between atoms: C_7  and  C_8
REMARK    5  A    between atoms: N_10  and  C_11
REMARK    6  A    between atoms: C_16  and  N_17
REMARK    7  A    between atoms: C_23  and  O_24
REMARK    8  A    between atoms: O_24  and  C_25
REMARK                            x       y       z     vdW  Elec       q    Type
REMARK                         _______ _______ _______ _____ _____    ______ ____
ROOT
ATOM      1  C   UNL     1       2.301   7.103  18.426  0.00  0.00    +0.000 C 
ATOM      2  O   UNL     1       1.592   6.402  17.714  0.00  0.00    +0.000 OA
ATOM      3  N   UNL     1       3.060   6.648  19.499  0.00  0.00    +0.000 N 
ATOM      4  H   UNL     1       3.253   7.297  20.259  0.00  0.00    +0.000 HD
ENDROOT
BRANCH   3   5
ATOM      5  C   UNL     1       3.152   5.288  19.866  0.00  0.00    +0.000 A 
ATOM      6  C   UNL     1       2.282   4.762  20.835  0.00  0.00    +0.000 A 
ATOM      7  C   UNL     1       2.333   3.415  21.169  0.00  0.00    +0.000 A 
ATOM      8  C   UNL     1       3.269   2.588  20.557  0.00  0.00    +0.000 A 
ATOM      9  C   UNL     1       4.140   3.110  19.593  0.00  0.00    +0.000 A 
ATOM     10  C   UNL     1       4.095   4.457  19.201  0.00  0.00    +0.000 A 
BRANCH  10  11
ATOM     11  N   UNL     1       4.976   5.009  18.246  0.00  0.00    +0.000 N 
ATOM     12  C   UNL     1       4.771   4.748  16.808  0.00  0.00    +0.000 C 
ATOM     13  C   UNL     1       6.053   4.061  16.344  0.00  0.00    +0.000 C 
ATOM     14  C   UNL     1       7.109   4.691  17.229  0.00  0.00    +0.000 C 
ATOM     15  C   UNL     1       6.404   4.796  18.576  0.00  0.00    +0.000 C 
ENDBRANCH  10  11
ENDBRANCH   3   5
BRANCH   1  16
ATOM     16  C   UNL     1       2.414   8.597  18.184  0.00  0.00    +0.000 C 
BRANCH  16  20
ATOM     17  C   UNL     1      -0.832  10.851  19.960  0.00  0.00    +0.000 A 
ATOM     18  C   UNL     1      -0.806  10.605  18.577  0.00  0.00    +0.000 A 
ATOM     19  C   UNL     1       0.234   9.878  17.991  0.00  0.00    +0.000 A 
ATOM     20  C   UNL     1       1.287   9.403  18.776  0.00  0.00    +0.000 A 
ATOM     21  C   UNL     1       1.297   9.719  20.141  0.00  0.00    +0.000 A 
ATOM     22  C   UNL     1       0.252  10.435  20.745  0.00  0.00    +0.000 A 
BRANCH  17  24
ATOM     23  C   UNL     1      -1.811  12.936  20.540  0.00  0.00    +0.000 C 
ATOM     24  O   UNL     1      -1.880  11.511  20.549  0.00  0.00    +0.000 OA
ENDBRANCH  17  24
BRANCH  22  25
ATOM     25  O   UNL     1       0.468  10.600  22.087  0.00  0.00    +0.000 OA
ATOM     26  C   UNL     1      -0.087   9.677  23.007  0.00  0.00    +0.000 C 
ENDBRANCH  22  25
ENDBRANCH  16  20
ENDBRANCH   1  16
TORSDOF 6
ENDMDL
MODEL 8
REMARK VINA RESULT:      -6.9      1.250      1.250
REMARK  Name = 
REMARK  8 active torsions:
REMARK  status: ('A' for Active; 'I' for Inactive)
REMARK    1  A    between atoms: C_1  and  O_2
REMARK    2  A    between atoms: O_2  and  C_3
REMARK    3  A    between atoms: C_6  and  C_7
REMARK    4  A    between atoms: C_7  and  C_8
REMARK    5  A    between atoms: N_10  and  C_11
REMARK    6  A    between atoms: C_16  and  N_17
REMARK    7  A    between atoms: C_23  and  O_24
REMARK    8  A    between atoms: O_24  and  C_25
REMARK                            x       y       z     vdW  Elec       q    Type
REMARK                         _______ _______ _______ _____ _____    ______ ____
ROOT
ATOM      1  C   UNL     1       2.292   7.249  18.454  0.00  0.00    +0.000 C 
ATOM      2  O   UNL     1       1.674   6.550  17.660  0.00  0.00    +0.000 OA
ATOM      3  N   UNL     1       2.970   6.782  19.575  0.00  0.00    +0.000 N 
ATOM      4  H   UNL     1       3.072   7.410  20.369  0.00  0.00    +0.000 HD
ENDROOT
BRANCH   3   5
ATOM      5  C   UNL     1       3.080   5.413  19.904  0.00  0.00    +0.000 A 
ATOM      6  C   UNL     1       2.099   4.803  20.702  0.00  0.00    +0.000 A 
ATOM      7  C   UNL     1       2.173   3.447  20.993  0.00  0.00    +0.000 A 
ATOM      8  C   UNL     1       3.239   2.695  20.510  0.00  0.00    +0.000 A 
ATOM      9  C   UNL     1       4.220   3.302  19.717  0.00  0.00    +0.000 A 
ATOM     10  C   UNL     1       4.162   4.661  19.370  0.00  0.00    +0.000 A 
BRANCH  10  11
ATOM     11  N   UNL     1       5.150   5.298  18.588  0.00  0.00    +0.000 N 
ATOM     12  C   UNL     1       5.363   4.893  17.186  0.00  0.00    +0.000 C 
ATOM     13  C   UNL     1       6.817   4.433  17.123  0.00  0.00    +0.000 C 
ATOM     14  C   UNL     1       7.493   5.321  18.147  0.00  0.00    +0.000 C 
ATOM     15  C   UNL     1       6.462   5.390  19.268  0.00  0.00    +0.000 C 
ENDBRANCH  10  11
ENDBRANCH   3   5
BRANCH   1  16
ATOM     16  C   UNL     1       2.370   8.753  18.271  0.00  0.00    +0.000 C 
BRANCH  16  20
ATOM     17  C   UNL     1      -1.141  10.943  19.556  0.00  0.00    +0.000 A 
ATOM     18  C   UNL     1      -0.142  10.592  20.478  0.00  0.00    +0.000 A 
ATOM     19  C   UNL     1       0.997   9.887  20.077  0.00  0.00    +0.000 A 
ATOM     20  C   UNL     1       1.146   9.495  18.745  0.00  0.00    +0.000 A 
ATOM     21  C   UNL     1       0.110   9.778  17.845  0.00  0.00    +0.000 A 
ATOM     22  C   UNL     1      -1.031  10.498  18.232  0.00  0.00    +0.000 A 
BRANCH  17  24
ATOM     23  C   UNL     1      -1.952  12.937  20.561  0.00  0.00    +0.000 C 
ATOM     24  O   UNL     1      -2.230  11.687  19.931  0.00  0.00    +0.000 OA
ENDBRANCH  17  24
BRANCH  22  25
ATOM     25  O   UNL     1      -1.891  10.673  17.180  0.00  0.00    +0.000 OA
ATOM     26  C   UNL     1      -3.003   9.809  17.030  0.00  0.00    +0.000 C 
ENDBRANCH  22  25
ENDBRANCH  16  20
ENDBRANCH   1  16
TORSDOF 6
ENDMDL
MODEL 9
REMARK VINA RESULT:      -6.8      1.625      2.155
REMARK  Name = 
REMARK  8 active torsions:
REMARK  status: ('A' for Active; 'I' for Inactive)
REMARK    1  A    between atoms: C_1  and  O_2
REMARK    2  A    between atoms: O_2  and  C_3
REMARK    3  A    between atoms: C_6  and  C_7
REMARK    4  A    between atoms: C_7  and  C_8
REMARK    5  A    between atoms: N_10  and  C_11
REMARK    6  A    between atoms: C_16  and  N_17
REMARK    7  A    between atoms: C_23  and  O_24
REMARK    8  A    between atoms: O_24  and  C_25
REMARK                            x       y       z     vdW  Elec       q    Type
REMARK                         _______ _______ _______ _____ _____    ______ ____
ROOT
ATOM      1  C   UNL     1       2.430   7.340  18.506  0.00  0.00    +0.000 C 
ATOM      2  O   UNL     1       2.486   7.293  19.729  0.00  0.00    +0.000 OA
ATOM      3  N   UNL     1       2.548   6.246  17.655  0.00  0.00    +0.000 N 
ATOM      4  H   UNL     1       2.912   6.405  16.718  0.00  0.00    +0.000 HD
ENDROOT
BRANCH   3   5
ATOM      5  C   UNL     1       2.689   4.917  18.111  0.00  0.00    +0.000 A 
ATOM      6  C   UNL     1       1.549   4.137  18.365  0.00  0.00    +0.000 A 
ATOM      7  C   UNL     1       1.676   2.815  18.768  0.00  0.00    +0.000 A 
ATOM      8  C   UNL     1       2.943   2.267  18.945  0.00  0.00    +0.000 A 
ATOM      9  C   UNL     1       4.081   3.042  18.695  0.00  0.00    +0.000 A 
ATOM     10  C   UNL     1       3.995   4.371  18.251  0.00  0.00    +0.000 A 
BRANCH  10  11
ATOM     11  N   UNL     1       5.128   5.178  18.011  0.00  0.00    +0.000 N 
ATOM     12  C   UNL     1       6.006   4.902  16.857  0.00  0.00    +0.000 C 
ATOM     13  C   UNL     1       7.380   4.628  17.462  0.00  0.00    +0.000 C 
ATOM     14  C   UNL     1       7.389   5.516  18.689  0.00  0.00    +0.000 C 
ATOM     15  C   UNL     1       5.965   5.380  19.216  0.00  0.00    +0.000 C 
ENDBRANCH  10  11
ENDBRANCH   3   5
BRANCH   1  16
ATOM     16  C   UNL     1       2.218   8.658  17.785  0.00  0.00    +0.000 C 
BRANCH  16  20
ATOM     17  C   UNL     1       0.076  11.622  20.110  0.00  0.00    +0.000 A 
ATOM     18  C   UNL     1      -0.378  10.294  20.054  0.00  0.00    +0.000 A 
ATOM     19  C   UNL     1       0.304   9.328  19.309  0.00  0.00    +0.000 A 
ATOM     20  C   UNL     1       1.444   9.677  18.582  0.00  0.00    +0.000 A 
ATOM     21  C   UNL     1       1.847  11.019  18.577  0.00  0.00    +0.000 A 
ATOM     22  C   UNL     1       1.180  11.996  19.332  0.00  0.00    +0.000 A 
BRANCH  17  24
ATOM     23  C   UNL     1      -0.929  12.141  22.199  0.00  0.00    +0.000 C 
ATOM     24  O   UNL     1      -0.553  12.560  20.887  0.00  0.00    +0.000 OA
ENDBRANCH  17  24
BRANCH  22  25
ATOM     25  O   UNL     1       1.768  13.225  19.191  0.00  0.00    +0.000 OA
ATOM     26  C   UNL     1       2.796  13.406  18.234  0.00  0.00    +0.000 C 
ENDBRANCH  22  25
ENDBRANCH  16  20
ENDBRANCH   1  16
TORSDOF 6
ENDMDL
