MODEL 1
REMARK VINA RESULT:      -6.9      0.000      0.000
REMARK  Name = 
REMARK  8 active torsions:
REMARK  status: ('A' for Active; 'I' for Inactive)
REMARK    1  A    between atoms: C_1  and  C_2
REMARK    2  A    between atoms: C_2  and  C_3
REMARK    3  A    between atoms: C_2  and  C_4
REMARK    4  A    between atoms: C_4  and  N_5
REMARK    5  A    between atoms: C_9  and  C_10
REMARK    6  A    between atoms: C_10  and  N_11
REMARK    7  A    between atoms: N_11  and  S_12
REMARK    8  A    between atoms: S_12  and  N_15
REMARK                            x       y       z     vdW  Elec       q    Type
REMARK                         _______ _______ _______ _____ _____    ______ ____
ROOT
ATOM      1  N   UNL     1       5.356   4.843  16.740  0.00  0.00    +0.000 NA
ATOM      2  H   UNL     1       4.609   5.364  16.272  0.00  0.00    +0.000 HD
ENDROOT
BRANCH   1   3
ATOM      3  S   UNL     1       6.826   5.343  16.148  0.00  0.00    +0.000 S 
ATOM      4  O   UNL     1       6.917   6.770  16.385  0.00  0.00    +0.000 OA
ATOM      5  O   UNL     1       7.847   4.439  16.623  0.00  0.00    +0.000 OA
BRANCH   3   6
ATOM      6  N   UNL     1       6.639   5.099  14.472  0.00  0.00    +0.000 NA
ATOM      7  C   UNL     1       7.904   5.248  13.694  0.00  0.00    +0.000 C 
ATOM      8  C   UNL     1       7.596   5.155  12.203  0.00  0.00    +0.000 C 
ATOM      9  C   UNL     1       6.989   3.798  11.872  0.00  0.00    +0.000 C 
ATOM     10  C   UNL     1       5.732   3.576  12.704  0.00  0.00    +0.000 C 
ATOM     11  C   UNL     1       5.992   3.771  14.196  0.00  0.00    +0.000 C 
ENDBRANCH   3   6
ENDBRANCH   1   3
BRANCH   1  12
ATOM     12  C   UNL     1       5.173   4.938  18.199  0.00  0.00    +0.000 C 
BRANCH  12  17
ATOM     13  N   UNL     1       3.090   5.786  19.430  0.00  0.00    +0.000 N 
ATOM     14  C   UNL     1       2.254   6.871  19.321  0.00  0.00    +0.000 A 
ATOM     15  C   UNL     1       2.728   7.592  18.255  0.00  0.00    +0.000 A 
ATOM     16  N   UNL     1       3.828   6.984  17.716  0.00  0.00    +0.000 NA
ATOM     17  C   UNL     1       4.044   5.897  18.441  0.00  0.00    +0.000 A 
BRANCH  13  18
ATOM     18  C   UNL     1       2.854   4.682  20.339  0.00  0.00    +0.000 C 
BRANCH  18  20
ATOM     19  C   UNL     1       1.242   3.348  18.865  0.00  0.00    +0.000 C 
ATOM     20  C   UNL     1       1.486   3.982  20.236  0.00  0.00    +0.000 C 
ATOM     21  C   UNL     1       1.389   2.917  21.333  0.00  0.00    +0.000 C 
ENDBRANCH  18  20
ENDBRANCH  13  18
ENDBRANCH  12  17
ENDBRANCH   1  12
TORSDOF 6
ENDMDL
MODEL 2
REMARK VINA RESULT:      -6.7      2.722      6.730
REMARK  Name = 
REMARK  8 active torsions:
REMARK  status: ('A' for Active; 'I' for Inactive)
REMARK    1  A    between atoms: C_1  and  C_2
REMARK    2  A    between atoms: C_2  and  C_3
REMARK    3  A    between atoms: C_2  and  C_4
REMARK    4  A    between atoms: C_4  and  N_5
REMARK    5  A    between atoms: C_9  and  C_10
REMARK    6  A    between atoms: C_10  and  N_11
REMARK    7  A    between atoms: N_11  and  S_12
REMARK    8  A    between atoms: S_12  and  N_15
REMARK                            x       y       z     vdW  Elec       q    Type
REMARK                         _______ _______ _______ _____ _____    ______ ____
ROOT
ATOM      1  N   UNL     1       5.129   3.313  17.807  0.00  0.00    +0.000 NA
ATOM      2  H   UNL     1       5.582   4.122  18.241  0.00  0.00    +0.000 HD
ENDROOT
BRANCH   1   3
ATOM      3  S   UNL     1       4.172   2.552  18.933  0.00  0.00    +0.000 S 
ATOM      4  O   UNL     1       3.510   1.455  18.258  0.00  0.00    +0.000 OA
ATOM      5  O   UNL     1       4.952   2.335  20.129  0.00  0.00    +0.000 OA
BRANCH   3   6
ATOM      6  N   UNL     1       3.002   3.744  19.273  0.00  0.00    +0.000 NA
ATOM      7  C   UNL     1       2.074   3.382  20.384  0.00  0.00    +0.000 C 
ATOM      8  C   UNL     1       0.987   4.445  20.503  0.00  0.00    +0.000 C 
ATOM      9  C   UNL     1       1.605   5.801  20.819  0.00  0.00    +0.000 C 
ATOM     10  C   UNL     1       2.616   6.173  19.742  0.00  0.00    +0.000 C 
ATOM     11  C   UNL     1       3.653   5.074  19.528  0.00  0.00    +0.000 C 
ENDBRANCH   3   6
ENDBRANCH   1   3
BRANCH   1  12
ATOM     12  C   UNL     1       4.459   3.741  16.566  0.00  0.00    +0.000 C 
BRANCH  12  17
ATOM     13  N   UNL     1       6.342   5.324  15.839  0.00  0.00    +0.000 N 
ATOM     14  C   UNL     1       7.192   5.416  14.764  0.00  0.00    +0.000 A 
ATOM     15  C   UNL     1       6.850   4.377  13.937  0.00  0.00    +0.000 A 
ATOM     16  N   UNL     1       5.823   3.653  14.476  0.00  0.00    +0.000 NA
ATOM     17  C   UNL     1       5.530   4.229  15.632  0.00  0.00    +0.000 A 
BRANCH  13  18
ATOM     18  C   UNL     1       6.260   6.325  16.884  0.00  0.00    +0.000 C 
BRANCH  18  20
ATOM     19  C   UNL     1       7.708   8.302  17.624  0.00  0.00    +0.000 C 
ATOM     20  C   UNL     1       7.591   6.780  17.510  0.00  0.00    +0.000 C 
ATOM     21  C   UNL     1       7.735   6.137  18.893  0.00  0.00    +0.000 C 
ENDBRANCH  18  20
ENDBRANCH  13  18
ENDBRANCH  12  17
ENDBRANCH   1  12
TORSDOF 6
ENDMDL
MODEL 3
REMARK VINA RESULT:      -6.6      3.097      6.742
REMARK  Name = 
REMARK  8 active torsions:
REMARK  status: ('A' for Active; 'I' for Inactive)
REMARK    1  A    between atoms: C_1  and  C_2
REMARK    2  A    between atoms: C_2  and  C_3
REMARK    3  A    between atoms: C_2  and  C_4
REMARK    4  A    between atoms: C_4  and  N_5
REMARK    5  A    between atoms: C_9  and  C_10
REMARK    6  A    between atoms: C_10  and  N_11
REMARK    7  A    between atoms: N_11  and  S_12
REMARK    8  A    between atoms: S_12  and  N_15
REMARK                            x       y       z     vdW  Elec       q    Type
REMARK                         _______ _______ _______ _____ _____    ______ ____
ROOT
ATOM      1  N   UNL     1       5.578   3.268  19.037  0.00  0.00    +0.000 NA
ATOM      2  H   UNL     1       6.211   3.625  19.758  0.00  0.00    +0.000 HD
ENDROOT
BRANCH   1   3
ATOM      3  S   UNL     1       4.577   2.121  19.704  0.00  0.00    +0.000 S 
ATOM      4  O   UNL     1       4.551   0.996  18.792  0.00  0.00    +0.000 OA
ATOM      5  O   UNL     1       4.932   1.951  21.094  0.00  0.00    +0.000 OA
BRANCH   3   6
ATOM      6  N   UNL     1       3.057   2.888  19.637  0.00  0.00    +0.000 NA
ATOM      7  C   UNL     1       2.167   2.374  18.555  0.00  0.00    +0.000 C 
ATOM      8  C   UNL     1       0.902   3.224  18.493  0.00  0.00    +0.000 C 
ATOM      9  C   UNL     1       0.145   3.144  19.812  0.00  0.00    +0.000 C 
ATOM     10  C   UNL     1       1.049   3.593  20.955  0.00  0.00    +0.000 C 
ATOM     11  C   UNL     1       2.370   2.830  20.972  0.00  0.00    +0.000 C 
ENDBRANCH   3   6
ENDBRANCH   1   3
BRANCH   1  12
ATOM     12  C   UNL     1       4.915   4.403  18.369  0.00  0.00    +0.000 C 
BRANCH  12  17
ATOM     13  N   UNL     1       6.126   5.565  16.431  0.00  0.00    +0.000 N 
ATOM     14  C   UNL     1       6.489   5.227  15.150  0.00  0.00    +0.000 A 
ATOM     15  C   UNL     1       6.023   3.951  14.964  0.00  0.00    +0.000 A 
ATOM     16  N   UNL     1       5.394   3.500  16.092  0.00  0.00    +0.000 NA
ATOM     17  C   UNL     1       5.472   4.482  16.977  0.00  0.00    +0.000 A 
BRANCH  13  18
ATOM     18  C   UNL     1       6.291   6.895  16.985  0.00  0.00    +0.000 C 
BRANCH  18  20
ATOM     19  C   UNL     1       7.862   8.753  17.779  0.00  0.00    +0.000 C 
ATOM     20  C   UNL     1       7.693   7.256  17.510  0.00  0.00    +0.000 C 
ATOM     21  C   UNL     1       7.966   6.457  18.789  0.00  0.00    +0.000 C 
ENDBRANCH  18  20
ENDBRANCH  13  18
ENDBRANCH  12  17
ENDBRANCH   1  12
TORSDOF 6
ENDMDL
MODEL 4
REMARK VINA RESULT:      -6.6      0.993      1.251
REMARK  Name = 
REMARK  8 active torsions:
REMARK  status: ('A' for Active; 'I' for Inactive)
REMARK    1  A    between atoms: C_1  and  C_2
REMARK    2  A    between atoms: C_2  and  C_3
REMARK    3  A    between atoms: C_2  and  C_4
REMARK    4  A    between atoms: C_4  and  N_5
REMARK    5  A    between atoms: C_9  and  C_10
REMARK    6  A    between atoms: C_10  and  N_11
REMARK    7  A    between atoms: N_11  and  S_12
REMARK    8  A    between atoms: S_12  and  N_15
REMARK                            x       y       z     vdW  Elec       q    Type
REMARK                         _______ _______ _______ _____ _____    ______ ____
ROOT
ATOM      1  N   UNL     1       5.365   4.745  16.829  0.00  0.00    +0.000 NA
ATOM      2  H   UNL     1       4.607   5.401  16.619  0.00  0.00    +0.000 HD
ENDROOT
BRANCH   1   3
ATOM      3  S   UNL     1       6.794   5.350  16.233  0.00  0.00    +0.000 S 
ATOM      4  O   UNL     1       6.788   6.778  16.480  0.00  0.00    +0.000 OA
ATOM      5  O   UNL     1       7.877   4.514  16.693  0.00  0.00    +0.000 OA
BRANCH   3   6
ATOM      6  N   UNL     1       6.613   5.107  14.556  0.00  0.00    +0.000 NA
ATOM      7  C   UNL     1       7.878   5.270  13.780  0.00  0.00    +0.000 C 
ATOM      8  C   UNL     1       7.574   5.175  12.289  0.00  0.00    +0.000 C 
ATOM      9  C   UNL     1       6.981   3.813  11.954  0.00  0.00    +0.000 C 
ATOM     10  C   UNL     1       5.724   3.577  12.783  0.00  0.00    +0.000 C 
ATOM     11  C   UNL     1       5.979   3.773  14.276  0.00  0.00    +0.000 C 
ENDBRANCH   3   6
ENDBRANCH   1   3
BRANCH   1  12
ATOM     12  C   UNL     1       5.342   4.423  18.267  0.00  0.00    +0.000 C 
BRANCH  12  17
ATOM     13  N   UNL     1       3.255   4.544  19.751  0.00  0.00    +0.000 N 
ATOM     14  C   UNL     1       2.311   5.496  20.049  0.00  0.00    +0.000 A 
ATOM     15  C   UNL     1       2.653   6.595  19.304  0.00  0.00    +0.000 A 
ATOM     16  N   UNL     1       3.777   6.345  18.566  0.00  0.00    +0.000 NA
ATOM     17  C   UNL     1       4.138   5.103  18.853  0.00  0.00    +0.000 A 
BRANCH  13  18
ATOM     18  C   UNL     1       3.179   3.171  20.209  0.00  0.00    +0.000 C 
BRANCH  18  20
ATOM     19  C   UNL     1       1.354   2.853  18.443  0.00  0.00    +0.000 C 
ATOM     20  C   UNL     1       2.428   2.180  19.301  0.00  0.00    +0.000 C 
ATOM     21  C   UNL     1       3.442   1.459  18.405  0.00  0.00    +0.000 C 
ENDBRANCH  18  20
ENDBRANCH  13  18
ENDBRANCH  12  17
ENDBRANCH   1  12
TORSDOF 6
ENDMDL
MODEL 5
REMARK VINA RESULT:      -6.5      1.715      6.745
REMARK  Name = 
REMARK  8 active torsions:
REMARK  status: ('A' for Active; 'I' for Inactive)
REMARK    1  A    between atoms: C_1  and  C_2
REMARK    2  A    between atoms: C_2  and  C_3
REMARK    3  A    between atoms: C_2  and  C_4
REMARK    4  A    between atoms: C_4  and  N_5
REMARK    5  A    between atoms: C_9  and  C_10
REMARK    6  A    between atoms: C_10  and  N_11
REMARK    7  A    between atoms: N_11  and  S_12
REMARK    8  A    between atoms: S_12  and  N_15
REMARK                            x       y       z     vdW  Elec       q    Type
REMARK                         _______ _______ _______ _____ _____    ______ ____
ROOT
ATOM      1  N   UNL     1       7.330   4.676  16.846  0.00  0.00    +0.000 NA
ATOM      2  H   UNL     1       8.135   5.129  16.405  0.00  0.00    +0.000 HD
ENDROOT
BRANCH   1   3
ATOM      3  S   UNL     1       6.748   5.652  18.059  0.00  0.00    +0.000 S 
ATOM      4  O   UNL     1       7.351   5.200  19.296  0.00  0.00    +0.000 OA
ATOM      5  O   UNL     1       6.851   7.028  17.634  0.00  0.00    +0.000 OA
BRANCH   3   6
ATOM      6  N   UNL     1       5.097   5.231  18.096  0.00  0.00    +0.000 NA
ATOM      7  C   UNL     1       4.725   4.337  19.231  0.00  0.00    +0.000 C 
ATOM      8  C   UNL     1       3.268   3.909  19.083  0.00  0.00    +0.000 C 
ATOM      9  C   UNL     1       2.353   5.127  19.115  0.00  0.00    +0.000 C 
ATOM     10  C   UNL     1       2.750   6.102  18.013  0.00  0.00    +0.000 C 
ATOM     11  C   UNL     1       4.232   6.461  18.075  0.00  0.00    +0.000 C 
ENDBRANCH   3   6
ENDBRANCH   1   3
BRANCH   1  12
ATOM     12  C   UNL     1       6.364   4.283  15.805  0.00  0.00    +0.000 C 
BRANCH  12  17
ATOM     13  N   UNL     1       6.587   4.160  13.254  0.00  0.00    +0.000 N 
ATOM     14  C   UNL     1       7.364   4.772  12.301  0.00  0.00    +0.000 A 
ATOM     15  C   UNL     1       8.196   5.614  12.995  0.00  0.00    +0.000 A 
ATOM     16  N   UNL     1       7.947   5.536  14.337  0.00  0.00    +0.000 NA
ATOM     17  C   UNL     1       6.964   4.660  14.481  0.00  0.00    +0.000 A 
BRANCH  13  18
ATOM     18  C   UNL     1       5.671   3.074  12.963  0.00  0.00    +0.000 C 
BRANCH  18  20
ATOM     19  C   UNL     1       5.790   1.278  11.143  0.00  0.00    +0.000 C 
ATOM     20  C   UNL     1       5.454   2.733  11.477  0.00  0.00    +0.000 C 
ATOM     21  C   UNL     1       3.998   3.035  11.105  0.00  0.00    +0.000 C 
ENDBRANCH  18  20
ENDBRANCH  13  18
ENDBRANCH  12  17
ENDBRANCH   1  12
TORSDOF 6
ENDMDL
MODEL 6
REMARK VINA RESULT:      -6.5      1.118      2.650
REMARK  Name = 
REMARK  8 active torsions:
REMARK  status: ('A' for Active; 'I' for Inactive)
REMARK    1  A    between atoms: C_1  and  C_2
REMARK    2  A    between atoms: C_2  and  C_3
REMARK    3  A    between atoms: C_2  and  C_4
REMARK    4  A    between atoms: C_4  and  N_5
REMARK    5  A    between atoms: C_9  and  C_10
REMARK    6  A    between atoms: C_10  and  N_11
REMARK    7  A    between atoms: N_11  and  S_12
REMARK    8  A    between atoms: S_12  and  N_15
REMARK                            x       y       z     vdW  Elec       q    Type
REMARK                         _______ _______ _______ _____ _____    ______ ____
ROOT
ATOM      1  N   UNL     1       5.154   4.762  16.656  0.00  0.00    +0.000 NA
ATOM      2  H   UNL     1       4.473   5.521  16.747  0.00  0.00    +0.000 HD
ENDROOT
BRANCH   1   3
ATOM      3  S   UNL     1       6.599   5.386  16.119  0.00  0.00    +0.000 S 
ATOM      4  O   UNL     1       6.554   6.816  16.344  0.00  0.00    +0.000 OA
ATOM      5  O   UNL     1       7.674   4.577  16.644  0.00  0.00    +0.000 OA
BRANCH   3   6
ATOM      6  N   UNL     1       6.504   5.114  14.439  0.00  0.00    +0.000 NA
ATOM      7  C   UNL     1       7.809   5.248  13.729  0.00  0.00    +0.000 C 
ATOM      8  C   UNL     1       7.583   5.130  12.225  0.00  0.00    +0.000 C 
ATOM      9  C   UNL     1       6.991   3.769  11.884  0.00  0.00    +0.000 C 
ATOM     10  C   UNL     1       5.689   3.564  12.649  0.00  0.00    +0.000 C 
ATOM     11  C   UNL     1       5.868   3.784  14.149  0.00  0.00    +0.000 C 
ENDBRANCH   3   6
ENDBRANCH   1   3
BRANCH   1  12
ATOM     12  C   UNL     1       5.201   3.998  17.915  0.00  0.00    +0.000 C 
BRANCH  12  17
ATOM     13  N   UNL     1       2.867   4.440  18.879  0.00  0.00    +0.000 N 
ATOM     14  C   UNL     1       1.696   3.731  18.992  0.00  0.00    +0.000 A 
ATOM     15  C   UNL     1       1.961   2.501  18.446  0.00  0.00    +0.000 A 
ATOM     16  N   UNL     1       3.252   2.441  18.000  0.00  0.00    +0.000 NA
ATOM     17  C   UNL     1       3.788   3.624  18.258  0.00  0.00    +0.000 A 
BRANCH  13  18
ATOM     18  C   UNL     1       3.072   5.746  19.473  0.00  0.00    +0.000 C 
BRANCH  18  20
ATOM     19  C   UNL     1       1.893   7.988  19.841  0.00  0.00    +0.000 C 
ATOM     20  C   UNL     1       2.322   6.925  18.827  0.00  0.00    +0.000 C 
ATOM     21  C   UNL     1       3.216   7.555  17.753  0.00  0.00    +0.000 C 
ENDBRANCH  18  20
ENDBRANCH  13  18
ENDBRANCH  12  17
ENDBRANCH   1  12
TORSDOF 6
ENDMDL
MODEL 7
REMARK VINA RESULT:      -6.4      1.146      2.343
REMARK  Name = 
REMARK  8 active torsions:
REMARK  status: ('A' for Active; 'I' for Inactive)
REMARK    1  A    between atoms: C_1  and  C_2
REMARK    2  A    between atoms: C_2  and  C_3
REMARK    3  A    between atoms: C_2  and  C_4
REMARK    4  A    between atoms: C_4  and  N_5
REMARK    5  A    between atoms: C_9  and  C_10
REMARK    6  A    between atoms: C_10  and  N_11
REMARK    7  A    between atoms: N_11  and  S_12
REMARK    8  A    between atoms: S_12  and  N_15
REMARK                            x       y       z     vdW  Elec       q    Type
REMARK                         _______ _______ _______ _____ _____    ______ ____
ROOT
ATOM      1  N   UNL     1       5.464   5.715  16.960  0.00  0.00    +0.000 NA
ATOM      2  H   UNL     1       5.227   6.709  17.019  0.00  0.00    +0.000 HD
ENDROOT
BRANCH   1   3
ATOM      3  S   UNL     1       7.001   5.554  16.348  0.00  0.00    +0.000 S 
ATOM      4  O   UNL     1       7.631   6.856  16.431  0.00  0.00    +0.000 OA
ATOM      5  O   UNL     1       7.613   4.387  16.937  0.00  0.00    +0.000 OA
BRANCH   3   6
ATOM      6  N   UNL     1       6.699   5.221  14.704  0.00  0.00    +0.000 NA
ATOM      7  C   UNL     1       7.912   5.295  13.838  0.00  0.00    +0.000 C 
ATOM      8  C   UNL     1       7.504   5.125  12.378  0.00  0.00    +0.000 C 
ATOM      9  C   UNL     1       6.849   3.767  12.166  0.00  0.00    +0.000 C 
ATOM     10  C   UNL     1       5.646   3.622  13.090  0.00  0.00    +0.000 C 
ATOM     11  C   UNL     1       6.008   3.895  14.547  0.00  0.00    +0.000 C 
ENDBRANCH   3   6
ENDBRANCH   1   3
BRANCH   1  12
ATOM     12  C   UNL     1       5.211   5.077  18.264  0.00  0.00    +0.000 C 
BRANCH  12  17
ATOM     13  N   UNL     1       2.751   4.600  18.808  0.00  0.00    +0.000 N 
ATOM     14  C   UNL     1       1.812   3.683  18.404  0.00  0.00    +0.000 A 
ATOM     15  C   UNL     1       2.459   2.864  17.515  0.00  0.00    +0.000 A 
ATOM     16  N   UNL     1       3.760   3.257  17.360  0.00  0.00    +0.000 NA
ATOM     17  C   UNL     1       3.923   4.316  18.140  0.00  0.00    +0.000 A 
BRANCH  13  18
ATOM     18  C   UNL     1       2.526   5.563  19.868  0.00  0.00    +0.000 C 
BRANCH  18  20
ATOM     19  C   UNL     1       2.175   7.307  18.028  0.00  0.00    +0.000 C 
ATOM     20  C   UNL     1       2.595   7.051  19.477  0.00  0.00    +0.000 C 
ATOM     21  C   UNL     1       1.710   7.858  20.433  0.00  0.00    +0.000 C 
ENDBRANCH  18  20
ENDBRANCH  13  18
ENDBRANCH  12  17
ENDBRANCH   1  12
TORSDOF 6
ENDMDL
MODEL 8
REMARK VINA RESULT:      -6.4      1.368      2.631
REMARK  Name = 
REMARK  8 active torsions:
REMARK  status: ('A' for Active; 'I' for Inactive)
REMARK    1  A    between atoms: C_1  and  C_2
REMARK    2  A    between atoms: C_2  and  C_3
REMARK    3  A    between atoms: C_2  and  C_4
REMARK    4  A    between atoms: C_4  and  N_5
REMARK    5  A    between atoms: C_9  and  C_10
REMARK    6  A    between atoms: C_10  and  N_11
REMARK    7  A    between atoms: N_11  and  S_12
REMARK    8  A    between atoms: S_12  and  N_15
REMARK                            x       y       z     vdW  Elec       q    Type
REMARK                         _______ _______ _______ _____ _____    ______ ____
ROOT
ATOM      1  N   UNL     1       5.915   4.626  16.905  0.00  0.00    +0.000 NA
ATOM      2  H   UNL     1       5.023   4.265  16.557  0.00  0.00    +0.000 HD
ENDROOT
BRANCH   1   3
ATOM      3  S   UNL     1       6.362   5.947  16.001  0.00  0.00    +0.000 S 
ATOM      4  O   UNL     1       5.324   6.945  16.163  0.00  0.00    +0.000 OA
ATOM      5  O   UNL     1       7.746   6.252  16.282  0.00  0.00    +0.000 OA
BRANCH   3   6
ATOM      6  N   UNL     1       6.266   5.342  14.411  0.00  0.00    +0.000 NA
ATOM      7  C   UNL     1       7.593   5.132  13.761  0.00  0.00    +0.000 C 
ATOM      8  C   UNL     1       7.386   4.731  12.304  0.00  0.00    +0.000 C 
ATOM      9  C   UNL     1       6.602   3.429  12.219  0.00  0.00    +0.000 C 
ATOM     10  C   UNL     1       5.267   3.580  12.938  0.00  0.00    +0.000 C 
ATOM     11  C   UNL     1       5.442   4.085  14.368  0.00  0.00    +0.000 C 
ENDBRANCH   3   6
ENDBRANCH   1   3
BRANCH   1  12
ATOM     12  C   UNL     1       5.819   4.834  18.361  0.00  0.00    +0.000 C 
BRANCH  12  17
ATOM     13  N   UNL     1       3.356   4.189  18.660  0.00  0.00    +0.000 N 
ATOM     14  C   UNL     1       2.672   3.157  19.256  0.00  0.00    +0.000 A 
ATOM     15  C   UNL     1       3.635   2.351  19.808  0.00  0.00    +0.000 A 
ATOM     16  N   UNL     1       4.882   2.857  19.562  0.00  0.00    +0.000 NA
ATOM     17  C   UNL     1       4.701   3.964  18.858  0.00  0.00    +0.000 A 
BRANCH  13  18
ATOM     18  C   UNL     1       2.708   5.353  18.088  0.00  0.00    +0.000 C 
BRANCH  18  20
ATOM     19  C   UNL     1       2.499   7.902  18.003  0.00  0.00    +0.000 C 
ATOM     20  C   UNL     1       2.884   6.683  18.844  0.00  0.00    +0.000 C 
ATOM     21  C   UNL     1       2.043   6.641  20.125  0.00  0.00    +0.000 C 
ENDBRANCH  18  20
ENDBRANCH  13  18
ENDBRANCH  12  17
ENDBRANCH   1  12
TORSDOF 6
ENDMDL
MODEL 9
REMARK VINA RESULT:      -6.4      2.956      6.951
REMARK  Name = 
REMARK  8 active torsions:
REMARK  status: ('A' for Active; 'I' for Inactive)
REMARK    1  A    between atoms: C_1  and  C_2
REMARK    2  A    between atoms: C_2  and  C_3
REMARK    3  A    between atoms: C_2  and  C_4
REMARK    4  A    between atoms: C_4  and  N_5
REMARK    5  A    between atoms: C_9  and  C_10
REMARK    6  A    between atoms: C_10  and  N_11
REMARK    7  A    between atoms: N_11  and  S_12
REMARK    8  A    between atoms: S_12  and  N_15
REMARK                            x       y       z     vdW  Elec       q    Type
REMARK                         _______ _______ _______ _____ _____    ______ ____
ROOT
ATOM      1  N   UNL     1       3.412   4.439  17.422  0.00  0.00    +0.000 NA
ATOM      2  H   UNL     1       3.390   5.019  16.579  0.00  0.00    +0.000 HD
ENDROOT
BRANCH   1   3
ATOM      3  S   UNL     1       1.986   3.593  17.541  0.00  0.00    +0.000 S 
ATOM      4  O   UNL     1       0.968   4.380  16.876  0.00  0.00    +0.000 OA
ATOM      5  O   UNL     1       2.232   2.219  17.171  0.00  0.00    +0.000 OA
BRANCH   3   6
ATOM      6  N   UNL     1       1.678   3.643  19.216  0.00  0.00    +0.000 NA
ATOM      7  C   UNL     1       1.853   2.330  19.903  0.00  0.00    +0.000 C 
ATOM      8  C   UNL     1       1.414   2.457  21.359  0.00  0.00    +0.000 C 
ATOM      9  C   UNL     1       2.267   3.491  22.081  0.00  0.00    +0.000 C 
ATOM     10  C   UNL     1       2.173   4.832  21.363  0.00  0.00    +0.000 C 
ATOM     11  C   UNL     1       2.504   4.710  19.878  0.00  0.00    +0.000 C 
ENDBRANCH   3   6
ENDBRANCH   1   3
BRANCH   1  12
ATOM     12  C   UNL     1       4.648   3.637  17.427  0.00  0.00    +0.000 C 
BRANCH  12  17
ATOM     13  N   UNL     1       6.783   4.439  16.255  0.00  0.00    +0.000 N 
ATOM     14  C   UNL     1       7.147   4.737  14.965  0.00  0.00    +0.000 A 
ATOM     15  C   UNL     1       6.016   4.546  14.213  0.00  0.00    +0.000 A 
ATOM     16  N   UNL     1       4.978   4.135  15.003  0.00  0.00    +0.000 NA
ATOM     17  C   UNL     1       5.457   4.065  16.237  0.00  0.00    +0.000 A 
BRANCH  13  18
ATOM     18  C   UNL     1       7.644   4.658  17.401  0.00  0.00    +0.000 C 
BRANCH  18  20
ATOM     19  C   UNL     1       7.955   5.728  19.705  0.00  0.00    +0.000 C 
ATOM     20  C   UNL     1       7.258   5.811  18.345  0.00  0.00    +0.000 C 
ATOM     21  C   UNL     1       7.588   7.144  17.665  0.00  0.00    +0.000 C 
ENDBRANCH  18  20
ENDBRANCH  13  18
ENDBRANCH  12  17
ENDBRANCH   1  12
TORSDOF 6
ENDMDL
