MODEL 1
REMARK VINA RESULT:      -7.9      0.000      0.000
REMARK  Name = 
REMARK  12 active torsions:
REMARK  status: ('A' for Active; 'I' for Inactive)
REMARK    1  A    between atoms: C_1  and  C_2
REMARK    2  A    between atoms: C_5  and  C_6
REMARK    3  A    between atoms: C_6  and  C_7
REMARK    4  A    between atoms: C_6  and  N_14
REMARK    5  A    between atoms: C_10  and  C_11
REMARK    6  A    between atoms: N_17  and  C_18
REMARK    7  A    between atoms: C_18  and  C_19
REMARK    8  A    between atoms: C_19  and  C_20
REMARK    9  A    between atoms: C_20  and  C_21
REMARK   10  A    between atoms: C_21  and  N_22
REMARK   11  A    between atoms: C_23  and  C_25
REMARK   12  A    between atoms: C_26  and  C_27
REMARK                            x       y       z     vdW  Elec       q    Type
REMARK                         _______ _______ _______ _____ _____    ______ ____
ROOT
ATOM      1  N   UNL     1       1.119   9.332  19.435  0.00  0.00    +0.000 NA
ATOM      2  C   UNL     1       1.727   8.498  20.464  0.00  0.00    +0.000 C 
ATOM      3  C   UNL     1       1.780   7.022  19.976  0.00  0.00    +0.000 C 
ATOM      4  N   UNL     1       2.372   6.823  18.630  0.00  0.00    +0.000 NA
ATOM      5  C   UNL     1       1.700   7.753  17.692  0.00  0.00    +0.000 C 
ATOM      6  C   UNL     1       1.751   9.234  18.131  0.00  0.00    +0.000 C 
ENDROOT
BRANCH   1   7
ATOM      7  C   UNL     1       0.455  10.578  19.778  0.00  0.00    +0.000 C 
BRANCH   7  12
ATOM      8  C   UNL     1       3.480  15.544  19.107  0.00  0.00    +0.000 C 
ATOM      9  C   UNL     1       2.821  14.210  19.273  0.00  0.00    +0.000 A 
ATOM     10  C   UNL     1       2.511  13.402  18.174  0.00  0.00    +0.000 A 
ATOM     11  C   UNL     1       1.806  12.205  18.346  0.00  0.00    +0.000 A 
ATOM     12  C   UNL     1       1.394  11.793  19.623  0.00  0.00    +0.000 A 
ATOM     13  C   UNL     1       1.751  12.601  20.717  0.00  0.00    +0.000 A 
ATOM     14  C   UNL     1       2.467  13.784  20.550  0.00  0.00    +0.000 A 
ENDBRANCH   7  12
BRANCH   7  15
ATOM     15  C   UNL     1      -0.946  10.746  19.203  0.00  0.00    +0.000 A 
ATOM     16  C   UNL     1      -1.398   9.980  18.119  0.00  0.00    +0.000 A 
ATOM     17  C   UNL     1      -2.614  10.270  17.498  0.00  0.00    +0.000 A 
ATOM     18  C   UNL     1      -3.416  11.321  17.956  0.00  0.00    +0.000 A 
ATOM     19  C   UNL     1      -4.665  11.712  17.224  0.00  0.00    +0.000 C 
ATOM     20  C   UNL     1      -3.013  12.037  19.088  0.00  0.00    +0.000 A 
ATOM     21  C   UNL     1      -1.794  11.748  19.710  0.00  0.00    +0.000 A 
ENDBRANCH   7  15
ENDBRANCH   1   7
BRANCH   4  22
ATOM     22  C   UNL     1       3.823   7.061  18.626  0.00  0.00    +0.000 C 
BRANCH  22  23
ATOM     23  C   UNL     1       4.642   5.834  18.215  0.00  0.00    +0.000 C 
BRANCH  23  24
ATOM     24  C   UNL     1       5.084   5.838  16.752  0.00  0.00    +0.000 C 
BRANCH  24  25
ATOM     25  C   UNL     1       6.595   5.988  16.618  0.00  0.00    +0.000 C 
BRANCH  25  26
ATOM     26  N   UNL     1       7.016   7.352  16.830  0.00  0.00    +0.000 N 
ATOM     27  C   UNL     1       7.789   7.703  17.907  0.00  0.00    +0.000 C 
ATOM     28  O   UNL     1       8.179   6.920  18.766  0.00  0.00    +0.000 OA
ATOM     29  H   UNL     1       6.785   8.030  16.120  0.00  0.00    +0.000 HD
BRANCH  27  30
ATOM     30  C   UNL     1       8.095   9.145  17.931  0.00  0.00    +0.000 C 
ATOM     31  C   UNL     1       9.023   9.598  18.782  0.00  0.00    +0.000 C 
BRANCH  31  32
ATOM     32  C   UNL     1       9.400  11.009  18.900  0.00  0.00    +0.000 A 
ATOM     33  C   UNL     1       9.246  11.931  17.862  0.00  0.00    +0.000 A 
ATOM     34  C   UNL     1       9.603  13.265  18.063  0.00  0.00    +0.000 A 
ATOM     35  C   UNL     1      10.091  13.632  19.300  0.00  0.00    +0.000 A 
ATOM     36  N   UNL     1      10.238  12.776  20.334  0.00  0.00    +0.000 NA
ATOM     37  C   UNL     1       9.887  11.489  20.114  0.00  0.00    +0.000 A 
ENDBRANCH  31  32
ENDBRANCH  27  30
ENDBRANCH  25  26
ENDBRANCH  24  25
ENDBRANCH  23  24
ENDBRANCH  22  23
ENDBRANCH   4  22
TORSDOF 10
ENDMDL
MODEL 2
REMARK VINA RESULT:      -7.7      3.233      6.654
REMARK  Name = 
REMARK  12 active torsions:
REMARK  status: ('A' for Active; 'I' for Inactive)
REMARK    1  A    between atoms: C_1  and  C_2
REMARK    2  A    between atoms: C_5  and  C_6
REMARK    3  A    between atoms: C_6  and  C_7
REMARK    4  A    between atoms: C_6  and  N_14
REMARK    5  A    between atoms: C_10  and  C_11
REMARK    6  A    between atoms: N_17  and  C_18
REMARK    7  A    between atoms: C_18  and  C_19
REMARK    8  A    between atoms: C_19  and  C_20
REMARK    9  A    between atoms: C_20  and  C_21
REMARK   10  A    between atoms: C_21  and  N_22
REMARK   11  A    between atoms: C_23  and  C_25
REMARK   12  A    between atoms: C_26  and  C_27
REMARK                            x       y       z     vdW  Elec       q    Type
REMARK                         _______ _______ _______ _____ _____    ______ ____
ROOT
ATOM      1  N   UNL     1       4.297   6.174  17.859  0.00  0.00    +0.000 NA
ATOM      2  C   UNL     1       5.278   6.469  18.896  0.00  0.00    +0.000 C 
ATOM      3  C   UNL     1       6.644   5.826  18.521  0.00  0.00    +0.000 C 
ATOM      4  N   UNL     1       7.126   6.126  17.150  0.00  0.00    +0.000 NA
ATOM      5  C   UNL     1       6.029   5.826  16.201  0.00  0.00    +0.000 C 
ATOM      6  C   UNL     1       4.705   6.558  16.519  0.00  0.00    +0.000 C 
ENDROOT
BRANCH   1   7
ATOM      7  C   UNL     1       2.875   6.154  18.158  0.00  0.00    +0.000 C 
BRANCH   7  12
ATOM      8  C   UNL     1       1.960   1.665  21.803  0.00  0.00    +0.000 C 
ATOM      9  C   UNL     1       2.092   2.770  20.800  0.00  0.00    +0.000 A 
ATOM     10  C   UNL     1       2.775   2.590  19.593  0.00  0.00    +0.000 A 
ATOM     11  C   UNL     1       2.970   3.664  18.717  0.00  0.00    +0.000 A 
ATOM     12  C   UNL     1       2.488   4.943  19.034  0.00  0.00    +0.000 A 
ATOM     13  C   UNL     1       1.770   5.093  20.234  0.00  0.00    +0.000 A 
ATOM     14  C   UNL     1       1.560   4.021  21.099  0.00  0.00    +0.000 A 
ENDBRANCH   7  12
BRANCH   7  15
ATOM     15  C   UNL     1       2.280   7.492  18.579  0.00  0.00    +0.000 A 
ATOM     16  C   UNL     1       1.965   7.773  19.916  0.00  0.00    +0.000 A 
ATOM     17  C   UNL     1       1.262   8.932  20.255  0.00  0.00    +0.000 A 
ATOM     18  C   UNL     1       0.873   9.843  19.269  0.00  0.00    +0.000 A 
ATOM     19  C   UNL     1       0.018  11.028  19.609  0.00  0.00    +0.000 C 
ATOM     20  C   UNL     1       1.255   9.612  17.943  0.00  0.00    +0.000 A 
ATOM     21  C   UNL     1       1.958   8.452  17.603  0.00  0.00    +0.000 A 
ENDBRANCH   7  15
ENDBRANCH   1   7
BRANCH   4  22
ATOM     22  C   UNL     1       7.547   7.528  17.009  0.00  0.00    +0.000 C 
BRANCH  22  23
ATOM     23  C   UNL     1       8.267   8.077  18.244  0.00  0.00    +0.000 C 
BRANCH  23  24
ATOM     24  C   UNL     1       8.444   9.595  18.243  0.00  0.00    +0.000 C 
BRANCH  24  25
ATOM     25  C   UNL     1       9.552  10.035  19.193  0.00  0.00    +0.000 C 
BRANCH  25  26
ATOM     26  N   UNL     1       9.030  10.777  20.314  0.00  0.00    +0.000 N 
ATOM     27  C   UNL     1       9.777  11.738  20.947  0.00  0.00    +0.000 C 
ATOM     28  O   UNL     1      10.921  12.045  20.633  0.00  0.00    +0.000 OA
ATOM     29  H   UNL     1       8.068  10.619  20.576  0.00  0.00    +0.000 HD
BRANCH  27  30
ATOM     30  C   UNL     1       9.053  12.363  22.068  0.00  0.00    +0.000 C 
ATOM     31  C   UNL     1       8.104  11.663  22.701  0.00  0.00    +0.000 C 
BRANCH  31  32
ATOM     32  C   UNL     1       7.314  12.185  23.819  0.00  0.00    +0.000 A 
ATOM     33  C   UNL     1       7.721  12.089  25.152  0.00  0.00    +0.000 A 
ATOM     34  C   UNL     1       6.925  12.637  26.158  0.00  0.00    +0.000 A 
ATOM     35  C   UNL     1       5.756  13.274  25.794  0.00  0.00    +0.000 A 
ATOM     36  N   UNL     1       5.338  13.404  24.518  0.00  0.00    +0.000 NA
ATOM     37  C   UNL     1       6.124  12.862  23.561  0.00  0.00    +0.000 A 
ENDBRANCH  31  32
ENDBRANCH  27  30
ENDBRANCH  25  26
ENDBRANCH  24  25
ENDBRANCH  23  24
ENDBRANCH  22  23
ENDBRANCH   4  22
TORSDOF 10
ENDMDL
MODEL 3
REMARK VINA RESULT:      -7.6      2.593      6.421
REMARK  Name = 
REMARK  12 active torsions:
REMARK  status: ('A' for Active; 'I' for Inactive)
REMARK    1  A    between atoms: C_1  and  C_2
REMARK    2  A    between atoms: C_5  and  C_6
REMARK    3  A    between atoms: C_6  and  C_7
REMARK    4  A    between atoms: C_6  and  N_14
REMARK    5  A    between atoms: C_10  and  C_11
REMARK    6  A    between atoms: N_17  and  C_18
REMARK    7  A    between atoms: C_18  and  C_19
REMARK    8  A    between atoms: C_19  and  C_20
REMARK    9  A    between atoms: C_20  and  C_21
REMARK   10  A    between atoms: C_21  and  N_22
REMARK   11  A    between atoms: C_23  and  C_25
REMARK   12  A    between atoms: C_26  and  C_27
REMARK                            x       y       z     vdW  Elec       q    Type
REMARK                         _______ _______ _______ _____ _____    ______ ____
ROOT
ATOM      1  N   UNL     1       1.204  11.936  19.681  0.00  0.00    +0.000 NA
ATOM      2  C   UNL     1       1.304  12.781  20.865  0.00  0.00    +0.000 C 
ATOM      3  C   UNL     1       2.659  13.543  20.850  0.00  0.00    +0.000 C 
ATOM      4  N   UNL     1       2.966  14.259  19.587  0.00  0.00    +0.000 NA
ATOM      5  C   UNL     1       2.789  13.308  18.465  0.00  0.00    +0.000 C 
ATOM      6  C   UNL     1       1.396  12.637  18.424  0.00  0.00    +0.000 C 
ENDROOT
BRANCH   1   7
ATOM      7  C   UNL     1       0.366  10.749  19.677  0.00  0.00    +0.000 C 
BRANCH   7  12
ATOM      8  C   UNL     1      -4.975  11.205  17.327  0.00  0.00    +0.000 C 
ATOM      9  C   UNL     1      -3.567  11.171  17.835  0.00  0.00    +0.000 A 
ATOM     10  C   UNL     1      -2.604  10.325  17.275  0.00  0.00    +0.000 A 
ATOM     11  C   UNL     1      -1.322  10.238  17.831  0.00  0.00    +0.000 A 
ATOM     12  C   UNL     1      -0.978  10.996  18.961  0.00  0.00    +0.000 A 
ATOM     13  C   UNL     1      -1.950  11.869  19.483  0.00  0.00    +0.000 A 
ATOM     14  C   UNL     1      -3.220  11.970  18.921  0.00  0.00    +0.000 A 
ENDBRANCH   7  12
BRANCH   7  15
ATOM     15  C   UNL     1       1.079   9.452  19.319  0.00  0.00    +0.000 A 
ATOM     16  C   UNL     1       1.268   8.428  20.258  0.00  0.00    +0.000 A 
ATOM     17  C   UNL     1       2.075   7.327  19.961  0.00  0.00    +0.000 A 
ATOM     18  C   UNL     1       2.696   7.214  18.714  0.00  0.00    +0.000 A 
ATOM     19  C   UNL     1       3.654   6.097  18.428  0.00  0.00    +0.000 C 
ATOM     20  C   UNL     1       2.446   8.189  17.741  0.00  0.00    +0.000 A 
ATOM     21  C   UNL     1       1.640   9.292  18.039  0.00  0.00    +0.000 A 
ENDBRANCH   7  15
ENDBRANCH   1   7
BRANCH   4  22
ATOM     22  C   UNL     1       2.102  15.434  19.396  0.00  0.00    +0.000 C 
BRANCH  22  23
ATOM     23  C   UNL     1       2.595  16.682  20.134  0.00  0.00    +0.000 C 
BRANCH  23  24
ATOM     24  C   UNL     1       4.106  16.719  20.360  0.00  0.00    +0.000 C 
BRANCH  24  25
ATOM     25  C   UNL     1       4.859  17.081  19.085  0.00  0.00    +0.000 C 
BRANCH  25  26
ATOM     26  N   UNL     1       6.155  16.448  19.033  0.00  0.00    +0.000 N 
ATOM     27  C   UNL     1       6.393  15.374  18.214  0.00  0.00    +0.000 C 
ATOM     28  O   UNL     1       5.557  14.864  17.477  0.00  0.00    +0.000 OA
ATOM     29  H   UNL     1       6.903  16.865  19.565  0.00  0.00    +0.000 HD
BRANCH  27  30
ATOM     30  C   UNL     1       7.777  14.880  18.325  0.00  0.00    +0.000 C 
ATOM     31  C   UNL     1       8.034  13.596  18.048  0.00  0.00    +0.000 C 
BRANCH  31  32
ATOM     32  C   UNL     1       9.367  12.995  18.135  0.00  0.00    +0.000 A 
ATOM     33  C   UNL     1       9.617  11.779  18.777  0.00  0.00    +0.000 A 
ATOM     34  C   UNL     1      10.911  11.259  18.792  0.00  0.00    +0.000 A 
ATOM     35  C   UNL     1      11.908  11.967  18.153  0.00  0.00    +0.000 A 
ATOM     36  N   UNL     1      11.705  13.135  17.507  0.00  0.00    +0.000 NA
ATOM     37  C   UNL     1      10.443  13.620  17.508  0.00  0.00    +0.000 A 
ENDBRANCH  31  32
ENDBRANCH  27  30
ENDBRANCH  25  26
ENDBRANCH  24  25
ENDBRANCH  23  24
ENDBRANCH  22  23
ENDBRANCH   4  22
TORSDOF 10
ENDMDL
MODEL 4
REMARK VINA RESULT:      -7.6      2.820      6.507
REMARK  Name = 
REMARK  12 active torsions:
REMARK  status: ('A' for Active; 'I' for Inactive)
REMARK    1  A    between atoms: C_1  and  C_2
REMARK    2  A    between atoms: C_5  and  C_6
REMARK    3  A    between atoms: C_6  and  C_7
REMARK    4  A    between atoms: C_6  and  N_14
REMARK    5  A    between atoms: C_10  and  C_11
REMARK    6  A    between atoms: N_17  and  C_18
REMARK    7  A    between atoms: C_18  and  C_19
REMARK    8  A    between atoms: C_19  and  C_20
REMARK    9  A    between atoms: C_20  and  C_21
REMARK   10  A    between atoms: C_21  and  N_22
REMARK   11  A    between atoms: C_23  and  C_25
REMARK   12  A    between atoms: C_26  and  C_27
REMARK                            x       y       z     vdW  Elec       q    Type
REMARK                         _______ _______ _______ _____ _____    ______ ____
ROOT
ATOM      1  N   UNL     1       1.404  11.973  19.660  0.00  0.00    +0.000 NA
ATOM      2  C   UNL     1       1.486  12.801  20.857  0.00  0.00    +0.000 C 
ATOM      3  C   UNL     1       2.808  13.620  20.836  0.00  0.00    +0.000 C 
ATOM      4  N   UNL     1       3.066  14.369  19.581  0.00  0.00    +0.000 NA
ATOM      5  C   UNL     1       2.911  13.431  18.446  0.00  0.00    +0.000 C 
ATOM      6  C   UNL     1       1.548  12.703  18.413  0.00  0.00    +0.000 C 
ENDROOT
BRANCH   1   7
ATOM      7  C   UNL     1       0.616  10.752  19.647  0.00  0.00    +0.000 C 
BRANCH   7  12
ATOM      8  C   UNL     1      -4.706  10.994  17.221  0.00  0.00    +0.000 C 
ATOM      9  C   UNL     1      -3.303  11.012  17.746  0.00  0.00    +0.000 A 
ATOM     10  C   UNL     1      -2.315  10.166  17.231  0.00  0.00    +0.000 A 
ATOM     11  C   UNL     1      -1.038  10.130  17.804  0.00  0.00    +0.000 A 
ATOM     12  C   UNL     1      -0.725  10.940  18.907  0.00  0.00    +0.000 A 
ATOM     13  C   UNL     1      -1.722  11.811  19.382  0.00  0.00    +0.000 A 
ATOM     14  C   UNL     1      -2.987  11.861  18.802  0.00  0.00    +0.000 A 
ENDBRANCH   7  12
BRANCH   7  15
ATOM     15  C   UNL     1       1.389   9.484  19.307  0.00  0.00    +0.000 A 
ATOM     16  C   UNL     1       1.994   9.301  18.055  0.00  0.00    +0.000 A 
ATOM     17  C   UNL     1       2.543   8.066  17.703  0.00  0.00    +0.000 A 
ATOM     18  C   UNL     1       2.517   6.993  18.598  0.00  0.00    +0.000 A 
ATOM     19  C   UNL     1       3.000   5.634  18.186  0.00  0.00    +0.000 C 
ATOM     20  C   UNL     1       1.990   7.190  19.879  0.00  0.00    +0.000 A 
ATOM     21  C   UNL     1       1.439   8.426  20.232  0.00  0.00    +0.000 A 
ENDBRANCH   7  15
ENDBRANCH   1   7
BRANCH   4  22
ATOM     22  C   UNL     1       2.151  15.510  19.423  0.00  0.00    +0.000 C 
BRANCH  22  23
ATOM     23  C   UNL     1       2.682  16.809  20.036  0.00  0.00    +0.000 C 
BRANCH  23  24
ATOM     24  C   UNL     1       4.204  16.941  20.001  0.00  0.00    +0.000 C 
BRANCH  24  25
ATOM     25  C   UNL     1       4.743  16.881  18.577  0.00  0.00    +0.000 C 
BRANCH  25  26
ATOM     26  N   UNL     1       5.770  15.877  18.438  0.00  0.00    +0.000 N 
ATOM     27  C   UNL     1       7.102  16.202  18.494  0.00  0.00    +0.000 C 
ATOM     28  O   UNL     1       7.532  17.338  18.657  0.00  0.00    +0.000 OA
ATOM     29  H   UNL     1       5.479  14.913  18.370  0.00  0.00    +0.000 HD
BRANCH  27  30
ATOM     30  C   UNL     1       7.974  15.027  18.321  0.00  0.00    +0.000 C 
ATOM     31  C   UNL     1       8.945  14.801  19.213  0.00  0.00    +0.000 C 
BRANCH  31  32
ATOM     32  C   UNL     1       9.877  13.673  19.136  0.00  0.00    +0.000 A 
ATOM     33  C   UNL     1      10.688  13.277  20.202  0.00  0.00    +0.000 A 
ATOM     34  C   UNL     1      11.530  12.174  20.058  0.00  0.00    +0.000 A 
ATOM     35  C   UNL     1      11.520  11.497  18.856  0.00  0.00    +0.000 A 
ATOM     36  N   UNL     1      10.739  11.836  17.809  0.00  0.00    +0.000 NA
ATOM     37  C   UNL     1       9.934  12.910  17.972  0.00  0.00    +0.000 A 
ENDBRANCH  31  32
ENDBRANCH  27  30
ENDBRANCH  25  26
ENDBRANCH  24  25
ENDBRANCH  23  24
ENDBRANCH  22  23
ENDBRANCH   4  22
TORSDOF 10
ENDMDL
MODEL 5
REMARK VINA RESULT:      -7.6      1.042      3.963
REMARK  Name = 
REMARK  12 active torsions:
REMARK  status: ('A' for Active; 'I' for Inactive)
REMARK    1  A    between atoms: C_1  and  C_2
REMARK    2  A    between atoms: C_5  and  C_6
REMARK    3  A    between atoms: C_6  and  C_7
REMARK    4  A    between atoms: C_6  and  N_14
REMARK    5  A    between atoms: C_10  and  C_11
REMARK    6  A    between atoms: N_17  and  C_18
REMARK    7  A    between atoms: C_18  and  C_19
REMARK    8  A    between atoms: C_19  and  C_20
REMARK    9  A    between atoms: C_20  and  C_21
REMARK   10  A    between atoms: C_21  and  N_22
REMARK   11  A    between atoms: C_23  and  C_25
REMARK   12  A    between atoms: C_26  and  C_27
REMARK                            x       y       z     vdW  Elec       q    Type
REMARK                         _______ _______ _______ _____ _____    ______ ____
ROOT
ATOM      1  N   UNL     1       1.312   9.216  18.637  0.00  0.00    +0.000 NA
ATOM      2  C   UNL     1       1.646   8.885  20.017  0.00  0.00    +0.000 C 
ATOM      3  C   UNL     1       1.512   7.351  20.232  0.00  0.00    +0.000 C 
ATOM      4  N   UNL     1       2.219   6.509  19.236  0.00  0.00    +0.000 NA
ATOM      5  C   UNL     1       1.828   6.972  17.884  0.00  0.00    +0.000 C 
ATOM      6  C   UNL     1       2.070   8.480  17.641  0.00  0.00    +0.000 C 
ENDROOT
BRANCH   1   7
ATOM      7  C   UNL     1       0.827  10.539  18.282  0.00  0.00    +0.000 C 
BRANCH   7  12
ATOM      8  C   UNL     1      -4.964  11.185  17.717  0.00  0.00    +0.000 C 
ATOM      9  C   UNL     1      -3.506  10.956  17.974  0.00  0.00    +0.000 A 
ATOM     10  C   UNL     1      -2.766  11.799  18.809  0.00  0.00    +0.000 A 
ATOM     11  C   UNL     1      -1.385  11.624  18.955  0.00  0.00    +0.000 A 
ATOM     12  C   UNL     1      -0.715  10.602  18.265  0.00  0.00    +0.000 A 
ATOM     13  C   UNL     1      -1.486   9.741  17.462  0.00  0.00    +0.000 A 
ATOM     14  C   UNL     1      -2.863   9.904  17.329  0.00  0.00    +0.000 A 
ENDBRANCH   7  12
BRANCH   7  15
ATOM     15  C   UNL     1       1.529  11.698  18.979  0.00  0.00    +0.000 A 
ATOM     16  C   UNL     1       1.261  12.028  20.315  0.00  0.00    +0.000 A 
ATOM     17  C   UNL     1       1.781  13.195  20.880  0.00  0.00    +0.000 A 
ATOM     18  C   UNL     1       2.593  14.049  20.129  0.00  0.00    +0.000 A 
ATOM     19  C   UNL     1       3.059  15.360  20.689  0.00  0.00    +0.000 C 
ATOM     20  C   UNL     1       2.934  13.686  18.821  0.00  0.00    +0.000 A 
ATOM     21  C   UNL     1       2.413  12.518  18.255  0.00  0.00    +0.000 A 
ENDBRANCH   7  15
ENDBRANCH   1   7
BRANCH   4  22
ATOM     22  C   UNL     1       3.680   6.581  19.393  0.00  0.00    +0.000 C 
BRANCH  22  23
ATOM     23  C   UNL     1       4.451   6.009  18.200  0.00  0.00    +0.000 C 
BRANCH  23  24
ATOM     24  C   UNL     1       5.189   4.705  18.499  0.00  0.00    +0.000 C 
BRANCH  24  25
ATOM     25  C   UNL     1       6.657   4.782  18.095  0.00  0.00    +0.000 C 
BRANCH  25  26
ATOM     26  N   UNL     1       7.285   5.982  18.593  0.00  0.00    +0.000 N 
ATOM     27  C   UNL     1       7.729   6.963  17.743  0.00  0.00    +0.000 C 
ATOM     28  O   UNL     1       7.641   6.913  16.521  0.00  0.00    +0.000 OA
ATOM     29  H   UNL     1       7.324   6.112  19.593  0.00  0.00    +0.000 HD
BRANCH  27  30
ATOM     30  C   UNL     1       8.343   8.093  18.462  0.00  0.00    +0.000 C 
ATOM     31  C   UNL     1       8.318   9.309  17.904  0.00  0.00    +0.000 C 
BRANCH  31  32
ATOM     32  C   UNL     1       8.906  10.501  18.521  0.00  0.00    +0.000 A 
ATOM     33  C   UNL     1       9.000  11.732  17.868  0.00  0.00    +0.000 A 
ATOM     34  C   UNL     1       9.548  12.828  18.536  0.00  0.00    +0.000 A 
ATOM     35  C   UNL     1       9.971  12.657  19.837  0.00  0.00    +0.000 A 
ATOM     36  N   UNL     1       9.882  11.489  20.509  0.00  0.00    +0.000 NA
ATOM     37  C   UNL     1       9.349  10.442  19.841  0.00  0.00    +0.000 A 
ENDBRANCH  31  32
ENDBRANCH  27  30
ENDBRANCH  25  26
ENDBRANCH  24  25
ENDBRANCH  23  24
ENDBRANCH  22  23
ENDBRANCH   4  22
TORSDOF 10
ENDMDL
MODEL 6
REMARK VINA RESULT:      -7.5      3.043      9.223
REMARK  Name = 
REMARK  12 active torsions:
REMARK  status: ('A' for Active; 'I' for Inactive)
REMARK    1  A    between atoms: C_1  and  C_2
REMARK    2  A    between atoms: C_5  and  C_6
REMARK    3  A    between atoms: C_6  and  C_7
REMARK    4  A    between atoms: C_6  and  N_14
REMARK    5  A    between atoms: C_10  and  C_11
REMARK    6  A    between atoms: N_17  and  C_18
REMARK    7  A    between atoms: C_18  and  C_19
REMARK    8  A    between atoms: C_19  and  C_20
REMARK    9  A    between atoms: C_20  and  C_21
REMARK   10  A    between atoms: C_21  and  N_22
REMARK   11  A    between atoms: C_23  and  C_25
REMARK   12  A    between atoms: C_26  and  C_27
REMARK                            x       y       z     vdW  Elec       q    Type
REMARK                         _______ _______ _______ _____ _____    ______ ____
ROOT
ATOM      1  N   UNL     1       4.938   5.082  18.000  0.00  0.00    +0.000 NA
ATOM      2  C   UNL     1       4.030   6.216  17.885  0.00  0.00    +0.000 C 
ATOM      3  C   UNL     1       2.562   5.728  18.048  0.00  0.00    +0.000 C 
ATOM      4  N   UNL     1       2.306   4.885  19.242  0.00  0.00    +0.000 NA
ATOM      5  C   UNL     1       3.316   3.801  19.264  0.00  0.00    +0.000 C 
ATOM      6  C   UNL     1       4.777   4.302  19.215  0.00  0.00    +0.000 C 
ENDROOT
BRANCH   1   7
ATOM      7  C   UNL     1       6.251   5.109  17.378  0.00  0.00    +0.000 C 
BRANCH   7  12
ATOM      8  C   UNL     1       6.254   3.254  11.826  0.00  0.00    +0.000 C 
ATOM      9  C   UNL     1       6.220   3.847  13.200  0.00  0.00    +0.000 A 
ATOM     10  C   UNL     1       7.312   4.545  13.727  0.00  0.00    +0.000 A 
ATOM     11  C   UNL     1       7.294   5.004  15.049  0.00  0.00    +0.000 A 
ATOM     12  C   UNL     1       6.183   4.771  15.874  0.00  0.00    +0.000 A 
ATOM     13  C   UNL     1       5.080   4.102  15.311  0.00  0.00    +0.000 A 
ATOM     14  C   UNL     1       5.089   3.660  13.990  0.00  0.00    +0.000 A 
ENDBRANCH   7  12
BRANCH   7  15
ATOM     15  C   UNL     1       7.122   6.303  17.749  0.00  0.00    +0.000 A 
ATOM     16  C   UNL     1       7.979   6.276  18.858  0.00  0.00    +0.000 A 
ATOM     17  C   UNL     1       8.633   7.435  19.283  0.00  0.00    +0.000 A 
ATOM     18  C   UNL     1       8.459   8.642  18.600  0.00  0.00    +0.000 A 
ATOM     19  C   UNL     1       9.064   9.913  19.116  0.00  0.00    +0.000 C 
ATOM     20  C   UNL     1       7.672   8.660  17.443  0.00  0.00    +0.000 A 
ATOM     21  C   UNL     1       7.016   7.500  17.019  0.00  0.00    +0.000 A 
ENDBRANCH   7  15
ENDBRANCH   1   7
BRANCH   4  22
ATOM     22  C   UNL     1       2.371   5.663  20.488  0.00  0.00    +0.000 C 
BRANCH  22  23
ATOM     23  C   UNL     1       1.262   6.712  20.613  0.00  0.00    +0.000 C 
BRANCH  23  24
ATOM     24  C   UNL     1       1.765   8.155  20.629  0.00  0.00    +0.000 C 
BRANCH  24  25
ATOM     25  C   UNL     1       0.686   9.123  21.103  0.00  0.00    +0.000 C 
BRANCH  25  26
ATOM     26  N   UNL     1       0.748  10.378  20.393  0.00  0.00    +0.000 N 
ATOM     27  C   UNL     1      -0.192  10.714  19.453  0.00  0.00    +0.000 C 
ATOM     28  O   UNL     1      -1.139  10.004  19.133  0.00  0.00    +0.000 OA
ATOM     29  H   UNL     1       1.465  11.035  20.662  0.00  0.00    +0.000 HD
BRANCH  27  30
ATOM     30  C   UNL     1       0.067  12.033  18.848  0.00  0.00    +0.000 C 
ATOM     31  C   UNL     1       0.468  13.040  19.632  0.00  0.00    +0.000 C 
BRANCH  31  32
ATOM     32  C   UNL     1       0.744  14.394  19.143  0.00  0.00    +0.000 A 
ATOM     33  C   UNL     1      -0.253  15.351  18.939  0.00  0.00    +0.000 A 
ATOM     34  C   UNL     1       0.095  16.628  18.498  0.00  0.00    +0.000 A 
ATOM     35  C   UNL     1       1.430  16.906  18.287  0.00  0.00    +0.000 A 
ATOM     36  N   UNL     1       2.424  16.015  18.488  0.00  0.00    +0.000 NA
ATOM     37  C   UNL     1       2.062  14.785  18.914  0.00  0.00    +0.000 A 
ENDBRANCH  31  32
ENDBRANCH  27  30
ENDBRANCH  25  26
ENDBRANCH  24  25
ENDBRANCH  23  24
ENDBRANCH  22  23
ENDBRANCH   4  22
TORSDOF 10
ENDMDL
MODEL 7
REMARK VINA RESULT:      -7.5      1.023      1.281
REMARK  Name = 
REMARK  12 active torsions:
REMARK  status: ('A' for Active; 'I' for Inactive)
REMARK    1  A    between atoms: C_1  and  C_2
REMARK    2  A    between atoms: C_5  and  C_6
REMARK    3  A    between atoms: C_6  and  C_7
REMARK    4  A    between atoms: C_6  and  N_14
REMARK    5  A    between atoms: C_10  and  C_11
REMARK    6  A    between atoms: N_17  and  C_18
REMARK    7  A    between atoms: C_18  and  C_19
REMARK    8  A    between atoms: C_19  and  C_20
REMARK    9  A    between atoms: C_20  and  C_21
REMARK   10  A    between atoms: C_21  and  N_22
REMARK   11  A    between atoms: C_23  and  C_25
REMARK   12  A    between atoms: C_26  and  C_27
REMARK                            x       y       z     vdW  Elec       q    Type
REMARK                         _______ _______ _______ _____ _____    ______ ____
ROOT
ATOM      1  N   UNL     1       1.194   9.046  19.306  0.00  0.00    +0.000 NA
ATOM      2  C   UNL     1       1.717   8.239  20.400  0.00  0.00    +0.000 C 
ATOM      3  C   UNL     1       1.887   6.766  19.929  0.00  0.00    +0.000 C 
ATOM      4  N   UNL     1       2.635   6.593  18.658  0.00  0.00    +0.000 NA
ATOM      5  C   UNL     1       2.034   7.493  17.646  0.00  0.00    +0.000 C 
ATOM      6  C   UNL     1       1.971   8.975  18.081  0.00  0.00    +0.000 C 
ENDROOT
BRANCH   1   7
ATOM      7  C   UNL     1       0.443  10.262  19.566  0.00  0.00    +0.000 C 
BRANCH   7  12
ATOM      8  C   UNL     1       3.363  15.329  19.320  0.00  0.00    +0.000 C 
ATOM      9  C   UNL     1       2.731  13.974  19.406  0.00  0.00    +0.000 A 
ATOM     10  C   UNL     1       2.705  13.105  18.311  0.00  0.00    +0.000 A 
ATOM     11  C   UNL     1       2.022  11.885  18.385  0.00  0.00    +0.000 A 
ATOM     12  C   UNL     1       1.349  11.511  19.558  0.00  0.00    +0.000 A 
ATOM     13  C   UNL     1       1.422  12.383  20.660  0.00  0.00    +0.000 A 
ATOM     14  C   UNL     1       2.116  13.589  20.593  0.00  0.00    +0.000 A 
ENDBRANCH   7  12
BRANCH   7  15
ATOM     15  C   UNL     1      -0.869  10.391  18.801  0.00  0.00    +0.000 A 
ATOM     16  C   UNL     1      -1.106   9.683  17.615  0.00  0.00    +0.000 A 
ATOM     17  C   UNL     1      -2.238   9.948  16.840  0.00  0.00    +0.000 A 
ATOM     18  C   UNL     1      -3.166  10.913  17.241  0.00  0.00    +0.000 A 
ATOM     19  C   UNL     1      -4.321  11.284  16.359  0.00  0.00    +0.000 C 
ATOM     20  C   UNL     1      -2.981  11.565  18.465  0.00  0.00    +0.000 A 
ATOM     21  C   UNL     1      -1.848  11.301  19.240  0.00  0.00    +0.000 A 
ENDBRANCH   7  15
ENDBRANCH   1   7
BRANCH   4  22
ATOM     22  C   UNL     1       4.066   6.893  18.816  0.00  0.00    +0.000 C 
BRANCH  22  23
ATOM     23  C   UNL     1       4.876   5.724  19.385  0.00  0.00    +0.000 C 
BRANCH  23  24
ATOM     24  C   UNL     1       5.593   4.887  18.327  0.00  0.00    +0.000 C 
BRANCH  24  25
ATOM     25  C   UNL     1       7.107   4.946  18.491  0.00  0.00    +0.000 C 
BRANCH  25  26
ATOM     26  N   UNL     1       7.597   6.302  18.424  0.00  0.00    +0.000 N 
ATOM     27  C   UNL     1       7.473   7.052  17.282  0.00  0.00    +0.000 C 
ATOM     28  O   UNL     1       6.956   6.655  16.245  0.00  0.00    +0.000 OA
ATOM     29  H   UNL     1       7.971   6.709  19.268  0.00  0.00    +0.000 HD
BRANCH  27  30
ATOM     30  C   UNL     1       8.048   8.401  17.432  0.00  0.00    +0.000 C 
ATOM     31  C   UNL     1       8.421   8.817  18.648  0.00  0.00    +0.000 C 
BRANCH  31  32
ATOM     32  C   UNL     1       8.993  10.140  18.917  0.00  0.00    +0.000 A 
ATOM     33  C   UNL     1       9.709  10.441  20.078  0.00  0.00    +0.000 A 
ATOM     34  C   UNL     1      10.246  11.717  20.247  0.00  0.00    +0.000 A 
ATOM     35  C   UNL     1      10.060  12.643  19.243  0.00  0.00    +0.000 A 
ATOM     36  N   UNL     1       9.390  12.387  18.099  0.00  0.00    +0.000 NA
ATOM     37  C   UNL     1       8.876  11.144  17.959  0.00  0.00    +0.000 A 
ENDBRANCH  31  32
ENDBRANCH  27  30
ENDBRANCH  25  26
ENDBRANCH  24  25
ENDBRANCH  23  24
ENDBRANCH  22  23
ENDBRANCH   4  22
TORSDOF 10
ENDMDL
MODEL 8
REMARK VINA RESULT:      -7.3      2.637      6.165
REMARK  Name = 
REMARK  12 active torsions:
REMARK  status: ('A' for Active; 'I' for Inactive)
REMARK    1  A    between atoms: C_1  and  C_2
REMARK    2  A    between atoms: C_5  and  C_6
REMARK    3  A    between atoms: C_6  and  C_7
REMARK    4  A    between atoms: C_6  and  N_14
REMARK    5  A    between atoms: C_10  and  C_11
REMARK    6  A    between atoms: N_17  and  C_18
REMARK    7  A    between atoms: C_18  and  C_19
REMARK    8  A    between atoms: C_19  and  C_20
REMARK    9  A    between atoms: C_20  and  C_21
REMARK   10  A    between atoms: C_21  and  N_22
REMARK   11  A    between atoms: C_23  and  C_25
REMARK   12  A    between atoms: C_26  and  C_27
REMARK                            x       y       z     vdW  Elec       q    Type
REMARK                         _______ _______ _______ _____ _____    ______ ____
ROOT
ATOM      1  N   UNL     1       4.035   6.040  18.121  0.00  0.00    +0.000 NA
ATOM      2  C   UNL     1       4.927   5.375  19.062  0.00  0.00    +0.000 C 
ATOM      3  C   UNL     1       6.150   4.791  18.299  0.00  0.00    +0.000 C 
ATOM      4  N   UNL     1       6.846   5.744  17.400  0.00  0.00    +0.000 NA
ATOM      5  C   UNL     1       5.830   6.379  16.528  0.00  0.00    +0.000 C 
ATOM      6  C   UNL     1       4.673   7.054  17.301  0.00  0.00    +0.000 C 
ENDROOT
BRANCH   1   7
ATOM      7  C   UNL     1       2.619   6.191  18.410  0.00  0.00    +0.000 C 
BRANCH   7  12
ATOM      8  C   UNL     1       1.258   1.764  21.991  0.00  0.00    +0.000 C 
ATOM      9  C   UNL     1       1.482   2.937  21.086  0.00  0.00    +0.000 A 
ATOM     10  C   UNL     1       1.165   2.884  19.724  0.00  0.00    +0.000 A 
ATOM     11  C   UNL     1       1.475   3.957  18.879  0.00  0.00    +0.000 A 
ATOM     12  C   UNL     1       2.111   5.103  19.380  0.00  0.00    +0.000 A 
ATOM     13  C   UNL     1       2.383   5.150  20.759  0.00  0.00    +0.000 A 
ATOM     14  C   UNL     1       2.060   4.091  21.605  0.00  0.00    +0.000 A 
ENDBRANCH   7  12
BRANCH   7  15
ATOM     15  C   UNL     1       2.166   7.613  18.715  0.00  0.00    +0.000 A 
ATOM     16  C   UNL     1       1.749   7.997  19.997  0.00  0.00    +0.000 A 
ATOM     17  C   UNL     1       1.174   9.252  20.214  0.00  0.00    +0.000 A 
ATOM     18  C   UNL     1       1.018  10.156  19.160  0.00  0.00    +0.000 A 
ATOM     19  C   UNL     1       0.298  11.457  19.361  0.00  0.00    +0.000 C 
ATOM     20  C   UNL     1       1.508   9.814  17.895  0.00  0.00    +0.000 A 
ATOM     21  C   UNL     1       2.082   8.558  17.677  0.00  0.00    +0.000 A 
ENDBRANCH   7  15
ENDBRANCH   1   7
BRANCH   4  22
ATOM     22  C   UNL     1       7.582   6.772  18.150  0.00  0.00    +0.000 C 
BRANCH  22  23
ATOM     23  C   UNL     1       7.985   7.980  17.299  0.00  0.00    +0.000 C 
BRANCH  23  24
ATOM     24  C   UNL     1       7.899   9.319  18.031  0.00  0.00    +0.000 C 
BRANCH  24  25
ATOM     25  C   UNL     1       9.281   9.889  18.330  0.00  0.00    +0.000 C 
BRANCH  25  26
ATOM     26  N   UNL     1       9.238  11.319  18.519  0.00  0.00    +0.000 N 
ATOM     27  C   UNL     1       9.269  11.875  19.773  0.00  0.00    +0.000 C 
ATOM     28  O   UNL     1       9.330  11.234  20.815  0.00  0.00    +0.000 OA
ATOM     29  H   UNL     1       9.257  11.903  17.697  0.00  0.00    +0.000 HD
BRANCH  27  30
ATOM     30  C   UNL     1       9.207  13.347  19.734  0.00  0.00    +0.000 C 
ATOM     31  C   UNL     1       9.202  13.967  18.548  0.00  0.00    +0.000 C 
BRANCH  31  32
ATOM     32  C   UNL     1       9.154  15.423  18.389  0.00  0.00    +0.000 A 
ATOM     33  C   UNL     1       8.271  16.240  19.099  0.00  0.00    +0.000 A 
ATOM     34  C   UNL     1       8.306  17.622  18.912  0.00  0.00    +0.000 A 
ATOM     35  C   UNL     1       9.232  18.139  18.030  0.00  0.00    +0.000 A 
ATOM     36  N   UNL     1      10.113  17.386  17.338  0.00  0.00    +0.000 NA
ATOM     37  C   UNL     1      10.058  16.050  17.535  0.00  0.00    +0.000 A 
ENDBRANCH  31  32
ENDBRANCH  27  30
ENDBRANCH  25  26
ENDBRANCH  24  25
ENDBRANCH  23  24
ENDBRANCH  22  23
ENDBRANCH   4  22
TORSDOF 10
ENDMDL
MODEL 9
REMARK VINA RESULT:      -7.3      3.293      9.212
REMARK  Name = 
REMARK  12 active torsions:
REMARK  status: ('A' for Active; 'I' for Inactive)
REMARK    1  A    between atoms: C_1  and  C_2
REMARK    2  A    between atoms: C_5  and  C_6
REMARK    3  A    between atoms: C_6  and  C_7
REMARK    4  A    between atoms: C_6  and  N_14
REMARK    5  A    between atoms: C_10  and  C_11
REMARK    6  A    between atoms: N_17  and  C_18
REMARK    7  A    between atoms: C_18  and  C_19
REMARK    8  A    between atoms: C_19  and  C_20
REMARK    9  A    between atoms: C_20  and  C_21
REMARK   10  A    between atoms: C_21  and  N_22
REMARK   11  A    between atoms: C_23  and  C_25
REMARK   12  A    between atoms: C_26  and  C_27
REMARK                            x       y       z     vdW  Elec       q    Type
REMARK                         _______ _______ _______ _____ _____    ______ ____
ROOT
ATOM      1  N   UNL     1       5.031   4.644  18.248  0.00  0.00    +0.000 NA
ATOM      2  C   UNL     1       3.898   5.530  18.013  0.00  0.00    +0.000 C 
ATOM      3  C   UNL     1       2.571   4.744  18.211  0.00  0.00    +0.000 C 
ATOM      4  N   UNL     1       2.472   3.983  19.480  0.00  0.00    +0.000 NA
ATOM      5  C   UNL     1       3.695   3.159  19.619  0.00  0.00    +0.000 C 
ATOM      6  C   UNL     1       5.010   3.967  19.533  0.00  0.00    +0.000 C 
ENDROOT
BRANCH   1   7
ATOM      7  C   UNL     1       6.324   4.905  17.637  0.00  0.00    +0.000 C 
BRANCH   7  12
ATOM      8  C   UNL     1       6.079   3.651  11.925  0.00  0.00    +0.000 C 
ATOM      9  C   UNL     1       6.208   3.859  13.403  0.00  0.00    +0.000 A 
ATOM     10  C   UNL     1       5.318   3.270  14.308  0.00  0.00    +0.000 A 
ATOM     11  C   UNL     1       5.398   3.559  15.675  0.00  0.00    +0.000 A 
ATOM     12  C   UNL     1       6.368   4.446  16.165  0.00  0.00    +0.000 A 
ATOM     13  C   UNL     1       7.277   4.996  15.241  0.00  0.00    +0.000 A 
ATOM     14  C   UNL     1       7.210   4.696  13.883  0.00  0.00    +0.000 A 
ENDBRANCH   7  12
BRANCH   7  15
ATOM     15  C   UNL     1       6.910   6.283  17.920  0.00  0.00    +0.000 A 
ATOM     16  C   UNL     1       6.516   7.416  17.194  0.00  0.00    +0.000 A 
ATOM     17  C   UNL     1       7.188   8.631  17.347  0.00  0.00    +0.000 A 
ATOM     18  C   UNL     1       8.258   8.746  18.240  0.00  0.00    +0.000 A 
ATOM     19  C   UNL     1       9.058  10.011  18.326  0.00  0.00    +0.000 C 
ATOM     20  C   UNL     1       8.604   7.643  19.029  0.00  0.00    +0.000 A 
ATOM     21  C   UNL     1       7.932   6.427  18.875  0.00  0.00    +0.000 A 
ENDBRANCH   7  15
ENDBRANCH   1   7
BRANCH   4  22
ATOM     22  C   UNL     1       2.324   4.870  20.644  0.00  0.00    +0.000 C 
BRANCH  22  23
ATOM     23  C   UNL     1       1.241   5.937  20.465  0.00  0.00    +0.000 C 
BRANCH  23  24
ATOM     24  C   UNL     1       1.752   7.373  20.582  0.00  0.00    +0.000 C 
BRANCH  24  25
ATOM     25  C   UNL     1       0.885   8.206  21.518  0.00  0.00    +0.000 C 
BRANCH  25  26
ATOM     26  N   UNL     1       1.132   9.619  21.357  0.00  0.00    +0.000 N 
ATOM     27  C   UNL     1       0.311  10.406  20.590  0.00  0.00    +0.000 C 
ATOM     28  O   UNL     1      -0.674   9.999  19.986  0.00  0.00    +0.000 OA
ATOM     29  H   UNL     1       1.888  10.027  21.886  0.00  0.00    +0.000 HD
BRANCH  27  30
ATOM     30  C   UNL     1       0.753  11.812  20.558  0.00  0.00    +0.000 C 
ATOM     31  C   UNL     1       0.060  12.694  19.827  0.00  0.00    +0.000 C 
BRANCH  31  32
ATOM     32  C   UNL     1       0.412  14.112  19.713  0.00  0.00    +0.000 A 
ATOM     33  C   UNL     1      -0.135  14.959  18.746  0.00  0.00    +0.000 A 
ATOM     34  C   UNL     1       0.231  16.305  18.720  0.00  0.00    +0.000 A 
ATOM     35  C   UNL     1       1.122  16.759  19.671  0.00  0.00    +0.000 A 
ATOM     36  N   UNL     1       1.659  15.977  20.632  0.00  0.00    +0.000 NA
ATOM     37  C   UNL     1       1.291  14.677  20.635  0.00  0.00    +0.000 A 
ENDBRANCH  31  32
ENDBRANCH  27  30
ENDBRANCH  25  26
ENDBRANCH  24  25
ENDBRANCH  23  24
ENDBRANCH  22  23
ENDBRANCH   4  22
TORSDOF 10
ENDMDL
