MODEL 1
REMARK VINA RESULT:      -8.0      0.000      0.000
REMARK  Name = 
REMARK  4 active torsions:
REMARK  status: ('A' for Active; 'I' for Inactive)
REMARK    1  A    between atoms: C_1  and  C_2
REMARK    2  A    between atoms: C_2  and  O_3
REMARK    3  A    between atoms: O_3  and  C_4
REMARK    4  A    between atoms: C_9  and  N_10
REMARK                            x       y       z     vdW  Elec       q    Type
REMARK                         _______ _______ _______ _____ _____    ______ ____
ROOT
ATOM      1  N   UNL     1       1.955   8.265  18.682  0.00  0.00    +0.000 N 
ATOM      2  C   UNL     1       2.637   7.042  18.687  0.00  0.00    +0.000 A 
ATOM      3  N   UNL     1       2.354   6.104  19.575  0.00  0.00    +0.000 NA
ATOM      4  C   UNL     1       3.114   5.024  19.578  0.00  0.00    +0.000 A 
ATOM      5  N   UNL     1       2.851   4.046  20.511  0.00  0.00    +0.000 N 
ATOM      6  C   UNL     1       3.252   2.674  20.249  0.00  0.00    +0.000 C 
ATOM      7  C   UNL     1       2.011   1.859  20.610  0.00  0.00    +0.000 C 
ATOM      8  C   UNL     1       1.356   2.678  21.711  0.00  0.00    +0.000 C 
ATOM      9  C   UNL     1       1.606   4.117  21.271  0.00  0.00    +0.000 C 
ATOM     10  N   UNL     1       4.120   4.866  18.736  0.00  0.00    +0.000 NA
ATOM     11  C   UNL     1       4.331   5.836  17.847  0.00  0.00    +0.000 A 
ATOM     12  N   UNL     1       5.313   5.631  16.901  0.00  0.00    +0.000 N 
ATOM     13  C   UNL     1       5.576   6.647  15.882  0.00  0.00    +0.000 C 
ATOM     14  C   UNL     1       6.246   5.955  14.678  0.00  0.00    +0.000 C 
ATOM     15  O   UNL     1       7.416   5.207  15.059  0.00  0.00    +0.000 OA
ATOM     16  C   UNL     1       7.085   4.220  16.054  0.00  0.00    +0.000 C 
ATOM     17  C   UNL     1       6.502   4.880  17.308  0.00  0.00    +0.000 C 
ATOM     18  N   UNL     1       3.603   6.939  17.788  0.00  0.00    +0.000 NA
ATOM     19  H   UNL     1       2.567   8.890  18.179  0.00  0.00    +0.000 HD
ENDROOT
BRANCH   1  25
ATOM     20  C   UNL     1       0.302   9.897  19.476  0.00  0.00    +0.000 A 
ATOM     21  C   UNL     1      -0.247  10.626  20.541  0.00  0.00    +0.000 A 
ATOM     22  C   UNL     1       0.070  10.318  21.866  0.00  0.00    +0.000 A 
ATOM     23  C   UNL     1       0.913   9.249  22.134  0.00  0.00    +0.000 A 
ATOM     24  C   UNL     1       1.471   8.531  21.076  0.00  0.00    +0.000 A 
ATOM     25  C   UNL     1       1.255   8.892  19.733  0.00  0.00    +0.000 A 
BRANCH  20  26
ATOM     26  O   UNL     1      -0.089  10.349  18.240  0.00  0.00    +0.000 OA
BRANCH  26  28
ATOM     27  C   UNL     1      -2.114   9.924  17.014  0.00  0.00    +0.000 C 
ATOM     28  C   UNL     1      -1.451  10.762  18.096  0.00  0.00    +0.000 C 
ENDBRANCH  26  28
ENDBRANCH  20  26
ENDBRANCH   1  25
TORSDOF 3
ENDMDL
MODEL 2
REMARK VINA RESULT:      -7.6      1.556      7.110
REMARK  Name = 
REMARK  4 active torsions:
REMARK  status: ('A' for Active; 'I' for Inactive)
REMARK    1  A    between atoms: C_1  and  C_2
REMARK    2  A    between atoms: C_2  and  O_3
REMARK    3  A    between atoms: O_3  and  C_4
REMARK    4  A    between atoms: C_9  and  N_10
REMARK                            x       y       z     vdW  Elec       q    Type
REMARK                         _______ _______ _______ _____ _____    ______ ____
ROOT
ATOM      1  N   UNL     1       5.020   6.925  16.481  0.00  0.00    +0.000 N 
ATOM      2  C   UNL     1       3.985   6.914  17.424  0.00  0.00    +0.000 A 
ATOM      3  N   UNL     1       3.629   5.797  18.036  0.00  0.00    +0.000 NA
ATOM      4  C   UNL     1       2.576   5.852  18.831  0.00  0.00    +0.000 A 
ATOM      5  N   UNL     1       2.174   4.695  19.459  0.00  0.00    +0.000 N 
ATOM      6  C   UNL     1       1.418   4.772  20.698  0.00  0.00    +0.000 C 
ATOM      7  C   UNL     1       2.113   3.765  21.611  0.00  0.00    +0.000 C 
ATOM      8  C   UNL     1       2.639   2.714  20.645  0.00  0.00    +0.000 C 
ATOM      9  C   UNL     1       3.062   3.536  19.432  0.00  0.00    +0.000 C 
ATOM     10  N   UNL     1       1.894   6.968  19.023  0.00  0.00    +0.000 NA
ATOM     11  C   UNL     1       2.325   8.064  18.400  0.00  0.00    +0.000 A 
ATOM     12  N   UNL     1       1.680   9.250  18.676  0.00  0.00    +0.000 N 
ATOM     13  C   UNL     1       2.122  10.493  18.044  0.00  0.00    +0.000 C 
ATOM     14  C   UNL     1       1.660  11.670  18.926  0.00  0.00    +0.000 C 
ATOM     15  O   UNL     1       0.246  11.632  19.191  0.00  0.00    +0.000 OA
ATOM     16  C   UNL     1      -0.119  10.390  19.822  0.00  0.00    +0.000 C 
ATOM     17  C   UNL     1       0.240   9.196  18.931  0.00  0.00    +0.000 C 
ATOM     18  N   UNL     1       3.376   8.076  17.596  0.00  0.00    +0.000 NA
ATOM     19  H   UNL     1       4.857   7.762  15.941  0.00  0.00    +0.000 HD
ENDROOT
BRANCH   1  25
ATOM     20  C   UNL     1       6.809   5.319  15.981  0.00  0.00    +0.000 A 
ATOM     21  C   UNL     1       7.366   4.382  15.098  0.00  0.00    +0.000 A 
ATOM     22  C   UNL     1       6.644   3.904  14.002  0.00  0.00    +0.000 A 
ATOM     23  C   UNL     1       5.341   4.335  13.805  0.00  0.00    +0.000 A 
ATOM     24  C   UNL     1       4.789   5.278  14.673  0.00  0.00    +0.000 A 
ATOM     25  C   UNL     1       5.533   5.856  15.718  0.00  0.00    +0.000 A 
BRANCH  20  26
ATOM     26  O   UNL     1       7.662   5.705  16.985  0.00  0.00    +0.000 OA
BRANCH  26  28
ATOM     27  C   UNL     1       7.836   5.836  19.380  0.00  0.00    +0.000 C 
ATOM     28  C   UNL     1       7.664   4.919  18.179  0.00  0.00    +0.000 C 
ENDBRANCH  26  28
ENDBRANCH  20  26
ENDBRANCH   1  25
TORSDOF 3
ENDMDL
MODEL 3
REMARK VINA RESULT:      -7.5      1.028      1.321
REMARK  Name = 
REMARK  4 active torsions:
REMARK  status: ('A' for Active; 'I' for Inactive)
REMARK    1  A    between atoms: C_1  and  C_2
REMARK    2  A    between atoms: C_2  and  O_3
REMARK    3  A    between atoms: O_3  and  C_4
REMARK    4  A    between atoms: C_9  and  N_10
REMARK                            x       y       z     vdW  Elec       q    Type
REMARK                         _______ _______ _______ _____ _____    ______ ____
ROOT
ATOM      1  N   UNL     1       2.042   8.308  18.637  0.00  0.00    +0.000 N 
ATOM      2  C   UNL     1       2.700   7.072  18.640  0.00  0.00    +0.000 A 
ATOM      3  N   UNL     1       2.405   6.142  19.533  0.00  0.00    +0.000 NA
ATOM      4  C   UNL     1       3.144   5.048  19.534  0.00  0.00    +0.000 A 
ATOM      5  N   UNL     1       2.868   4.077  20.471  0.00  0.00    +0.000 N 
ATOM      6  C   UNL     1       3.239   2.697  20.210  0.00  0.00    +0.000 C 
ATOM      7  C   UNL     1       1.986   1.907  20.582  0.00  0.00    +0.000 C 
ATOM      8  C   UNL     1       1.354   2.742  21.685  0.00  0.00    +0.000 C 
ATOM      9  C   UNL     1       1.630   4.175  21.239  0.00  0.00    +0.000 C 
ATOM     10  N   UNL     1       4.140   4.868  18.685  0.00  0.00    +0.000 NA
ATOM     11  C   UNL     1       4.364   5.831  17.791  0.00  0.00    +0.000 A 
ATOM     12  N   UNL     1       5.336   5.605  16.840  0.00  0.00    +0.000 N 
ATOM     13  C   UNL     1       5.611   6.613  15.815  0.00  0.00    +0.000 C 
ATOM     14  C   UNL     1       6.259   5.905  14.609  0.00  0.00    +0.000 C 
ATOM     15  O   UNL     1       7.416   5.134  14.984  0.00  0.00    +0.000 OA
ATOM     16  C   UNL     1       7.073   4.157  15.984  0.00  0.00    +0.000 C 
ATOM     17  C   UNL     1       6.512   4.831  17.240  0.00  0.00    +0.000 C 
ATOM     18  N   UNL     1       3.657   6.948  17.734  0.00  0.00    +0.000 NA
ATOM     19  H   UNL     1       2.663   8.920  18.127  0.00  0.00    +0.000 HD
ENDROOT
BRANCH   1  25
ATOM     20  C   UNL     1       0.957  10.297  19.584  0.00  0.00    +0.000 A 
ATOM     21  C   UNL     1       0.445  10.963  20.707  0.00  0.00    +0.000 A 
ATOM     22  C   UNL     1       0.248  10.292  21.916  0.00  0.00    +0.000 A 
ATOM     23  C   UNL     1       0.528   8.936  21.996  0.00  0.00    +0.000 A 
ATOM     24  C   UNL     1       1.051   8.275  20.885  0.00  0.00    +0.000 A 
ATOM     25  C   UNL     1       1.362   8.952  19.691  0.00  0.00    +0.000 A 
BRANCH  20  26
ATOM     26  O   UNL     1       1.118  11.109  18.488  0.00  0.00    +0.000 OA
BRANCH  26  28
ATOM     27  C   UNL     1       2.516  13.053  18.269  0.00  0.00    +0.000 C 
ATOM     28  C   UNL     1       1.166  12.519  18.720  0.00  0.00    +0.000 C 
ENDBRANCH  26  28
ENDBRANCH  20  26
ENDBRANCH   1  25
TORSDOF 3
ENDMDL
MODEL 4
REMARK VINA RESULT:      -7.3      3.453      9.025
REMARK  Name = 
REMARK  4 active torsions:
REMARK  status: ('A' for Active; 'I' for Inactive)
REMARK    1  A    between atoms: C_1  and  C_2
REMARK    2  A    between atoms: C_2  and  O_3
REMARK    3  A    between atoms: O_3  and  C_4
REMARK    4  A    between atoms: C_9  and  N_10
REMARK                            x       y       z     vdW  Elec       q    Type
REMARK                         _______ _______ _______ _____ _____    ______ ____
ROOT
ATOM      1  N   UNL     1       0.977   9.066  20.239  0.00  0.00    +0.000 N 
ATOM      2  C   UNL     1      -0.016   9.996  19.906  0.00  0.00    +0.000 A 
ATOM      3  N   UNL     1      -0.626   9.955  18.732  0.00  0.00    +0.000 NA
ATOM      4  C   UNL     1      -1.472  10.929  18.457  0.00  0.00    +0.000 A 
ATOM      5  N   UNL     1      -2.099  10.919  17.230  0.00  0.00    +0.000 N 
ATOM      6  C   UNL     1      -3.375  11.595  17.067  0.00  0.00    +0.000 C 
ATOM      7  C   UNL     1      -4.235  10.574  16.325  0.00  0.00    +0.000 C 
ATOM      8  C   UNL     1      -3.226   9.799  15.491  0.00  0.00    +0.000 C 
ATOM      9  C   UNL     1      -2.008   9.718  16.405  0.00  0.00    +0.000 C 
ATOM     10  N   UNL     1      -1.718  11.913  19.304  0.00  0.00    +0.000 NA
ATOM     11  C   UNL     1      -1.094  11.877  20.481  0.00  0.00    +0.000 A 
ATOM     12  N   UNL     1      -1.422  12.844  21.407  0.00  0.00    +0.000 N 
ATOM     13  C   UNL     1      -0.791  12.843  22.727  0.00  0.00    +0.000 C 
ATOM     14  C   UNL     1      -1.715  13.600  23.701  0.00  0.00    +0.000 C 
ATOM     15  O   UNL     1      -2.050  14.917  23.224  0.00  0.00    +0.000 OA
ATOM     16  C   UNL     1      -2.676  14.844  21.929  0.00  0.00    +0.000 C 
ATOM     17  C   UNL     1      -1.747  14.180  20.908  0.00  0.00    +0.000 C 
ATOM     18  N   UNL     1      -0.238  10.926  20.821  0.00  0.00    +0.000 NA
ATOM     19  H   UNL     1       1.493   9.510  20.984  0.00  0.00    +0.000 HD
ENDROOT
BRANCH   1  25
ATOM     20  C   UNL     1       2.097   6.950  19.696  0.00  0.00    +0.000 A 
ATOM     21  C   UNL     1       3.042   6.258  18.925  0.00  0.00    +0.000 A 
ATOM     22  C   UNL     1       3.620   6.842  17.796  0.00  0.00    +0.000 A 
ATOM     23  C   UNL     1       3.226   8.114  17.409  0.00  0.00    +0.000 A 
ATOM     24  C   UNL     1       2.297   8.811  18.183  0.00  0.00    +0.000 A 
ATOM     25  C   UNL     1       1.783   8.288  19.384  0.00  0.00    +0.000 A 
BRANCH  20  26
ATOM     26  O   UNL     1       1.652   6.244  20.786  0.00  0.00    +0.000 OA
BRANCH  26  28
ATOM     27  C   UNL     1       1.000   3.942  20.546  0.00  0.00    +0.000 C 
ATOM     28  C   UNL     1       2.117   4.900  20.929  0.00  0.00    +0.000 C 
ENDBRANCH  26  28
ENDBRANCH  20  26
ENDBRANCH   1  25
TORSDOF 3
ENDMDL
MODEL 5
REMARK VINA RESULT:      -6.6      4.699      9.980
REMARK  Name = 
REMARK  4 active torsions:
REMARK  status: ('A' for Active; 'I' for Inactive)
REMARK    1  A    between atoms: C_1  and  C_2
REMARK    2  A    between atoms: C_2  and  O_3
REMARK    3  A    between atoms: O_3  and  C_4
REMARK    4  A    between atoms: C_9  and  N_10
REMARK                            x       y       z     vdW  Elec       q    Type
REMARK                         _______ _______ _______ _____ _____    ______ ____
ROOT
ATOM      1  N   UNL     1      -0.280  10.478  19.607  0.00  0.00    +0.000 N 
ATOM      2  C   UNL     1      -0.062  11.828  19.906  0.00  0.00    +0.000 A 
ATOM      3  N   UNL     1       1.018  12.459  19.474  0.00  0.00    +0.000 NA
ATOM      4  C   UNL     1       1.200  13.699  19.889  0.00  0.00    +0.000 A 
ATOM      5  N   UNL     1       2.330  14.366  19.470  0.00  0.00    +0.000 N 
ATOM      6  C   UNL     1       2.336  15.818  19.427  0.00  0.00    +0.000 C 
ATOM      7  C   UNL     1       2.932  16.138  18.057  0.00  0.00    +0.000 C 
ATOM      8  C   UNL     1       3.876  14.973  17.799  0.00  0.00    +0.000 C 
ATOM      9  C   UNL     1       3.132  13.783  18.397  0.00  0.00    +0.000 C 
ATOM     10  N   UNL     1       0.351  14.306  20.699  0.00  0.00    +0.000 NA
ATOM     11  C   UNL     1      -0.732  13.624  21.072  0.00  0.00    +0.000 A 
ATOM     12  N   UNL     1      -1.671  14.284  21.834  0.00  0.00    +0.000 N 
ATOM     13  C   UNL     1      -2.894  13.599  22.253  0.00  0.00    +0.000 C 
ATOM     14  C   UNL     1      -3.965  14.667  22.549  0.00  0.00    +0.000 C 
ATOM     15  O   UNL     1      -3.507  15.654  23.492  0.00  0.00    +0.000 OA
ATOM     16  C   UNL     1      -2.310  16.296  23.014  0.00  0.00    +0.000 C 
ATOM     17  C   UNL     1      -1.189  15.275  22.797  0.00  0.00    +0.000 C 
ATOM     18  N   UNL     1      -0.976  12.381  20.687  0.00  0.00    +0.000 NA
ATOM     19  H   UNL     1      -0.938  10.171  20.308  0.00  0.00    +0.000 HD
ENDROOT
BRANCH   1  25
ATOM     20  C   UNL     1       1.034   8.477  20.151  0.00  0.00    +0.000 A 
ATOM     21  C   UNL     1       2.095   7.616  19.833  0.00  0.00    +0.000 A 
ATOM     22  C   UNL     1       2.735   7.686  18.594  0.00  0.00    +0.000 A 
ATOM     23  C   UNL     1       2.289   8.598  17.648  0.00  0.00    +0.000 A 
ATOM     24  C   UNL     1       1.244   9.465  17.967  0.00  0.00    +0.000 A 
ATOM     25  C   UNL     1       0.657   9.489  19.246  0.00  0.00    +0.000 A 
BRANCH  20  26
ATOM     26  O   UNL     1       0.539   8.296  21.419  0.00  0.00    +0.000 OA
BRANCH  26  28
ATOM     27  C   UNL     1      -0.131   9.695  23.256  0.00  0.00    +0.000 C 
ATOM     28  C   UNL     1       1.038   9.158  22.445  0.00  0.00    +0.000 C 
ENDBRANCH  26  28
ENDBRANCH  20  26
ENDBRANCH   1  25
TORSDOF 3
ENDMDL
MODEL 6
REMARK VINA RESULT:      -6.5      8.303     11.628
REMARK  Name = 
REMARK  4 active torsions:
REMARK  status: ('A' for Active; 'I' for Inactive)
REMARK    1  A    between atoms: C_1  and  C_2
REMARK    2  A    between atoms: C_2  and  O_3
REMARK    3  A    between atoms: O_3  and  C_4
REMARK    4  A    between atoms: C_9  and  N_10
REMARK                            x       y       z     vdW  Elec       q    Type
REMARK                         _______ _______ _______ _____ _____    ______ ____
ROOT
ATOM      1  N   UNL     1       9.474  11.980  21.675  0.00  0.00    +0.000 N 
ATOM      2  C   UNL     1       8.413  12.747  22.172  0.00  0.00    +0.000 A 
ATOM      3  N   UNL     1       7.745  13.578  21.389  0.00  0.00    +0.000 NA
ATOM      4  C   UNL     1       6.830  14.340  21.958  0.00  0.00    +0.000 A 
ATOM      5  N   UNL     1       6.139  15.230  21.165  0.00  0.00    +0.000 N 
ATOM      6  C   UNL     1       4.820  15.683  21.571  0.00  0.00    +0.000 C 
ATOM      7  C   UNL     1       3.981  15.543  20.302  0.00  0.00    +0.000 C 
ATOM      8  C   UNL     1       4.987  15.775  19.184  0.00  0.00    +0.000 C 
ATOM      9  C   UNL     1       6.255  15.113  19.714  0.00  0.00    +0.000 C 
ATOM     10  N   UNL     1       6.574  14.290  23.254  0.00  0.00    +0.000 NA
ATOM     11  C   UNL     1       7.261  13.409  23.979  0.00  0.00    +0.000 A 
ATOM     12  N   UNL     1       6.928  13.280  25.310  0.00  0.00    +0.000 N 
ATOM     13  C   UNL     1       7.629  12.312  26.154  0.00  0.00    +0.000 C 
ATOM     14  C   UNL     1       6.716  11.968  27.348  0.00  0.00    +0.000 C 
ATOM     15  O   UNL     1       6.281  13.142  28.059  0.00  0.00    +0.000 OA
ATOM     16  C   UNL     1       5.591  14.045  27.175  0.00  0.00    +0.000 C 
ATOM     17  C   UNL     1       6.501  14.485  26.023  0.00  0.00    +0.000 C 
ATOM     18  N   UNL     1       8.187  12.613  23.469  0.00  0.00    +0.000 NA
ATOM     19  H   UNL     1      10.004  11.726  22.497  0.00  0.00    +0.000 HD
ENDROOT
BRANCH   1  25
ATOM     20  C   UNL     1      10.277  11.312  19.453  0.00  0.00    +0.000 A 
ATOM     21  C   UNL     1      11.213  11.469  18.420  0.00  0.00    +0.000 A 
ATOM     22  C   UNL     1      12.095  12.551  18.402  0.00  0.00    +0.000 A 
ATOM     23  C   UNL     1      12.019  13.508  19.404  0.00  0.00    +0.000 A 
ATOM     24  C   UNL     1      11.099  13.348  20.441  0.00  0.00    +0.000 A 
ATOM     25  C   UNL     1      10.277  12.210  20.540  0.00  0.00    +0.000 A 
BRANCH  20  26
ATOM     26  O   UNL     1       9.509  10.181  19.335  0.00  0.00    +0.000 OA
BRANCH  26  28
ATOM     27  C   UNL     1       8.206   8.643  18.023  0.00  0.00    +0.000 C 
ATOM     28  C   UNL     1       8.659  10.085  18.189  0.00  0.00    +0.000 C 
ENDBRANCH  26  28
ENDBRANCH  20  26
ENDBRANCH   1  25
TORSDOF 3
ENDMDL
MODEL 7
REMARK VINA RESULT:      -6.5      8.790     11.663
REMARK  Name = 
REMARK  4 active torsions:
REMARK  status: ('A' for Active; 'I' for Inactive)
REMARK    1  A    between atoms: C_1  and  C_2
REMARK    2  A    between atoms: C_2  and  O_3
REMARK    3  A    between atoms: O_3  and  C_4
REMARK    4  A    between atoms: C_9  and  N_10
REMARK                            x       y       z     vdW  Elec       q    Type
REMARK                         _______ _______ _______ _____ _____    ______ ____
ROOT
ATOM      1  N   UNL     1       8.270  14.288  17.853  0.00  0.00    +0.000 N 
ATOM      2  C   UNL     1       7.355  14.652  18.849  0.00  0.00    +0.000 A 
ATOM      3  N   UNL     1       7.661  14.546  20.131  0.00  0.00    +0.000 NA
ATOM      4  C   UNL     1       6.707  14.810  21.004  0.00  0.00    +0.000 A 
ATOM      5  N   UNL     1       6.998  14.681  22.345  0.00  0.00    +0.000 N 
ATOM      6  C   UNL     1       6.232  15.434  23.323  0.00  0.00    +0.000 C 
ATOM      7  C   UNL     1       7.300  16.030  24.239  0.00  0.00    +0.000 C 
ATOM      8  C   UNL     1       8.420  15.003  24.194  0.00  0.00    +0.000 C 
ATOM      9  C   UNL     1       8.392  14.519  22.748  0.00  0.00    +0.000 C 
ATOM     10  N   UNL     1       5.491  15.170  20.635  0.00  0.00    +0.000 NA
ATOM     11  C   UNL     1       5.259  15.288  19.328  0.00  0.00    +0.000 A 
ATOM     12  N   UNL     1       4.023  15.761  18.939  0.00  0.00    +0.000 N 
ATOM     13  C   UNL     1       3.716  15.938  17.520  0.00  0.00    +0.000 C 
ATOM     14  C   UNL     1       2.581  16.975  17.401  0.00  0.00    +0.000 C 
ATOM     15  O   UNL     1       1.435  16.624  18.199  0.00  0.00    +0.000 OA
ATOM     16  C   UNL     1       1.805  16.478  19.582  0.00  0.00    +0.000 C 
ATOM     17  C   UNL     1       2.866  15.385  19.753  0.00  0.00    +0.000 C 
ATOM     18  N   UNL     1       6.173  15.044  18.403  0.00  0.00    +0.000 NA
ATOM     19  H   UNL     1       7.699  14.133  17.035  0.00  0.00    +0.000 HD
ENDROOT
BRANCH   1  25
ATOM     20  C   UNL     1      10.684  13.906  18.085  0.00  0.00    +0.000 A 
ATOM     21  C   UNL     1      11.774  13.028  17.991  0.00  0.00    +0.000 A 
ATOM     22  C   UNL     1      11.581  11.653  17.840  0.00  0.00    +0.000 A 
ATOM     23  C   UNL     1      10.291  11.143  17.822  0.00  0.00    +0.000 A 
ATOM     24  C   UNL     1       9.206  12.016  17.901  0.00  0.00    +0.000 A 
ATOM     25  C   UNL     1       9.372  13.413  17.941  0.00  0.00    +0.000 A 
BRANCH  20  26
ATOM     26  O   UNL     1      11.049  15.225  18.199  0.00  0.00    +0.000 OA
BRANCH  26  28
ATOM     27  C   UNL     1      10.582  17.297  17.070  0.00  0.00    +0.000 C 
ATOM     28  C   UNL     1      11.276  15.947  16.985  0.00  0.00    +0.000 C 
ENDBRANCH  26  28
ENDBRANCH  20  26
ENDBRANCH   1  25
TORSDOF 3
ENDMDL
MODEL 8
REMARK VINA RESULT:      -6.4      4.985      8.654
REMARK  Name = 
REMARK  4 active torsions:
REMARK  status: ('A' for Active; 'I' for Inactive)
REMARK    1  A    between atoms: C_1  and  C_2
REMARK    2  A    between atoms: C_2  and  O_3
REMARK    3  A    between atoms: O_3  and  C_4
REMARK    4  A    between atoms: C_9  and  N_10
REMARK                            x       y       z     vdW  Elec       q    Type
REMARK                         _______ _______ _______ _____ _____    ______ ____
ROOT
ATOM      1  N   UNL     1      -1.480  12.620  23.153  0.00  0.00    +0.000 N 
ATOM      2  C   UNL     1      -0.697  12.662  21.993  0.00  0.00    +0.000 A 
ATOM      3  N   UNL     1      -0.461  13.804  21.368  0.00  0.00    +0.000 NA
ATOM      4  C   UNL     1       0.197  13.743  20.225  0.00  0.00    +0.000 A 
ATOM      5  N   UNL     1       0.432  14.918  19.547  0.00  0.00    +0.000 N 
ATOM      6  C   UNL     1       1.552  15.007  18.626  0.00  0.00    +0.000 C 
ATOM      7  C   UNL     1       2.223  16.329  18.995  0.00  0.00    +0.000 C 
ATOM      8  C   UNL     1       1.068  17.186  19.492  0.00  0.00    +0.000 C 
ATOM      9  C   UNL     1       0.184  16.185  20.229  0.00  0.00    +0.000 C 
ATOM     10  N   UNL     1       0.614  12.600  19.710  0.00  0.00    +0.000 NA
ATOM     11  C   UNL     1       0.370  11.490  20.406  0.00  0.00    +0.000 A 
ATOM     12  N   UNL     1       0.890  10.308  19.925  0.00  0.00    +0.000 N 
ATOM     13  C   UNL     1       0.679   9.059  20.657  0.00  0.00    +0.000 C 
ATOM     14  C   UNL     1       1.796   8.074  20.256  0.00  0.00    +0.000 C 
ATOM     15  O   UNL     1       1.882   7.897  18.830  0.00  0.00    +0.000 OA
ATOM     16  C   UNL     1       2.101   9.160  18.174  0.00  0.00    +0.000 C 
ATOM     17  C   UNL     1       0.959  10.138  18.473  0.00  0.00    +0.000 C 
ATOM     18  N   UNL     1      -0.279  11.484  21.559  0.00  0.00    +0.000 NA
ATOM     19  H   UNL     1      -1.783  11.659  23.214  0.00  0.00    +0.000 HD
ENDROOT
BRANCH   1  25
ATOM     20  C   UNL     1      -3.808  13.394  23.263  0.00  0.00    +0.000 A 
ATOM     21  C   UNL     1      -4.718  14.416  23.570  0.00  0.00    +0.000 A 
ATOM     22  C   UNL     1      -4.318  15.548  24.284  0.00  0.00    +0.000 A 
ATOM     23  C   UNL     1      -3.008  15.645  24.730  0.00  0.00    +0.000 A 
ATOM     24  C   UNL     1      -2.097  14.637  24.413  0.00  0.00    +0.000 A 
ATOM     25  C   UNL     1      -2.448  13.541  23.602  0.00  0.00    +0.000 A 
BRANCH  20  26
ATOM     26  O   UNL     1      -4.356  12.369  22.532  0.00  0.00    +0.000 OA
BRANCH  26  28
ATOM     27  C   UNL     1      -3.908  12.749  20.199  0.00  0.00    +0.000 C 
ATOM     28  C   UNL     1      -4.970  12.712  21.287  0.00  0.00    +0.000 C 
ENDBRANCH  26  28
ENDBRANCH  20  26
ENDBRANCH   1  25
TORSDOF 3
ENDMDL
MODEL 9
REMARK VINA RESULT:      -6.4      5.616     10.456
REMARK  Name = 
REMARK  4 active torsions:
REMARK  status: ('A' for Active; 'I' for Inactive)
REMARK    1  A    between atoms: C_1  and  C_2
REMARK    2  A    between atoms: C_2  and  O_3
REMARK    3  A    between atoms: O_3  and  C_4
REMARK    4  A    between atoms: C_9  and  N_10
REMARK                            x       y       z     vdW  Elec       q    Type
REMARK                         _______ _______ _______ _____ _____    ______ ____
ROOT
ATOM      1  N   UNL     1       0.019  11.417  21.268  0.00  0.00    +0.000 N 
ATOM      2  C   UNL     1      -1.221  12.067  21.241  0.00  0.00    +0.000 A 
ATOM      3  N   UNL     1      -2.073  11.875  20.248  0.00  0.00    +0.000 NA
ATOM      4  C   UNL     1      -3.172  12.605  20.244  0.00  0.00    +0.000 A 
ATOM      5  N   UNL     1      -4.061  12.438  19.206  0.00  0.00    +0.000 N 
ATOM      6  C   UNL     1      -5.463  12.772  19.395  0.00  0.00    +0.000 C 
ATOM      7  C   UNL     1      -6.204  11.567  18.817  0.00  0.00    +0.000 C 
ATOM      8  C   UNL     1      -5.275  11.073  17.719  0.00  0.00    +0.000 C 
ATOM      9  C   UNL     1      -3.887  11.299  18.309  0.00  0.00    +0.000 C 
ATOM     10  N   UNL     1      -3.433  13.495  21.186  0.00  0.00    +0.000 NA
ATOM     11  C   UNL     1      -2.548  13.616  22.175  0.00  0.00    +0.000 A 
ATOM     12  N   UNL     1      -2.862  14.468  23.212  0.00  0.00    +0.000 N 
ATOM     13  C   UNL     1      -1.943  14.625  24.340  0.00  0.00    +0.000 C 
ATOM     14  C   UNL     1      -2.754  15.125  25.552  0.00  0.00    +0.000 C 
ATOM     15  O   UNL     1      -3.506  16.315  25.253  0.00  0.00    +0.000 OA
ATOM     16  C   UNL     1      -4.396  16.088  24.144  0.00  0.00    +0.000 C 
ATOM     17  C   UNL     1      -3.616  15.680  22.890  0.00  0.00    +0.000 C 
ATOM     18  N   UNL     1      -1.430  12.911  22.239  0.00  0.00    +0.000 NA
ATOM     19  H   UNL     1       0.580  11.976  21.894  0.00  0.00    +0.000 HD
ENDROOT
BRANCH   1  25
ATOM     20  C   UNL     1       1.394  11.694  19.253  0.00  0.00    +0.000 A 
ATOM     21  C   UNL     1       1.964  11.127  18.104  0.00  0.00    +0.000 A 
ATOM     22  C   UNL     1       1.985   9.743  17.916  0.00  0.00    +0.000 A 
ATOM     23  C   UNL     1       1.467   8.914  18.900  0.00  0.00    +0.000 A 
ATOM     24  C   UNL     1       0.887   9.476  20.037  0.00  0.00    +0.000 A 
ATOM     25  C   UNL     1       0.754  10.868  20.198  0.00  0.00    +0.000 A 
BRANCH  20  26
ATOM     26  O   UNL     1       1.429  13.066  19.266  0.00  0.00    +0.000 OA
BRANCH  26  28
ATOM     27  C   UNL     1      -0.120  14.906  19.222  0.00  0.00    +0.000 C 
ATOM     28  C   UNL     1       0.486  13.752  18.438  0.00  0.00    +0.000 C 
ENDBRANCH  26  28
ENDBRANCH  20  26
ENDBRANCH   1  25
TORSDOF 3
ENDMDL
