MODEL 1
REMARK VINA RESULT:      -7.7      0.000      0.000
REMARK  Name = 
REMARK  3 active torsions:
REMARK  status: ('A' for Active; 'I' for Inactive)
REMARK    1  A    between atoms: C_1  and  C_2
REMARK    2  A    between atoms: C_9  and  N_10
REMARK    3  A    between atoms: C_11  and  C_12
REMARK                            x       y       z     vdW  Elec       q    Type
REMARK                         _______ _______ _______ _____ _____    ______ ____
ROOT
ATOM      1  C   UNL     1       5.535   4.737  15.601  0.00  0.00    +0.000 C 
ATOM      2  C   UNL     1       4.592   4.407  16.720  0.00  0.00    +0.000 A 
ATOM      3  C   UNL     1       4.359   3.137  17.082  0.00  0.00    +0.000 A 
ATOM      4  C   UNL     1       3.432   2.757  18.158  0.00  0.00    +0.000 A 
ATOM      5  O   UNL     1       3.272   1.577  18.458  0.00  0.00    +0.000 OA
ATOM      6  O   UNL     1       2.760   3.781  18.796  0.00  0.00    +0.000 OA
ATOM      7  C   UNL     1       2.982   5.127  18.444  0.00  0.00    +0.000 A 
ATOM      8  C   UNL     1       2.241   6.076  19.153  0.00  0.00    +0.000 A 
ATOM      9  C   UNL     1       2.410   7.434  18.884  0.00  0.00    +0.000 A 
ATOM     10  C   UNL     1       3.318   7.800  17.885  0.00  0.00    +0.000 A 
ATOM     11  C   UNL     1       4.050   6.839  17.169  0.00  0.00    +0.000 A 
ATOM     12  C   UNL     1       3.887   5.477  17.440  0.00  0.00    +0.000 A 
ENDROOT
BRANCH   9  13
ATOM     13  N   UNL     1       1.674   8.459  19.502  0.00  0.00    +0.000 NA
ATOM     14  C   UNL     1       1.374   8.382  20.760  0.00  0.00    +0.000 C 
BRANCH  14  15
ATOM     15  C   UNL     1       0.609   9.447  21.440  0.00  0.00    +0.000 A 
ATOM     16  C   UNL     1      -0.092   9.180  22.620  0.00  0.00    +0.000 A 
ATOM     17  C   UNL     1      -0.840  10.191  23.225  0.00  0.00    +0.000 A 
ATOM     18  C   UNL     1      -0.883  11.465  22.656  0.00  0.00    +0.000 A 
ATOM     19  C   UNL     1      -0.171  11.734  21.486  0.00  0.00    +0.000 A 
ATOM     20  C   UNL     1       0.579  10.727  20.877  0.00  0.00    +0.000 A 
ENDBRANCH  14  15
ENDBRANCH   9  13
TORSDOF 2
ENDMDL
MODEL 2
REMARK VINA RESULT:      -7.5      1.635      2.371
REMARK  Name = 
REMARK  3 active torsions:
REMARK  status: ('A' for Active; 'I' for Inactive)
REMARK    1  A    between atoms: C_1  and  C_2
REMARK    2  A    between atoms: C_9  and  N_10
REMARK    3  A    between atoms: C_11  and  C_12
REMARK                            x       y       z     vdW  Elec       q    Type
REMARK                         _______ _______ _______ _____ _____    ______ ____
ROOT
ATOM      1  C   UNL     1       3.951   2.539  17.759  0.00  0.00    +0.000 C 
ATOM      2  C   UNL     1       4.210   3.930  17.263  0.00  0.00    +0.000 A 
ATOM      3  C   UNL     1       5.050   4.160  16.243  0.00  0.00    +0.000 A 
ATOM      4  C   UNL     1       5.354   5.504  15.728  0.00  0.00    +0.000 A 
ATOM      5  O   UNL     1       6.118   5.652  14.779  0.00  0.00    +0.000 OA
ATOM      6  O   UNL     1       4.749   6.569  16.365  0.00  0.00    +0.000 OA
ATOM      7  C   UNL     1       3.859   6.365  17.438  0.00  0.00    +0.000 A 
ATOM      8  C   UNL     1       3.313   7.518  18.009  0.00  0.00    +0.000 A 
ATOM      9  C   UNL     1       2.408   7.411  19.065  0.00  0.00    +0.000 A 
ATOM     10  C   UNL     1       2.090   6.131  19.532  0.00  0.00    +0.000 A 
ATOM     11  C   UNL     1       2.652   4.979  18.961  0.00  0.00    +0.000 A 
ATOM     12  C   UNL     1       3.556   5.083  17.899  0.00  0.00    +0.000 A 
ENDROOT
BRANCH   9  13
ATOM     13  N   UNL     1       1.848   8.509  19.739  0.00  0.00    +0.000 NA
ATOM     14  C   UNL     1       0.939   8.328  20.643  0.00  0.00    +0.000 C 
BRANCH  14  15
ATOM     15  C   UNL     1       0.338   9.461  21.376  0.00  0.00    +0.000 A 
ATOM     16  C   UNL     1      -0.346   9.253  22.577  0.00  0.00    +0.000 A 
ATOM     17  C   UNL     1      -0.940  10.332  23.232  0.00  0.00    +0.000 A 
ATOM     18  C   UNL     1      -0.846  11.615  22.692  0.00  0.00    +0.000 A 
ATOM     19  C   UNL     1      -0.151  11.824  21.500  0.00  0.00    +0.000 A 
ATOM     20  C   UNL     1       0.445  10.749  20.841  0.00  0.00    +0.000 A 
ENDBRANCH  14  15
ENDBRANCH   9  13
TORSDOF 2
ENDMDL
MODEL 3
REMARK VINA RESULT:      -7.4      1.688      2.652
REMARK  Name = 
REMARK  3 active torsions:
REMARK  status: ('A' for Active; 'I' for Inactive)
REMARK    1  A    between atoms: C_1  and  C_2
REMARK    2  A    between atoms: C_9  and  N_10
REMARK    3  A    between atoms: C_11  and  C_12
REMARK                            x       y       z     vdW  Elec       q    Type
REMARK                         _______ _______ _______ _____ _____    ______ ____
ROOT
ATOM      1  C   UNL     1       4.135   2.727  17.730  0.00  0.00    +0.000 C 
ATOM      2  C   UNL     1       4.350   4.121  17.221  0.00  0.00    +0.000 A 
ATOM      3  C   UNL     1       5.207   4.373  16.221  0.00  0.00    +0.000 A 
ATOM      4  C   UNL     1       5.470   5.721  15.696  0.00  0.00    +0.000 A 
ATOM      5  O   UNL     1       6.253   5.888  14.765  0.00  0.00    +0.000 OA
ATOM      6  O   UNL     1       4.804   6.769  16.301  0.00  0.00    +0.000 OA
ATOM      7  C   UNL     1       3.894   6.541  17.353  0.00  0.00    +0.000 A 
ATOM      8  C   UNL     1       3.286   7.677  17.892  0.00  0.00    +0.000 A 
ATOM      9  C   UNL     1       2.357   7.547  18.924  0.00  0.00    +0.000 A 
ATOM     10  C   UNL     1       2.079   6.261  19.401  0.00  0.00    +0.000 A 
ATOM     11  C   UNL     1       2.704   5.126  18.862  0.00  0.00    +0.000 A 
ATOM     12  C   UNL     1       3.632   5.254  17.823  0.00  0.00    +0.000 A 
ENDROOT
BRANCH   9  13
ATOM     13  N   UNL     1       1.734   8.629  19.568  0.00  0.00    +0.000 NA
ATOM     14  C   UNL     1       0.997   8.432  20.614  0.00  0.00    +0.000 C 
BRANCH  14  15
ATOM     15  C   UNL     1       0.336   9.551  21.318  0.00  0.00    +0.000 A 
ATOM     16  C   UNL     1       0.399  10.851  20.810  0.00  0.00    +0.000 A 
ATOM     17  C   UNL     1      -0.199  11.899  21.511  0.00  0.00    +0.000 A 
ATOM     18  C   UNL     1      -0.860  11.647  22.714  0.00  0.00    +0.000 A 
ATOM     19  C   UNL     1      -0.935  10.346  23.213  0.00  0.00    +0.000 A 
ATOM     20  C   UNL     1      -0.339   9.294  22.516  0.00  0.00    +0.000 A 
ENDBRANCH  14  15
ENDBRANCH   9  13
TORSDOF 2
ENDMDL
MODEL 4
REMARK VINA RESULT:      -7.3      2.881      7.944
REMARK  Name = 
REMARK  3 active torsions:
REMARK  status: ('A' for Active; 'I' for Inactive)
REMARK    1  A    between atoms: C_1  and  C_2
REMARK    2  A    between atoms: C_9  and  N_10
REMARK    3  A    between atoms: C_11  and  C_12
REMARK                            x       y       z     vdW  Elec       q    Type
REMARK                         _______ _______ _______ _____ _____    ______ ____
ROOT
ATOM      1  C   UNL     1      -1.028  12.048  18.995  0.00  0.00    +0.000 C 
ATOM      2  C   UNL     1      -0.474  11.065  19.984  0.00  0.00    +0.000 A 
ATOM      3  C   UNL     1      -0.761  11.157  21.291  0.00  0.00    +0.000 A 
ATOM      4  C   UNL     1      -0.232  10.233  22.305  0.00  0.00    +0.000 A 
ATOM      5  O   UNL     1      -0.544  10.356  23.486  0.00  0.00    +0.000 OA
ATOM      6  O   UNL     1       0.626   9.245  21.865  0.00  0.00    +0.000 OA
ATOM      7  C   UNL     1       0.948   9.117  20.499  0.00  0.00    +0.000 A 
ATOM      8  C   UNL     1       1.830   8.085  20.171  0.00  0.00    +0.000 A 
ATOM      9  C   UNL     1       2.191   7.872  18.841  0.00  0.00    +0.000 A 
ATOM     10  C   UNL     1       1.659   8.727  17.870  0.00  0.00    +0.000 A 
ATOM     11  C   UNL     1       0.783   9.770  18.209  0.00  0.00    +0.000 A 
ATOM     12  C   UNL     1       0.416   9.982  19.541  0.00  0.00    +0.000 A 
ENDROOT
BRANCH   9  13
ATOM     13  N   UNL     1       3.111   6.898  18.418  0.00  0.00    +0.000 NA
ATOM     14  C   UNL     1       3.952   7.160  17.468  0.00  0.00    +0.000 C 
BRANCH  14  15
ATOM     15  C   UNL     1       4.937   6.161  17.008  0.00  0.00    +0.000 A 
ATOM     16  C   UNL     1       6.298   6.474  16.952  0.00  0.00    +0.000 A 
ATOM     17  C   UNL     1       7.208   5.528  16.476  0.00  0.00    +0.000 A 
ATOM     18  C   UNL     1       6.759   4.273  16.064  0.00  0.00    +0.000 A 
ATOM     19  C   UNL     1       5.401   3.956  16.134  0.00  0.00    +0.000 A 
ATOM     20  C   UNL     1       4.488   4.898  16.608  0.00  0.00    +0.000 A 
ENDBRANCH  14  15
ENDBRANCH   9  13
TORSDOF 2
ENDMDL
MODEL 5
REMARK VINA RESULT:      -7.3      3.184      8.419
REMARK  Name = 
REMARK  3 active torsions:
REMARK  status: ('A' for Active; 'I' for Inactive)
REMARK    1  A    between atoms: C_1  and  C_2
REMARK    2  A    between atoms: C_9  and  N_10
REMARK    3  A    between atoms: C_11  and  C_12
REMARK                            x       y       z     vdW  Elec       q    Type
REMARK                         _______ _______ _______ _____ _____    ______ ____
ROOT
ATOM      1  C   UNL     1       2.031   3.571  21.600  0.00  0.00    +0.000 C 
ATOM      2  C   UNL     1       2.169   4.858  20.843  0.00  0.00    +0.000 A 
ATOM      3  C   UNL     1       1.508   5.962  21.222  0.00  0.00    +0.000 A 
ATOM      4  C   UNL     1       1.592   7.244  20.507  0.00  0.00    +0.000 A 
ATOM      5  O   UNL     1       0.978   8.227  20.911  0.00  0.00    +0.000 OA
ATOM      6  O   UNL     1       2.379   7.278  19.373  0.00  0.00    +0.000 OA
ATOM      7  C   UNL     1       3.089   6.138  18.946  0.00  0.00    +0.000 A 
ATOM      8  C   UNL     1       3.847   6.288  17.782  0.00  0.00    +0.000 A 
ATOM      9  C   UNL     1       4.597   5.218  17.296  0.00  0.00    +0.000 A 
ATOM     10  C   UNL     1       4.547   4.007  17.996  0.00  0.00    +0.000 A 
ATOM     11  C   UNL     1       3.774   3.861  19.158  0.00  0.00    +0.000 A 
ATOM     12  C   UNL     1       3.025   4.934  19.650  0.00  0.00    +0.000 A 
ENDROOT
BRANCH   9  13
ATOM     13  N   UNL     1       5.346   5.253  16.108  0.00  0.00    +0.000 NA
ATOM     14  C   UNL     1       5.350   4.236  15.306  0.00  0.00    +0.000 C 
BRANCH  14  15
ATOM     15  C   UNL     1       6.119   4.246  14.045  0.00  0.00    +0.000 A 
ATOM     16  C   UNL     1       7.231   5.079  13.893  0.00  0.00    +0.000 A 
ATOM     17  C   UNL     1       7.919   5.102  12.679  0.00  0.00    +0.000 A 
ATOM     18  C   UNL     1       7.500   4.292  11.623  0.00  0.00    +0.000 A 
ATOM     19  C   UNL     1       6.398   3.450  11.781  0.00  0.00    +0.000 A 
ATOM     20  C   UNL     1       5.706   3.422  12.992  0.00  0.00    +0.000 A 
ENDBRANCH  14  15
ENDBRANCH   9  13
TORSDOF 2
ENDMDL
MODEL 6
REMARK VINA RESULT:      -7.3      3.170      8.408
REMARK  Name = 
REMARK  3 active torsions:
REMARK  status: ('A' for Active; 'I' for Inactive)
REMARK    1  A    between atoms: C_1  and  C_2
REMARK    2  A    between atoms: C_9  and  N_10
REMARK    3  A    between atoms: C_11  and  C_12
REMARK                            x       y       z     vdW  Elec       q    Type
REMARK                         _______ _______ _______ _____ _____    ______ ____
ROOT
ATOM      1  C   UNL     1       1.698   3.462  21.324  0.00  0.00    +0.000 C 
ATOM      2  C   UNL     1       1.972   4.791  20.684  0.00  0.00    +0.000 A 
ATOM      3  C   UNL     1       1.432   5.920  21.166  0.00  0.00    +0.000 A 
ATOM      4  C   UNL     1       1.652   7.245  20.567  0.00  0.00    +0.000 A 
ATOM      5  O   UNL     1       1.146   8.247  21.064  0.00  0.00    +0.000 OA
ATOM      6  O   UNL     1       2.438   7.297  19.433  0.00  0.00    +0.000 OA
ATOM      7  C   UNL     1       3.023   6.131  18.900  0.00  0.00    +0.000 A 
ATOM      8  C   UNL     1       3.793   6.304  17.748  0.00  0.00    +0.000 A 
ATOM      9  C   UNL     1       4.426   5.208  17.161  0.00  0.00    +0.000 A 
ATOM     10  C   UNL     1       4.247   3.952  17.750  0.00  0.00    +0.000 A 
ATOM     11  C   UNL     1       3.463   3.785  18.901  0.00  0.00    +0.000 A 
ATOM     12  C   UNL     1       2.831   4.882  19.495  0.00  0.00    +0.000 A 
ENDROOT
BRANCH   9  13
ATOM     13  N   UNL     1       5.174   5.271  15.973  0.00  0.00    +0.000 NA
ATOM     14  C   UNL     1       5.318   4.217  15.234  0.00  0.00    +0.000 C 
BRANCH  14  15
ATOM     15  C   UNL     1       6.090   4.253  13.975  0.00  0.00    +0.000 A 
ATOM     16  C   UNL     1       5.761   3.409  12.911  0.00  0.00    +0.000 A 
ATOM     17  C   UNL     1       6.528   3.432  11.745  0.00  0.00    +0.000 A 
ATOM     18  C   UNL     1       7.617   4.297  11.642  0.00  0.00    +0.000 A 
ATOM     19  C   UNL     1       7.937   5.150  12.701  0.00  0.00    +0.000 A 
ATOM     20  C   UNL     1       7.173   5.132  13.868  0.00  0.00    +0.000 A 
ENDBRANCH  14  15
ENDBRANCH   9  13
TORSDOF 2
ENDMDL
MODEL 7
REMARK VINA RESULT:      -7.3      1.158      1.250
REMARK  Name = 
REMARK  3 active torsions:
REMARK  status: ('A' for Active; 'I' for Inactive)
REMARK    1  A    between atoms: C_1  and  C_2
REMARK    2  A    between atoms: C_9  and  N_10
REMARK    3  A    between atoms: C_11  and  C_12
REMARK                            x       y       z     vdW  Elec       q    Type
REMARK                         _______ _______ _______ _____ _____    ______ ____
ROOT
ATOM      1  C   UNL     1       4.917   4.530  16.459  0.00  0.00    +0.000 C 
ATOM      2  C   UNL     1       4.268   4.495  17.811  0.00  0.00    +0.000 A 
ATOM      3  C   UNL     1       4.310   3.394  18.575  0.00  0.00    +0.000 A 
ATOM      4  C   UNL     1       3.676   3.299  19.898  0.00  0.00    +0.000 A 
ATOM      5  O   UNL     1       3.764   2.270  20.561  0.00  0.00    +0.000 OA
ATOM      6  O   UNL     1       2.984   4.409  20.342  0.00  0.00    +0.000 OA
ATOM      7  C   UNL     1       2.921   5.584  19.566  0.00  0.00    +0.000 A 
ATOM      8  C   UNL     1       2.187   6.639  20.114  0.00  0.00    +0.000 A 
ATOM      9  C   UNL     1       2.086   7.848  19.424  0.00  0.00    +0.000 A 
ATOM     10  C   UNL     1       2.718   7.953  18.181  0.00  0.00    +0.000 A 
ATOM     11  C   UNL     1       3.443   6.883  17.634  0.00  0.00    +0.000 A 
ATOM     12  C   UNL     1       3.551   5.672  18.324  0.00  0.00    +0.000 A 
ENDROOT
BRANCH   9  13
ATOM     13  N   UNL     1       1.327   8.946  19.864  0.00  0.00    +0.000 NA
ATOM     14  C   UNL     1       0.562   8.839  20.903  0.00  0.00    +0.000 C 
BRANCH  14  15
ATOM     15  C   UNL     1      -0.240   9.978  21.396  0.00  0.00    +0.000 A 
ATOM     16  C   UNL     1      -0.588  10.076  22.746  0.00  0.00    +0.000 A 
ATOM     17  C   UNL     1      -1.379  11.139  23.183  0.00  0.00    +0.000 A 
ATOM     18  C   UNL     1      -1.817  12.103  22.274  0.00  0.00    +0.000 A 
ATOM     19  C   UNL     1      -1.457  12.013  20.929  0.00  0.00    +0.000 A 
ATOM     20  C   UNL     1      -0.666  10.952  20.486  0.00  0.00    +0.000 A 
ENDBRANCH  14  15
ENDBRANCH   9  13
TORSDOF 2
ENDMDL
MODEL 8
REMARK VINA RESULT:      -7.2      5.734      6.741
REMARK  Name = 
REMARK  3 active torsions:
REMARK  status: ('A' for Active; 'I' for Inactive)
REMARK    1  A    between atoms: C_1  and  C_2
REMARK    2  A    between atoms: C_9  and  N_10
REMARK    3  A    between atoms: C_11  and  C_12
REMARK                            x       y       z     vdW  Elec       q    Type
REMARK                         _______ _______ _______ _____ _____    ______ ____
ROOT
ATOM      1  C   UNL     1       4.835   4.028  15.118  0.00  0.00    +0.000 C 
ATOM      2  C   UNL     1       5.132   4.091  16.587  0.00  0.00    +0.000 A 
ATOM      3  C   UNL     1       4.559   3.239  17.450  0.00  0.00    +0.000 A 
ATOM      4  C   UNL     1       4.800   3.268  18.900  0.00  0.00    +0.000 A 
ATOM      5  O   UNL     1       4.261   2.451  19.640  0.00  0.00    +0.000 OA
ATOM      6  O   UNL     1       5.645   4.252  19.375  0.00  0.00    +0.000 OA
ATOM      7  C   UNL     1       6.267   5.162  18.497  0.00  0.00    +0.000 A 
ATOM      8  C   UNL     1       7.096   6.117  19.091  0.00  0.00    +0.000 A 
ATOM      9  C   UNL     1       7.767   7.048  18.297  0.00  0.00    +0.000 A 
ATOM     10  C   UNL     1       7.567   6.999  16.914  0.00  0.00    +0.000 A 
ATOM     11  C   UNL     1       6.723   6.043  16.326  0.00  0.00    +0.000 A 
ATOM     12  C   UNL     1       6.053   5.107  17.118  0.00  0.00    +0.000 A 
ENDROOT
BRANCH   9  13
ATOM     13  N   UNL     1       8.576   8.079  18.803  0.00  0.00    +0.000 NA
ATOM     14  C   UNL     1       8.514   9.268  18.295  0.00  0.00    +0.000 C 
BRANCH  14  15
ATOM     15  C   UNL     1       9.346  10.376  18.811  0.00  0.00    +0.000 A 
ATOM     16  C   UNL     1       9.447  10.613  20.184  0.00  0.00    +0.000 A 
ATOM     17  C   UNL     1      10.206  11.688  20.648  0.00  0.00    +0.000 A 
ATOM     18  C   UNL     1      10.865  12.520  19.742  0.00  0.00    +0.000 A 
ATOM     19  C   UNL     1      10.775  12.273  18.371  0.00  0.00    +0.000 A 
ATOM     20  C   UNL     1      10.018  11.200  17.902  0.00  0.00    +0.000 A 
ENDBRANCH  14  15
ENDBRANCH   9  13
TORSDOF 2
ENDMDL
MODEL 9
REMARK VINA RESULT:      -7.2      3.074      8.244
REMARK  Name = 
REMARK  3 active torsions:
REMARK  status: ('A' for Active; 'I' for Inactive)
REMARK    1  A    between atoms: C_1  and  C_2
REMARK    2  A    between atoms: C_9  and  N_10
REMARK    3  A    between atoms: C_11  and  C_12
REMARK                            x       y       z     vdW  Elec       q    Type
REMARK                         _______ _______ _______ _____ _____    ______ ____
ROOT
ATOM      1  C   UNL     1      -0.211   9.596  22.968  0.00  0.00    +0.000 C 
ATOM      2  C   UNL     1       0.012  10.144  21.590  0.00  0.00    +0.000 A 
ATOM      3  C   UNL     1      -0.504  11.324  21.218  0.00  0.00    +0.000 A 
ATOM      4  C   UNL     1      -0.332  11.899  19.876  0.00  0.00    +0.000 A 
ATOM      5  O   UNL     1      -0.813  12.994  19.598  0.00  0.00    +0.000 OA
ATOM      6  O   UNL     1       0.381  11.150  18.961  0.00  0.00    +0.000 OA
ATOM      7  C   UNL     1       0.940   9.907  19.317  0.00  0.00    +0.000 A 
ATOM      8  C   UNL     1       1.635   9.236  18.308  0.00  0.00    +0.000 A 
ATOM      9  C   UNL     1       2.237   8.006  18.575  0.00  0.00    +0.000 A 
ATOM     10  C   UNL     1       2.105   7.474  19.863  0.00  0.00    +0.000 A 
ATOM     11  C   UNL     1       1.395   8.150  20.867  0.00  0.00    +0.000 A 
ATOM     12  C   UNL     1       0.795   9.384  20.604  0.00  0.00    +0.000 A 
ENDROOT
BRANCH   9  13
ATOM     13  N   UNL     1       2.909   7.231  17.615  0.00  0.00    +0.000 NA
ATOM     14  C   UNL     1       3.913   6.488  17.960  0.00  0.00    +0.000 C 
BRANCH  14  15
ATOM     15  C   UNL     1       4.633   5.654  16.976  0.00  0.00    +0.000 A 
ATOM     16  C   UNL     1       5.248   6.234  15.862  0.00  0.00    +0.000 A 
ATOM     17  C   UNL     1       5.890   5.424  14.924  0.00  0.00    +0.000 A 
ATOM     18  C   UNL     1       5.921   4.040  15.101  0.00  0.00    +0.000 A 
ATOM     19  C   UNL     1       5.319   3.464  16.221  0.00  0.00    +0.000 A 
ATOM     20  C   UNL     1       4.676   4.269  17.162  0.00  0.00    +0.000 A 
ENDBRANCH  14  15
ENDBRANCH   9  13
TORSDOF 2
ENDMDL
