MODEL 1
REMARK VINA RESULT:      -7.9      0.000      0.000
REMARK  Name = 
REMARK  3 active torsions:
REMARK  status: ('A' for Active; 'I' for Inactive)
REMARK    1  A    between atoms: C_5  and  C_6
REMARK    2  A    between atoms: C_9  and  N_10
REMARK    3  A    between atoms: C_11  and  C_12
REMARK                            x       y       z     vdW  Elec       q    Type
REMARK                         _______ _______ _______ _____ _____    ______ ____
ROOT
ATOM      1  C   UNL     1       6.278   5.760  18.223  0.00  0.00    +0.000 A 
ATOM      2  C   UNL     1       7.476   5.911  18.929  0.00  0.00    +0.000 A 
ATOM      3  C   UNL     1       8.236   7.075  18.782  0.00  0.00    +0.000 A 
ATOM      4  C   UNL     1       7.826   8.106  17.933  0.00  0.00    +0.000 A 
ATOM      5  C   UNL     1       6.616   7.964  17.248  0.00  0.00    +0.000 A 
ATOM      6  C   UNL     1       5.853   6.796  17.379  0.00  0.00    +0.000 A 
ENDROOT
BRANCH   1  11
ATOM      7  O   UNL     1       3.075   1.333  18.521  0.00  0.00    +0.000 OA
ATOM      8  C   UNL     1       3.803   2.318  18.430  0.00  0.00    +0.000 C 
ATOM      9  C   UNL     1       3.712   3.310  17.293  0.00  0.00    +0.000 C 
ATOM     10  O   UNL     1       4.528   4.471  17.357  0.00  0.00    +0.000 OA
ATOM     11  C   UNL     1       5.442   4.538  18.350  0.00  0.00    +0.000 C 
ATOM     12  N   UNL     1       5.600   3.672  19.302  0.00  0.00    +0.000 NA
ATOM     13  N   UNL     1       4.781   2.592  19.343  0.00  0.00    +0.000 N 
ATOM     14  H   UNL     1       4.902   1.950  20.120  0.00  0.00    +0.000 HD
ENDBRANCH   1  11
BRANCH   4  15
ATOM     15  N   UNL     1       8.644   9.244  17.874  0.00  0.00    +0.000 NA
ATOM     16  C   UNL     1       9.037   9.828  18.959  0.00  0.00    +0.000 C 
BRANCH  16  17
ATOM     17  C   UNL     1       9.857  11.055  18.913  0.00  0.00    +0.000 A 
ATOM     18  C   UNL     1      10.712  11.379  19.972  0.00  0.00    +0.000 A 
ATOM     19  C   UNL     1      11.494  12.532  19.905  0.00  0.00    +0.000 A 
ATOM     20  C   UNL     1      11.418  13.361  18.785  0.00  0.00    +0.000 A 
ATOM     21  C   UNL     1      10.566  13.038  17.728  0.00  0.00    +0.000 A 
ATOM     22  C   UNL     1       9.785  11.882  17.789  0.00  0.00    +0.000 A 
ENDBRANCH  16  17
ENDBRANCH   4  15
TORSDOF 3
ENDMDL
MODEL 2
REMARK VINA RESULT:      -7.9      0.376      1.495
REMARK  Name = 
REMARK  3 active torsions:
REMARK  status: ('A' for Active; 'I' for Inactive)
REMARK    1  A    between atoms: C_5  and  C_6
REMARK    2  A    between atoms: C_9  and  N_10
REMARK    3  A    between atoms: C_11  and  C_12
REMARK                            x       y       z     vdW  Elec       q    Type
REMARK                         _______ _______ _______ _____ _____    ______ ____
ROOT
ATOM      1  C   UNL     1       6.231   5.716  18.199  0.00  0.00    +0.000 A 
ATOM      2  C   UNL     1       5.866   6.756  17.339  0.00  0.00    +0.000 A 
ATOM      3  C   UNL     1       6.671   7.895  17.233  0.00  0.00    +0.000 A 
ATOM      4  C   UNL     1       7.847   8.023  17.976  0.00  0.00    +0.000 A 
ATOM      5  C   UNL     1       8.223   6.970  18.815  0.00  0.00    +0.000 A 
ATOM      6  C   UNL     1       7.417   5.830  18.938  0.00  0.00    +0.000 A 
ENDROOT
BRANCH   1  11
ATOM      7  O   UNL     1       3.044   1.281  18.561  0.00  0.00    +0.000 OA
ATOM      8  C   UNL     1       3.768   2.268  18.456  0.00  0.00    +0.000 C 
ATOM      9  C   UNL     1       3.641   3.269  17.330  0.00  0.00    +0.000 C 
ATOM     10  O   UNL     1       4.457   4.431  17.378  0.00  0.00    +0.000 OA
ATOM     11  C   UNL     1       5.401   4.491  18.342  0.00  0.00    +0.000 C 
ATOM     12  N   UNL     1       5.590   3.618  19.283  0.00  0.00    +0.000 NA
ATOM     13  N   UNL     1       4.773   2.536  19.341  0.00  0.00    +0.000 N 
ATOM     14  H   UNL     1       4.919   1.889  20.109  0.00  0.00    +0.000 HD
ENDBRANCH   1  11
BRANCH   4  15
ATOM     15  N   UNL     1       8.599   9.190  17.779  0.00  0.00    +0.000 NA
ATOM     16  C   UNL     1       8.965   9.913  18.787  0.00  0.00    +0.000 C 
BRANCH  16  17
ATOM     17  C   UNL     1       9.715  11.171  18.593  0.00  0.00    +0.000 A 
ATOM     18  C   UNL     1       9.196  12.191  17.789  0.00  0.00    +0.000 A 
ATOM     19  C   UNL     1       9.907  13.380  17.632  0.00  0.00    +0.000 A 
ATOM     20  C   UNL     1      11.135  13.547  18.272  0.00  0.00    +0.000 A 
ATOM     21  C   UNL     1      11.653  12.530  19.074  0.00  0.00    +0.000 A 
ATOM     22  C   UNL     1      10.942  11.340  19.239  0.00  0.00    +0.000 A 
ENDBRANCH  16  17
ENDBRANCH   4  15
TORSDOF 3
ENDMDL
MODEL 3
REMARK VINA RESULT:      -7.9      0.614      1.231
REMARK  Name = 
REMARK  3 active torsions:
REMARK  status: ('A' for Active; 'I' for Inactive)
REMARK    1  A    between atoms: C_5  and  C_6
REMARK    2  A    between atoms: C_9  and  N_10
REMARK    3  A    between atoms: C_11  and  C_12
REMARK                            x       y       z     vdW  Elec       q    Type
REMARK                         _______ _______ _______ _____ _____    ______ ____
ROOT
ATOM      1  C   UNL     1       6.183   5.661  18.212  0.00  0.00    +0.000 A 
ATOM      2  C   UNL     1       5.807   6.674  17.324  0.00  0.00    +0.000 A 
ATOM      3  C   UNL     1       6.612   7.808  17.172  0.00  0.00    +0.000 A 
ATOM      4  C   UNL     1       7.797   7.959  17.896  0.00  0.00    +0.000 A 
ATOM      5  C   UNL     1       8.183   6.932  18.764  0.00  0.00    +0.000 A 
ATOM      6  C   UNL     1       7.377   5.797  18.932  0.00  0.00    +0.000 A 
ENDROOT
BRANCH   1  11
ATOM      7  O   UNL     1       2.999   1.242  18.750  0.00  0.00    +0.000 OA
ATOM      8  C   UNL     1       3.722   2.224  18.605  0.00  0.00    +0.000 C 
ATOM      9  C   UNL     1       3.588   3.184  17.444  0.00  0.00    +0.000 C 
ATOM     10  O   UNL     1       4.404   4.347  17.446  0.00  0.00    +0.000 OA
ATOM     11  C   UNL     1       5.354   4.442  18.403  0.00  0.00    +0.000 C 
ATOM     12  N   UNL     1       5.547   3.603  19.373  0.00  0.00    +0.000 NA
ATOM     13  N   UNL     1       4.732   2.525  19.475  0.00  0.00    +0.000 N 
ATOM     14  H   UNL     1       4.882   1.905  20.264  0.00  0.00    +0.000 HD
ENDBRANCH   1  11
BRANCH   4  15
ATOM     15  N   UNL     1       8.547   9.118  17.654  0.00  0.00    +0.000 NA
ATOM     16  C   UNL     1       8.855   9.916  18.624  0.00  0.00    +0.000 C 
BRANCH  16  17
ATOM     17  C   UNL     1       9.602  11.167  18.378  0.00  0.00    +0.000 A 
ATOM     18  C   UNL     1      10.984  11.220  18.583  0.00  0.00    +0.000 A 
ATOM     19  C   UNL     1      11.678  12.403  18.328  0.00  0.00    +0.000 A 
ATOM     20  C   UNL     1      10.991  13.529  17.875  0.00  0.00    +0.000 A 
ATOM     21  C   UNL     1       9.612  13.476  17.670  0.00  0.00    +0.000 A 
ATOM     22  C   UNL     1       8.914  12.292  17.919  0.00  0.00    +0.000 A 
ENDBRANCH  16  17
ENDBRANCH   4  15
TORSDOF 3
ENDMDL
MODEL 4
REMARK VINA RESULT:      -7.9      0.367      1.066
REMARK  Name = 
REMARK  3 active torsions:
REMARK  status: ('A' for Active; 'I' for Inactive)
REMARK    1  A    between atoms: C_5  and  C_6
REMARK    2  A    between atoms: C_9  and  N_10
REMARK    3  A    between atoms: C_11  and  C_12
REMARK                            x       y       z     vdW  Elec       q    Type
REMARK                         _______ _______ _______ _____ _____    ______ ____
ROOT
ATOM      1  C   UNL     1       6.209   5.698  18.196  0.00  0.00    +0.000 A 
ATOM      2  C   UNL     1       7.418   5.879  18.875  0.00  0.00    +0.000 A 
ATOM      3  C   UNL     1       8.169   7.041  18.673  0.00  0.00    +0.000 A 
ATOM      4  C   UNL     1       7.739   8.039  17.794  0.00  0.00    +0.000 A 
ATOM      5  C   UNL     1       6.517   7.866  17.136  0.00  0.00    +0.000 A 
ATOM      6  C   UNL     1       5.763   6.700  17.323  0.00  0.00    +0.000 A 
ENDROOT
BRANCH   1  11
ATOM      7  O   UNL     1       3.034   1.270  18.714  0.00  0.00    +0.000 OA
ATOM      8  C   UNL     1       3.755   2.255  18.573  0.00  0.00    +0.000 C 
ATOM      9  C   UNL     1       3.624   3.216  17.414  0.00  0.00    +0.000 C 
ATOM     10  O   UNL     1       4.437   4.381  17.421  0.00  0.00    +0.000 OA
ATOM     11  C   UNL     1       5.382   4.476  18.382  0.00  0.00    +0.000 C 
ATOM     12  N   UNL     1       5.574   3.637  19.352  0.00  0.00    +0.000 NA
ATOM     13  N   UNL     1       4.761   2.556  19.448  0.00  0.00    +0.000 N 
ATOM     14  H   UNL     1       4.908   1.935  20.237  0.00  0.00    +0.000 HD
ENDBRANCH   1  11
BRANCH   4  15
ATOM     15  N   UNL     1       8.549   9.178  17.680  0.00  0.00    +0.000 NA
ATOM     16  C   UNL     1       8.794   9.917  18.712  0.00  0.00    +0.000 C 
BRANCH  16  17
ATOM     17  C   UNL     1       9.604  11.147  18.598  0.00  0.00    +0.000 A 
ATOM     18  C   UNL     1       9.164  12.216  17.811  0.00  0.00    +0.000 A 
ATOM     19  C   UNL     1       9.932  13.378  17.729  0.00  0.00    +0.000 A 
ATOM     20  C   UNL     1      11.137  13.468  18.426  0.00  0.00    +0.000 A 
ATOM     21  C   UNL     1      11.576  12.401  19.211  0.00  0.00    +0.000 A 
ATOM     22  C   UNL     1      10.808  11.238  19.301  0.00  0.00    +0.000 A 
ENDBRANCH  16  17
ENDBRANCH   4  15
TORSDOF 3
ENDMDL
MODEL 5
REMARK VINA RESULT:      -7.8      1.011      1.098
REMARK  Name = 
REMARK  3 active torsions:
REMARK  status: ('A' for Active; 'I' for Inactive)
REMARK    1  A    between atoms: C_5  and  C_6
REMARK    2  A    between atoms: C_9  and  N_10
REMARK    3  A    between atoms: C_11  and  C_12
REMARK                            x       y       z     vdW  Elec       q    Type
REMARK                         _______ _______ _______ _____ _____    ______ ____
ROOT
ATOM      1  C   UNL     1       6.139   5.624  18.143  0.00  0.00    +0.000 A 
ATOM      2  C   UNL     1       7.297   5.699  18.924  0.00  0.00    +0.000 A 
ATOM      3  C   UNL     1       8.135   6.815  18.830  0.00  0.00    +0.000 A 
ATOM      4  C   UNL     1       7.843   7.870  17.963  0.00  0.00    +0.000 A 
ATOM      5  C   UNL     1       6.671   7.804  17.203  0.00  0.00    +0.000 A 
ATOM      6  C   UNL     1       5.831   6.685  17.280  0.00  0.00    +0.000 A 
ENDROOT
BRANCH   1  11
ATOM      7  O   UNL     1       2.869   1.257  18.586  0.00  0.00    +0.000 OA
ATOM      8  C   UNL     1       3.591   2.248  18.508  0.00  0.00    +0.000 C 
ATOM      9  C   UNL     1       4.509   2.691  19.625  0.00  0.00    +0.000 C 
ATOM     10  O   UNL     1       5.381   3.784  19.374  0.00  0.00    +0.000 OA
ATOM     11  C   UNL     1       5.223   4.454  18.211  0.00  0.00    +0.000 C 
ATOM     12  N   UNL     1       4.397   4.150  17.260  0.00  0.00    +0.000 NA
ATOM     13  N   UNL     1       3.609   3.056  17.406  0.00  0.00    +0.000 N 
ATOM     14  H   UNL     1       2.999   2.819  16.631  0.00  0.00    +0.000 HD
ENDBRANCH   1  11
BRANCH   4  15
ATOM     15  N   UNL     1       8.731   8.956  17.961  0.00  0.00    +0.000 NA
ATOM     16  C   UNL     1       8.910   9.660  19.030  0.00  0.00    +0.000 C 
BRANCH  16  17
ATOM     17  C   UNL     1       9.804  10.836  19.031  0.00  0.00    +0.000 A 
ATOM     18  C   UNL     1      10.254  11.386  20.236  0.00  0.00    +0.000 A 
ATOM     19  C   UNL     1      11.113  12.484  20.219  0.00  0.00    +0.000 A 
ATOM     20  C   UNL     1      11.516  13.035  19.002  0.00  0.00    +0.000 A 
ATOM     21  C   UNL     1      11.067  12.487  17.800  0.00  0.00    +0.000 A 
ATOM     22  C   UNL     1      10.211  11.383  17.812  0.00  0.00    +0.000 A 
ENDBRANCH  16  17
ENDBRANCH   4  15
TORSDOF 3
ENDMDL
MODEL 6
REMARK VINA RESULT:      -7.7      0.945      1.476
REMARK  Name = 
REMARK  3 active torsions:
REMARK  status: ('A' for Active; 'I' for Inactive)
REMARK    1  A    between atoms: C_5  and  C_6
REMARK    2  A    between atoms: C_9  and  N_10
REMARK    3  A    between atoms: C_11  and  C_12
REMARK                            x       y       z     vdW  Elec       q    Type
REMARK                         _______ _______ _______ _____ _____    ______ ____
ROOT
ATOM      1  C   UNL     1       6.250   5.636  18.099  0.00  0.00    +0.000 A 
ATOM      2  C   UNL     1       7.412   5.791  18.861  0.00  0.00    +0.000 A 
ATOM      3  C   UNL     1       8.169   6.963  18.756  0.00  0.00    +0.000 A 
ATOM      4  C   UNL     1       7.790   7.996  17.895  0.00  0.00    +0.000 A 
ATOM      5  C   UNL     1       6.614   7.848  17.154  0.00  0.00    +0.000 A 
ATOM      6  C   UNL     1       5.855   6.673  17.243  0.00  0.00    +0.000 A 
ENDROOT
BRANCH   1  11
ATOM      7  O   UNL     1       3.245   1.091  18.616  0.00  0.00    +0.000 OA
ATOM      8  C   UNL     1       3.902   2.124  18.516  0.00  0.00    +0.000 C 
ATOM      9  C   UNL     1       4.483   2.852  19.707  0.00  0.00    +0.000 C 
ATOM     10  O   UNL     1       5.321   3.971  19.457  0.00  0.00    +0.000 OA
ATOM     11  C   UNL     1       5.419   4.405  18.181  0.00  0.00    +0.000 C 
ATOM     12  N   UNL     1       4.877   3.851  17.141  0.00  0.00    +0.000 NA
ATOM     13  N   UNL     1       4.146   2.722  17.312  0.00  0.00    +0.000 N 
ATOM     14  H   UNL     1       3.764   2.288  16.478  0.00  0.00    +0.000 HD
ENDBRANCH   1  11
BRANCH   4  15
ATOM     15  N   UNL     1       8.600   9.140  17.880  0.00  0.00    +0.000 NA
ATOM     16  C   UNL     1       8.932   9.725  18.985  0.00  0.00    +0.000 C 
BRANCH  16  17
ATOM     17  C   UNL     1       9.743  10.959  18.984  0.00  0.00    +0.000 A 
ATOM     18  C   UNL     1       9.779  11.784  17.855  0.00  0.00    +0.000 A 
ATOM     19  C   UNL     1      10.535  12.956  17.876  0.00  0.00    +0.000 A 
ATOM     20  C   UNL     1      11.256  13.299  19.020  0.00  0.00    +0.000 A 
ATOM     21  C   UNL     1      11.220  12.477  20.146  0.00  0.00    +0.000 A 
ATOM     22  C   UNL     1      10.460  11.305  20.131  0.00  0.00    +0.000 A 
ENDBRANCH  16  17
ENDBRANCH   4  15
TORSDOF 3
ENDMDL
MODEL 7
REMARK VINA RESULT:      -7.6      0.977      1.788
REMARK  Name = 
REMARK  3 active torsions:
REMARK  status: ('A' for Active; 'I' for Inactive)
REMARK    1  A    between atoms: C_5  and  C_6
REMARK    2  A    between atoms: C_9  and  N_10
REMARK    3  A    between atoms: C_11  and  C_12
REMARK                            x       y       z     vdW  Elec       q    Type
REMARK                         _______ _______ _______ _____ _____    ______ ____
ROOT
ATOM      1  C   UNL     1       6.321   5.728  18.101  0.00  0.00    +0.000 A 
ATOM      2  C   UNL     1       5.982   6.820  17.294  0.00  0.00    +0.000 A 
ATOM      3  C   UNL     1       6.779   7.969  17.298  0.00  0.00    +0.000 A 
ATOM      4  C   UNL     1       7.920   8.058  18.099  0.00  0.00    +0.000 A 
ATOM      5  C   UNL     1       8.270   6.955  18.885  0.00  0.00    +0.000 A 
ATOM      6  C   UNL     1       7.472   5.804  18.897  0.00  0.00    +0.000 A 
ENDROOT
BRANCH   1  11
ATOM      7  O   UNL     1       3.338   1.150  18.418  0.00  0.00    +0.000 OA
ATOM      8  C   UNL     1       3.989   2.191  18.361  0.00  0.00    +0.000 C 
ATOM      9  C   UNL     1       4.514   2.903  19.587  0.00  0.00    +0.000 C 
ATOM     10  O   UNL     1       5.352   4.033  19.391  0.00  0.00    +0.000 OA
ATOM     11  C   UNL     1       5.499   4.490  18.127  0.00  0.00    +0.000 C 
ATOM     12  N   UNL     1       5.006   3.948  17.057  0.00  0.00    +0.000 NA
ATOM     13  N   UNL     1       4.278   2.811  17.179  0.00  0.00    +0.000 N 
ATOM     14  H   UNL     1       3.935   2.388  16.322  0.00  0.00    +0.000 HD
ENDBRANCH   1  11
BRANCH   4  15
ATOM     15  N   UNL     1       8.667   9.241  18.013  0.00  0.00    +0.000 NA
ATOM     16  C   UNL     1       9.207   9.756  19.069  0.00  0.00    +0.000 C 
BRANCH  16  17
ATOM     17  C   UNL     1       9.955  11.028  19.002  0.00  0.00    +0.000 A 
ATOM     18  C   UNL     1      10.351  11.556  17.769  0.00  0.00    +0.000 A 
ATOM     19  C   UNL     1      11.041  12.768  17.722  0.00  0.00    +0.000 A 
ATOM     20  C   UNL     1      11.337  13.446  18.904  0.00  0.00    +0.000 A 
ATOM     21  C   UNL     1      10.941  12.921  20.135  0.00  0.00    +0.000 A 
ATOM     22  C   UNL     1      10.246  11.710  20.186  0.00  0.00    +0.000 A 
ENDBRANCH  16  17
ENDBRANCH   4  15
TORSDOF 3
ENDMDL
MODEL 8
REMARK VINA RESULT:      -7.6      1.011      1.518
REMARK  Name = 
REMARK  3 active torsions:
REMARK  status: ('A' for Active; 'I' for Inactive)
REMARK    1  A    between atoms: C_5  and  C_6
REMARK    2  A    between atoms: C_9  and  N_10
REMARK    3  A    between atoms: C_11  and  C_12
REMARK                            x       y       z     vdW  Elec       q    Type
REMARK                         _______ _______ _______ _____ _____    ______ ____
ROOT
ATOM      1  C   UNL     1       6.127   5.658  18.086  0.00  0.00    +0.000 A 
ATOM      2  C   UNL     1       5.816   6.739  17.254  0.00  0.00    +0.000 A 
ATOM      3  C   UNL     1       6.664   7.850  17.201  0.00  0.00    +0.000 A 
ATOM      4  C   UNL     1       7.829   7.911  17.969  0.00  0.00    +0.000 A 
ATOM      5  C   UNL     1       8.150   6.818  18.780  0.00  0.00    +0.000 A 
ATOM      6  C   UNL     1       7.301   5.705  18.850  0.00  0.00    +0.000 A 
ENDROOT
BRANCH   1  11
ATOM      7  O   UNL     1       2.991   1.203  18.608  0.00  0.00    +0.000 OA
ATOM      8  C   UNL     1       3.681   2.215  18.511  0.00  0.00    +0.000 C 
ATOM      9  C   UNL     1       4.508   2.763  19.652  0.00  0.00    +0.000 C 
ATOM     10  O   UNL     1       5.355   3.872  19.385  0.00  0.00    +0.000 OA
ATOM     11  C   UNL     1       5.251   4.460  18.173  0.00  0.00    +0.000 C 
ATOM     12  N   UNL     1       4.500   4.063  17.193  0.00  0.00    +0.000 NA
ATOM     13  N   UNL     1       3.743   2.951  17.361  0.00  0.00    +0.000 N 
ATOM     14  H   UNL     1       3.194   2.641  16.566  0.00  0.00    +0.000 HD
ENDBRANCH   1  11
BRANCH   4  15
ATOM     15  N   UNL     1       8.626   9.055  17.825  0.00  0.00    +0.000 NA
ATOM     16  C   UNL     1       8.815   9.854  18.824  0.00  0.00    +0.000 C 
BRANCH  16  17
ATOM     17  C   UNL     1       9.611  11.089  18.676  0.00  0.00    +0.000 A 
ATOM     18  C   UNL     1      10.807  11.252  19.382  0.00  0.00    +0.000 A 
ATOM     19  C   UNL     1      11.557  12.417  19.217  0.00  0.00    +0.000 A 
ATOM     20  C   UNL     1      11.110  13.416  18.353  0.00  0.00    +0.000 A 
ATOM     21  C   UNL     1       9.918  13.254  17.647  0.00  0.00    +0.000 A 
ATOM     22  C   UNL     1       9.166  12.087  17.806  0.00  0.00    +0.000 A 
ENDBRANCH  16  17
ENDBRANCH   4  15
TORSDOF 3
ENDMDL
MODEL 9
REMARK VINA RESULT:      -7.2      1.000      1.452
REMARK  Name = 
REMARK  3 active torsions:
REMARK  status: ('A' for Active; 'I' for Inactive)
REMARK    1  A    between atoms: C_5  and  C_6
REMARK    2  A    between atoms: C_9  and  N_10
REMARK    3  A    between atoms: C_11  and  C_12
REMARK                            x       y       z     vdW  Elec       q    Type
REMARK                         _______ _______ _______ _____ _____    ______ ____
ROOT
ATOM      1  C   UNL     1       5.873   5.882  17.882  0.00  0.00    +0.000 A 
ATOM      2  C   UNL     1       5.796   7.048  17.114  0.00  0.00    +0.000 A 
ATOM      3  C   UNL     1       6.797   8.021  17.212  0.00  0.00    +0.000 A 
ATOM      4  C   UNL     1       7.885   7.857  18.072  0.00  0.00    +0.000 A 
ATOM      5  C   UNL     1       7.972   6.678  18.820  0.00  0.00    +0.000 A 
ATOM      6  C   UNL     1       6.969   5.703  18.738  0.00  0.00    +0.000 A 
ENDROOT
BRANCH   1  11
ATOM      7  O   UNL     1       1.880   2.144  17.682  0.00  0.00    +0.000 OA
ATOM      8  C   UNL     1       2.765   2.996  17.706  0.00  0.00    +0.000 C 
ATOM      9  C   UNL     1       2.490   4.466  17.934  0.00  0.00    +0.000 C 
ATOM     10  O   UNL     1       3.604   5.339  18.057  0.00  0.00    +0.000 OA
ATOM     11  C   UNL     1       4.829   4.826  17.809  0.00  0.00    +0.000 C 
ATOM     12  N   UNL     1       5.099   3.586  17.539  0.00  0.00    +0.000 NA
ATOM     13  N   UNL     1       4.081   2.691  17.506  0.00  0.00    +0.000 N 
ATOM     14  H   UNL     1       4.324   1.721  17.330  0.00  0.00    +0.000 HD
ENDBRANCH   1  11
BRANCH   4  15
ATOM     15  N   UNL     1       8.849   8.875  18.080  0.00  0.00    +0.000 NA
ATOM     16  C   UNL     1       8.889   9.735  19.045  0.00  0.00    +0.000 C 
BRANCH  16  17
ATOM     17  C   UNL     1       9.865  10.843  19.042  0.00  0.00    +0.000 A 
ATOM     18  C   UNL     1      10.332  11.382  20.246  0.00  0.00    +0.000 A 
ATOM     19  C   UNL     1      11.268  12.415  20.226  0.00  0.00    +0.000 A 
ATOM     20  C   UNL     1      11.732  12.912  19.008  0.00  0.00    +0.000 A 
ATOM     21  C   UNL     1      11.268  12.375  17.807  0.00  0.00    +0.000 A 
ATOM     22  C   UNL     1      10.334  11.336  17.822  0.00  0.00    +0.000 A 
ENDBRANCH  16  17
ENDBRANCH   4  15
TORSDOF 3
ENDMDL
