MODEL 1
REMARK VINA RESULT:      -8.0      0.000      0.000
REMARK  Name = 
REMARK  15 active torsions:
REMARK  status: ('A' for Active; 'I' for Inactive)
REMARK    1  A    between atoms: C_1  and  C_2
REMARK    2  A    between atoms: C_2  and  C_18
REMARK    3  A    between atoms: C_3  and  C_4
REMARK    4  A    between atoms: C_4  and  C_5
REMARK    5  A    between atoms: C_5  and  C_6
REMARK    6  A    between atoms: C_6  and  C_7
REMARK    7  A    between atoms: C_10  and  C_11
REMARK    8  A    between atoms: C_11  and  C_12
REMARK    9  A    between atoms: C_11  and  C_13
REMARK   10  A    between atoms: C_13  and  O_15
REMARK   11  A    between atoms: C_18  and  C_19
REMARK   12  A    between atoms: C_19  and  C_20
REMARK   13  A    between atoms: C_22  and  C_23
REMARK   14  A    between atoms: C_27  and  C_28
REMARK   15  A    between atoms: C_27  and  C_29
REMARK                            x       y       z     vdW  Elec       q    Type
REMARK                         _______ _______ _______ _____ _____    ______ ____
ROOT
ATOM      1  C   UNL     1       1.541   9.743  17.739  0.00  0.00    +0.000 C 
ATOM      2  C   UNL     1       1.807   8.706  18.806  0.00  0.00    +0.000 C 
ATOM      3  C   UNL     1       2.622   7.649  18.661  0.00  0.00    +0.000 C 
ENDROOT
BRANCH   3   4
ATOM      4  C   UNL     1       3.302   7.205  17.399  0.00  0.00    +0.000 C 
BRANCH   4   5
ATOM      5  C   UNL     1       4.660   6.536  17.667  0.00  0.00    +0.000 C 
BRANCH   5   6
ATOM      6  C   UNL     1       4.660   5.030  18.057  0.00  0.00    +0.000 C 
ATOM      7  C   UNL     1       6.105   4.522  17.885  0.00  0.00    +0.000 C 
ATOM      8  C   UNL     1       3.655   4.228  17.204  0.00  0.00    +0.000 C 
ATOM      9  C   UNL     1       3.483   2.796  17.716  0.00  0.00    +0.000 C 
ATOM     10  C   UNL     1       3.273   2.768  19.233  0.00  0.00    +0.000 C 
ATOM     11  O   UNL     1       4.391   3.481  19.805  0.00  0.00    +0.000 OA
ATOM     12  O   UNL     1       4.265   4.893  19.437  0.00  0.00    +0.000 OA
BRANCH  10  13
ATOM     13  C   UNL     1       1.930   3.322  19.738  0.00  0.00    +0.000 C 
ATOM     14  C   UNL     1       0.738   2.456  19.319  0.00  0.00    +0.000 C 
BRANCH  13  15
ATOM     15  C   UNL     1       1.979   3.424  21.249  0.00  0.00    +0.000 C 
ATOM     16  O   UNL     1       1.575   2.548  22.010  0.00  0.00    +0.000 OA
BRANCH  15  17
ATOM     17  O   UNL     1       2.484   4.583  21.705  0.00  0.00    +0.000 OA
ATOM     18  H   UNL     1       2.847   5.142  20.980  0.00  0.00    +0.000 HD
ENDBRANCH  15  17
ENDBRANCH  13  15
ENDBRANCH  10  13
ENDBRANCH   5   6
ENDBRANCH   4   5
ENDBRANCH   3   4
BRANCH   2  19
ATOM     19  C   UNL     1       1.009   8.982  20.061  0.00  0.00    +0.000 C 
BRANCH  19  20
ATOM     20  C   UNL     1      -0.254   9.848  20.074  0.00  0.00    +0.000 C 
BRANCH  20  21
ATOM     21  C   UNL     1      -0.232  11.025  21.038  0.00  0.00    +0.000 C 
ATOM     22  O   UNL     1       0.709  11.251  22.062  0.00  0.00    +0.000 OA
ATOM     23  C   UNL     1      -0.482  10.658  22.561  0.00  0.00    +0.000 C 
ATOM     24  C   UNL     1       0.010   9.524  23.438  0.00  0.00    +0.000 C 
ATOM     25  C   UNL     1      -1.734  11.301  23.076  0.00  0.00    +0.000 C 
ATOM     26  C   UNL     1      -2.360  12.486  22.339  0.00  0.00    +0.000 C 
ATOM     27  C   UNL     1      -2.145  12.541  20.825  0.00  0.00    +0.000 C 
ATOM     28  C   UNL     1      -0.657  12.411  20.482  0.00  0.00    +0.000 C 
ATOM     29  C   UNL     1       0.135  13.596  21.118  0.00  0.00    +0.000 C 
ATOM     30  C   UNL     1      -0.410  12.554  18.966  0.00  0.00    +0.000 C 
ENDBRANCH  20  21
ENDBRANCH  19  20
ENDBRANCH   2  19
TORSDOF 9
ENDMDL
MODEL 2
REMARK VINA RESULT:      -7.7      1.831      3.478
REMARK  Name = 
REMARK  15 active torsions:
REMARK  status: ('A' for Active; 'I' for Inactive)
REMARK    1  A    between atoms: C_1  and  C_2
REMARK    2  A    between atoms: C_2  and  C_18
REMARK    3  A    between atoms: C_3  and  C_4
REMARK    4  A    between atoms: C_4  and  C_5
REMARK    5  A    between atoms: C_5  and  C_6
REMARK    6  A    between atoms: C_6  and  C_7
REMARK    7  A    between atoms: C_10  and  C_11
REMARK    8  A    between atoms: C_11  and  C_12
REMARK    9  A    between atoms: C_11  and  C_13
REMARK   10  A    between atoms: C_13  and  O_15
REMARK   11  A    between atoms: C_18  and  C_19
REMARK   12  A    between atoms: C_19  and  C_20
REMARK   13  A    between atoms: C_22  and  C_23
REMARK   14  A    between atoms: C_27  and  C_28
REMARK   15  A    between atoms: C_27  and  C_29
REMARK                            x       y       z     vdW  Elec       q    Type
REMARK                         _______ _______ _______ _____ _____    ______ ____
ROOT
ATOM      1  C   UNL     1       2.487   8.574  17.917  0.00  0.00    +0.000 C 
ATOM      2  C   UNL     1       1.578   8.737  19.114  0.00  0.00    +0.000 C 
ATOM      3  C   UNL     1       1.557   7.918  20.178  0.00  0.00    +0.000 C 
ENDROOT
BRANCH   3   4
ATOM      4  C   UNL     1       2.304   6.625  20.331  0.00  0.00    +0.000 C 
BRANCH   4   5
ATOM      5  C   UNL     1       1.693   5.489  19.495  0.00  0.00    +0.000 C 
BRANCH   5   6
ATOM      6  C   UNL     1       2.668   4.561  18.714  0.00  0.00    +0.000 C 
ATOM      7  C   UNL     1       1.841   3.361  18.214  0.00  0.00    +0.000 C 
ATOM      8  C   UNL     1       3.856   4.124  19.596  0.00  0.00    +0.000 C 
ATOM      9  C   UNL     1       4.931   3.394  18.788  0.00  0.00    +0.000 C 
ATOM     10  C   UNL     1       5.273   4.152  17.503  0.00  0.00    +0.000 C 
ATOM     11  O   UNL     1       4.024   4.342  16.806  0.00  0.00    +0.000 OA
ATOM     12  O   UNL     1       3.207   5.277  17.584  0.00  0.00    +0.000 OA
BRANCH  10  13
ATOM     13  C   UNL     1       6.029   5.480  17.684  0.00  0.00    +0.000 C 
ATOM     14  C   UNL     1       7.327   5.319  18.481  0.00  0.00    +0.000 C 
BRANCH  13  15
ATOM     15  C   UNL     1       6.338   6.057  16.317  0.00  0.00    +0.000 C 
ATOM     16  O   UNL     1       7.426   5.950  15.757  0.00  0.00    +0.000 OA
BRANCH  15  17
ATOM     17  O   UNL     1       5.319   6.736  15.764  0.00  0.00    +0.000 OA
ATOM     18  H   UNL     1       4.451   6.295  15.917  0.00  0.00    +0.000 HD
ENDBRANCH  15  17
ENDBRANCH  13  15
ENDBRANCH  10  13
ENDBRANCH   5   6
ENDBRANCH   4   5
ENDBRANCH   3   4
BRANCH   2  19
ATOM     19  C   UNL     1       0.655   9.923  18.953  0.00  0.00    +0.000 C 
BRANCH  19  20
ATOM     20  C   UNL     1      -0.572  10.154  19.841  0.00  0.00    +0.000 C 
BRANCH  20  21
ATOM     21  C   UNL     1      -0.421  11.235  20.902  0.00  0.00    +0.000 C 
ATOM     22  O   UNL     1       0.635  11.357  21.828  0.00  0.00    +0.000 OA
ATOM     23  C   UNL     1      -0.501  10.726  22.403  0.00  0.00    +0.000 C 
ATOM     24  C   UNL     1       0.068   9.512  23.108  0.00  0.00    +0.000 C 
ATOM     25  C   UNL     1      -1.675  11.325  23.117  0.00  0.00    +0.000 C 
ATOM     26  C   UNL     1      -2.361  12.578  22.570  0.00  0.00    +0.000 C 
ATOM     27  C   UNL     1      -2.320  12.776  21.053  0.00  0.00    +0.000 C 
ATOM     28  C   UNL     1      -0.883  12.670  20.530  0.00  0.00    +0.000 C 
ATOM     29  C   UNL     1      -0.003  13.784  21.179  0.00  0.00    +0.000 C 
ATOM     30  C   UNL     1      -0.808  12.954  19.017  0.00  0.00    +0.000 C 
ENDBRANCH  20  21
ENDBRANCH  19  20
ENDBRANCH   2  19
TORSDOF 9
ENDMDL
MODEL 3
REMARK VINA RESULT:      -7.7      6.418      7.801
REMARK  Name = 
REMARK  15 active torsions:
REMARK  status: ('A' for Active; 'I' for Inactive)
REMARK    1  A    between atoms: C_1  and  C_2
REMARK    2  A    between atoms: C_2  and  C_18
REMARK    3  A    between atoms: C_3  and  C_4
REMARK    4  A    between atoms: C_4  and  C_5
REMARK    5  A    between atoms: C_5  and  C_6
REMARK    6  A    between atoms: C_6  and  C_7
REMARK    7  A    between atoms: C_10  and  C_11
REMARK    8  A    between atoms: C_11  and  C_12
REMARK    9  A    between atoms: C_11  and  C_13
REMARK   10  A    between atoms: C_13  and  O_15
REMARK   11  A    between atoms: C_18  and  C_19
REMARK   12  A    between atoms: C_19  and  C_20
REMARK   13  A    between atoms: C_22  and  C_23
REMARK   14  A    between atoms: C_27  and  C_28
REMARK   15  A    between atoms: C_27  and  C_29
REMARK                            x       y       z     vdW  Elec       q    Type
REMARK                         _______ _______ _______ _____ _____    ______ ____
ROOT
ATOM      1  C   UNL     1       8.998   9.851  19.999  0.00  0.00    +0.000 C 
ATOM      2  C   UNL     1       8.855   9.994  18.501  0.00  0.00    +0.000 C 
ATOM      3  C   UNL     1       8.308   9.071  17.692  0.00  0.00    +0.000 C 
ENDROOT
BRANCH   3   4
ATOM      4  C   UNL     1       7.873   7.687  18.072  0.00  0.00    +0.000 C 
BRANCH   4   5
ATOM      5  C   UNL     1       6.654   7.210  17.266  0.00  0.00    +0.000 C 
BRANCH   5   6
ATOM      6  C   UNL     1       6.191   5.737  17.459  0.00  0.00    +0.000 C 
ATOM      7  C   UNL     1       7.464   4.870  17.510  0.00  0.00    +0.000 C 
ATOM      8  C   UNL     1       5.230   5.298  16.334  0.00  0.00    +0.000 C 
ATOM      9  C   UNL     1       4.596   3.935  16.622  0.00  0.00    +0.000 C 
ATOM     10  C   UNL     1       4.057   3.863  18.054  0.00  0.00    +0.000 C 
ATOM     11  O   UNL     1       5.163   4.205  18.916  0.00  0.00    +0.000 OA
ATOM     12  O   UNL     1       5.480   5.620  18.709  0.00  0.00    +0.000 OA
BRANCH  10  13
ATOM     13  C   UNL     1       2.818   4.724  18.352  0.00  0.00    +0.000 C 
ATOM     14  C   UNL     1       1.559   4.217  17.643  0.00  0.00    +0.000 C 
BRANCH  13  15
ATOM     15  C   UNL     1       2.586   4.745  19.850  0.00  0.00    +0.000 C 
ATOM     16  O   UNL     1       2.000   3.860  20.467  0.00  0.00    +0.000 OA
BRANCH  15  17
ATOM     17  O   UNL     1       3.054   5.846  20.462  0.00  0.00    +0.000 OA
ATOM     18  H   UNL     1       2.815   5.872  21.417  0.00  0.00    +0.000 HD
ENDBRANCH  15  17
ENDBRANCH  13  15
ENDBRANCH  10  13
ENDBRANCH   5   6
ENDBRANCH   4   5
ENDBRANCH   3   4
BRANCH   2  19
ATOM     19  C   UNL     1       9.441  11.297  18.008  0.00  0.00    +0.000 C 
BRANCH  19  20
ATOM     20  C   UNL     1      10.771  11.861  18.517  0.00  0.00    +0.000 C 
BRANCH  20  21
ATOM     21  C   UNL     1      10.725  13.295  19.023  0.00  0.00    +0.000 C 
ATOM     22  O   UNL     1      11.255  13.771  20.239  0.00  0.00    +0.000 OA
ATOM     23  C   UNL     1       9.860  13.523  20.334  0.00  0.00    +0.000 C 
ATOM     24  C   UNL     1       9.713  12.732  21.618  0.00  0.00    +0.000 C 
ATOM     25  C   UNL     1       8.700  14.434  20.068  0.00  0.00    +0.000 C 
ATOM     26  C   UNL     1       8.688  15.338  18.834  0.00  0.00    +0.000 C 
ATOM     27  C   UNL     1       9.443  14.827  17.604  0.00  0.00    +0.000 C 
ATOM     28  C   UNL     1      10.876  14.429  17.973  0.00  0.00    +0.000 C 
ATOM     29  C   UNL     1      11.645  15.673  18.520  0.00  0.00    +0.000 C 
ATOM     30  C   UNL     1      11.682  13.995  16.732  0.00  0.00    +0.000 C 
ENDBRANCH  20  21
ENDBRANCH  19  20
ENDBRANCH   2  19
TORSDOF 9
ENDMDL
MODEL 4
REMARK VINA RESULT:      -7.6      6.254      7.762
REMARK  Name = 
REMARK  15 active torsions:
REMARK  status: ('A' for Active; 'I' for Inactive)
REMARK    1  A    between atoms: C_1  and  C_2
REMARK    2  A    between atoms: C_2  and  C_18
REMARK    3  A    between atoms: C_3  and  C_4
REMARK    4  A    between atoms: C_4  and  C_5
REMARK    5  A    between atoms: C_5  and  C_6
REMARK    6  A    between atoms: C_6  and  C_7
REMARK    7  A    between atoms: C_10  and  C_11
REMARK    8  A    between atoms: C_11  and  C_12
REMARK    9  A    between atoms: C_11  and  C_13
REMARK   10  A    between atoms: C_13  and  O_15
REMARK   11  A    between atoms: C_18  and  C_19
REMARK   12  A    between atoms: C_19  and  C_20
REMARK   13  A    between atoms: C_22  and  C_23
REMARK   14  A    between atoms: C_27  and  C_28
REMARK   15  A    between atoms: C_27  and  C_29
REMARK                            x       y       z     vdW  Elec       q    Type
REMARK                         _______ _______ _______ _____ _____    ______ ____
ROOT
ATOM      1  C   UNL     1       9.293   9.710  19.376  0.00  0.00    +0.000 C 
ATOM      2  C   UNL     1       8.428  10.008  18.173  0.00  0.00    +0.000 C 
ATOM      3  C   UNL     1       7.702   9.096  17.506  0.00  0.00    +0.000 C 
ENDROOT
BRANCH   3   4
ATOM      4  C   UNL     1       7.712   7.611  17.716  0.00  0.00    +0.000 C 
BRANCH   4   5
ATOM      5  C   UNL     1       6.464   6.926  17.137  0.00  0.00    +0.000 C 
BRANCH   5   6
ATOM      6  C   UNL     1       6.170   5.463  17.581  0.00  0.00    +0.000 C 
ATOM      7  C   UNL     1       7.519   4.719  17.594  0.00  0.00    +0.000 C 
ATOM      8  C   UNL     1       5.141   4.789  16.649  0.00  0.00    +0.000 C 
ATOM      9  C   UNL     1       4.678   3.435  17.192  0.00  0.00    +0.000 C 
ATOM     10  C   UNL     1       4.306   3.527  18.675  0.00  0.00    +0.000 C 
ATOM     11  O   UNL     1       5.460   4.079  19.344  0.00  0.00    +0.000 OA
ATOM     12  O   UNL     1       5.612   5.471  18.911  0.00  0.00    +0.000 OA
BRANCH  10  13
ATOM     13  C   UNL     1       3.029   4.318  19.001  0.00  0.00    +0.000 C 
ATOM     14  C   UNL     1       1.874   4.000  18.047  0.00  0.00    +0.000 C 
BRANCH  13  15
ATOM     15  C   UNL     1       2.612   4.009  20.425  0.00  0.00    +0.000 C 
ATOM     16  O   UNL     1       2.263   4.861  21.239  0.00  0.00    +0.000 OA
BRANCH  15  17
ATOM     17  O   UNL     1       2.681   2.706  20.747  0.00  0.00    +0.000 OA
ATOM     18  H   UNL     1       1.892   2.405  21.253  0.00  0.00    +0.000 HD
ENDBRANCH  15  17
ENDBRANCH  13  15
ENDBRANCH  10  13
ENDBRANCH   5   6
ENDBRANCH   4   5
ENDBRANCH   3   4
BRANCH   2  19
ATOM     19  C   UNL     1       8.506  11.466  17.779  0.00  0.00    +0.000 C 
BRANCH  19  20
ATOM     20  C   UNL     1       9.761  12.320  17.983  0.00  0.00    +0.000 C 
BRANCH  20  21
ATOM     21  C   UNL     1       9.632  13.444  19.001  0.00  0.00    +0.000 C 
ATOM     22  O   UNL     1       8.435  13.922  19.572  0.00  0.00    +0.000 OA
ATOM     23  C   UNL     1       8.865  14.736  18.489  0.00  0.00    +0.000 C 
ATOM     24  C   UNL     1       7.616  14.924  17.651  0.00  0.00    +0.000 C 
ATOM     25  C   UNL     1       9.764  15.934  18.485  0.00  0.00    +0.000 C 
ATOM     26  C   UNL     1      11.057  15.941  19.303  0.00  0.00    +0.000 C 
ATOM     27  C   UNL     1      11.736  14.587  19.520  0.00  0.00    +0.000 C 
ATOM     28  C   UNL     1      10.742  13.563  20.080  0.00  0.00    +0.000 C 
ATOM     29  C   UNL     1      10.205  14.052  21.462  0.00  0.00    +0.000 C 
ATOM     30  C   UNL     1      11.428  12.217  20.389  0.00  0.00    +0.000 C 
ENDBRANCH  20  21
ENDBRANCH  19  20
ENDBRANCH   2  19
TORSDOF 9
ENDMDL
MODEL 5
REMARK VINA RESULT:      -7.4      5.702      9.593
REMARK  Name = 
REMARK  15 active torsions:
REMARK  status: ('A' for Active; 'I' for Inactive)
REMARK    1  A    between atoms: C_1  and  C_2
REMARK    2  A    between atoms: C_2  and  C_18
REMARK    3  A    between atoms: C_3  and  C_4
REMARK    4  A    between atoms: C_4  and  C_5
REMARK    5  A    between atoms: C_5  and  C_6
REMARK    6  A    between atoms: C_6  and  C_7
REMARK    7  A    between atoms: C_10  and  C_11
REMARK    8  A    between atoms: C_11  and  C_12
REMARK    9  A    between atoms: C_11  and  C_13
REMARK   10  A    between atoms: C_13  and  O_15
REMARK   11  A    between atoms: C_18  and  C_19
REMARK   12  A    between atoms: C_19  and  C_20
REMARK   13  A    between atoms: C_22  and  C_23
REMARK   14  A    between atoms: C_27  and  C_28
REMARK   15  A    between atoms: C_27  and  C_29
REMARK                            x       y       z     vdW  Elec       q    Type
REMARK                         _______ _______ _______ _____ _____    ______ ____
ROOT
ATOM      1  C   UNL     1       7.843   6.199  18.874  0.00  0.00    +0.000 C 
ATOM      2  C   UNL     1       7.263   7.087  17.797  0.00  0.00    +0.000 C 
ATOM      3  C   UNL     1       7.609   8.368  17.591  0.00  0.00    +0.000 C 
ENDROOT
BRANCH   3   4
ATOM      4  C   UNL     1       8.506   9.206  18.452  0.00  0.00    +0.000 C 
BRANCH   4   5
ATOM      5  C   UNL     1       9.025  10.455  17.721  0.00  0.00    +0.000 C 
BRANCH   5   6
ATOM      6  C   UNL     1       9.767  11.531  18.566  0.00  0.00    +0.000 C 
ATOM      7  C   UNL     1      10.965  12.013  17.725  0.00  0.00    +0.000 C 
ATOM      8  C   UNL     1      10.204  10.968  19.935  0.00  0.00    +0.000 C 
ATOM      9  C   UNL     1      10.738  12.064  20.861  0.00  0.00    +0.000 C 
ATOM     10  C   UNL     1       9.806  13.278  20.883  0.00  0.00    +0.000 C 
ATOM     11  O   UNL     1       9.641  13.682  19.507  0.00  0.00    +0.000 OA
ATOM     12  O   UNL     1       8.879  12.640  18.816  0.00  0.00    +0.000 OA
BRANCH  10  13
ATOM     13  C   UNL     1       8.450  13.074  21.580  0.00  0.00    +0.000 C 
ATOM     14  C   UNL     1       8.593  12.577  23.021  0.00  0.00    +0.000 C 
BRANCH  13  15
ATOM     15  C   UNL     1       7.691  14.386  21.567  0.00  0.00    +0.000 C 
ATOM     16  O   UNL     1       7.505  15.082  22.562  0.00  0.00    +0.000 OA
BRANCH  15  17
ATOM     17  O   UNL     1       7.199  14.724  20.362  0.00  0.00    +0.000 OA
ATOM     18  H   UNL     1       6.284  14.388  20.226  0.00  0.00    +0.000 HD
ENDBRANCH  15  17
ENDBRANCH  13  15
ENDBRANCH  10  13
ENDBRANCH   5   6
ENDBRANCH   4   5
ENDBRANCH   3   4
BRANCH   2  19
ATOM     19  C   UNL     1       6.206   6.365  16.992  0.00  0.00    +0.000 C 
BRANCH  19  20
ATOM     20  C   UNL     1       4.726   6.760  17.011  0.00  0.00    +0.000 C 
BRANCH  20  21
ATOM     21  C   UNL     1       3.774   5.709  17.563  0.00  0.00    +0.000 C 
ATOM     22  O   UNL     1       2.376   5.830  17.691  0.00  0.00    +0.000 OA
ATOM     23  C   UNL     1       3.042   6.102  18.915  0.00  0.00    +0.000 C 
ATOM     24  C   UNL     1       2.407   7.389  19.403  0.00  0.00    +0.000 C 
ATOM     25  C   UNL     1       3.424   5.175  20.029  0.00  0.00    +0.000 C 
ATOM     26  C   UNL     1       4.048   3.811  19.727  0.00  0.00    +0.000 C 
ATOM     27  C   UNL     1       4.879   3.707  18.446  0.00  0.00    +0.000 C 
ATOM     28  C   UNL     1       4.085   4.222  17.240  0.00  0.00    +0.000 C 
ATOM     29  C   UNL     1       2.801   3.355  17.046  0.00  0.00    +0.000 C 
ATOM     30  C   UNL     1       4.872   4.044  15.926  0.00  0.00    +0.000 C 
ENDBRANCH  20  21
ENDBRANCH  19  20
ENDBRANCH   2  19
TORSDOF 9
ENDMDL
MODEL 6
REMARK VINA RESULT:      -7.4      1.889      9.296
REMARK  Name = 
REMARK  15 active torsions:
REMARK  status: ('A' for Active; 'I' for Inactive)
REMARK    1  A    between atoms: C_1  and  C_2
REMARK    2  A    between atoms: C_2  and  C_18
REMARK    3  A    between atoms: C_3  and  C_4
REMARK    4  A    between atoms: C_4  and  C_5
REMARK    5  A    between atoms: C_5  and  C_6
REMARK    6  A    between atoms: C_6  and  C_7
REMARK    7  A    between atoms: C_10  and  C_11
REMARK    8  A    between atoms: C_11  and  C_12
REMARK    9  A    between atoms: C_11  and  C_13
REMARK   10  A    between atoms: C_13  and  O_15
REMARK   11  A    between atoms: C_18  and  C_19
REMARK   12  A    between atoms: C_19  and  C_20
REMARK   13  A    between atoms: C_22  and  C_23
REMARK   14  A    between atoms: C_27  and  C_28
REMARK   15  A    between atoms: C_27  and  C_29
REMARK                            x       y       z     vdW  Elec       q    Type
REMARK                         _______ _______ _______ _____ _____    ______ ____
ROOT
ATOM      1  C   UNL     1       2.026   8.633  18.780  0.00  0.00    +0.000 C 
ATOM      2  C   UNL     1       1.941   7.500  19.777  0.00  0.00    +0.000 C 
ATOM      3  C   UNL     1       1.524   7.626  21.047  0.00  0.00    +0.000 C 
ENDROOT
BRANCH   3   4
ATOM      4  C   UNL     1       1.205   8.903  21.766  0.00  0.00    +0.000 C 
BRANCH   4   5
ATOM      5  C   UNL     1      -0.144   9.500  21.335  0.00  0.00    +0.000 C 
BRANCH   5   6
ATOM      6  C   UNL     1      -0.267  11.051  21.289  0.00  0.00    +0.000 C 
ATOM      7  C   UNL     1      -1.392  11.441  22.267  0.00  0.00    +0.000 C 
ATOM      8  C   UNL     1      -0.542  11.551  19.855  0.00  0.00    +0.000 C 
ATOM      9  C   UNL     1      -0.450  13.075  19.752  0.00  0.00    +0.000 C 
ATOM     10  C   UNL     1       0.815  13.604  20.433  0.00  0.00    +0.000 C 
ATOM     11  O   UNL     1       0.786  13.094  21.783  0.00  0.00    +0.000 OA
ATOM     12  O   UNL     1       0.974  11.643  21.724  0.00  0.00    +0.000 OA
BRANCH  10  13
ATOM     13  C   UNL     1       2.145  13.278  19.732  0.00  0.00    +0.000 C 
ATOM     14  C   UNL     1       2.139  13.653  18.247  0.00  0.00    +0.000 C 
BRANCH  13  15
ATOM     15  C   UNL     1       3.265  14.015  20.439  0.00  0.00    +0.000 C 
ATOM     16  O   UNL     1       3.902  14.939  19.940  0.00  0.00    +0.000 OA
BRANCH  15  17
ATOM     17  O   UNL     1       3.534  13.552  21.672  0.00  0.00    +0.000 OA
ATOM     18  H   UNL     1       3.575  12.569  21.700  0.00  0.00    +0.000 HD
ENDBRANCH  15  17
ENDBRANCH  13  15
ENDBRANCH  10  13
ENDBRANCH   5   6
ENDBRANCH   4   5
ENDBRANCH   3   4
BRANCH   2  19
ATOM     19  C   UNL     1       2.424   6.197  19.180  0.00  0.00    +0.000 C 
BRANCH  19  20
ATOM     20  C   UNL     1       2.985   5.049  20.023  0.00  0.00    +0.000 C 
BRANCH  20  21
ATOM     21  C   UNL     1       3.763   3.990  19.254  0.00  0.00    +0.000 C 
ATOM     22  O   UNL     1       4.988   3.409  19.639  0.00  0.00    +0.000 OA
ATOM     23  C   UNL     1       5.175   4.458  18.699  0.00  0.00    +0.000 C 
ATOM     24  C   UNL     1       6.288   5.295  19.297  0.00  0.00    +0.000 C 
ATOM     25  C   UNL     1       5.211   4.413  17.202  0.00  0.00    +0.000 C 
ATOM     26  C   UNL     1       4.184   3.588  16.423  0.00  0.00    +0.000 C 
ATOM     27  C   UNL     1       2.808   3.418  17.072  0.00  0.00    +0.000 C 
ATOM     28  C   UNL     1       2.944   2.902  18.508  0.00  0.00    +0.000 C 
ATOM     29  C   UNL     1       3.643   1.506  18.502  0.00  0.00    +0.000 C 
ATOM     30  C   UNL     1       1.567   2.640  19.150  0.00  0.00    +0.000 C 
ENDBRANCH  20  21
ENDBRANCH  19  20
ENDBRANCH   2  19
TORSDOF 9
ENDMDL
MODEL 7
REMARK VINA RESULT:      -7.4      5.925      9.988
REMARK  Name = 
REMARK  15 active torsions:
REMARK  status: ('A' for Active; 'I' for Inactive)
REMARK    1  A    between atoms: C_1  and  C_2
REMARK    2  A    between atoms: C_2  and  C_18
REMARK    3  A    between atoms: C_3  and  C_4
REMARK    4  A    between atoms: C_4  and  C_5
REMARK    5  A    between atoms: C_5  and  C_6
REMARK    6  A    between atoms: C_6  and  C_7
REMARK    7  A    between atoms: C_10  and  C_11
REMARK    8  A    between atoms: C_11  and  C_12
REMARK    9  A    between atoms: C_11  and  C_13
REMARK   10  A    between atoms: C_13  and  O_15
REMARK   11  A    between atoms: C_18  and  C_19
REMARK   12  A    between atoms: C_19  and  C_20
REMARK   13  A    between atoms: C_22  and  C_23
REMARK   14  A    between atoms: C_27  and  C_28
REMARK   15  A    between atoms: C_27  and  C_29
REMARK                            x       y       z     vdW  Elec       q    Type
REMARK                         _______ _______ _______ _____ _____    ______ ____
ROOT
ATOM      1  C   UNL     1       7.895   6.272  18.891  0.00  0.00    +0.000 C 
ATOM      2  C   UNL     1       7.370   7.207  17.825  0.00  0.00    +0.000 C 
ATOM      3  C   UNL     1       7.750   8.486  17.672  0.00  0.00    +0.000 C 
ENDROOT
BRANCH   3   4
ATOM      4  C   UNL     1       8.636   9.275  18.589  0.00  0.00    +0.000 C 
BRANCH   4   5
ATOM      5  C   UNL     1       9.371  10.413  17.862  0.00  0.00    +0.000 C 
BRANCH   5   6
ATOM      6  C   UNL     1       9.860  11.620  18.715  0.00  0.00    +0.000 C 
ATOM      7  C   UNL     1      11.391  11.493  18.835  0.00  0.00    +0.000 C 
ATOM      8  C   UNL     1       9.168  11.650  20.094  0.00  0.00    +0.000 C 
ATOM      9  C   UNL     1       9.470  12.941  20.858  0.00  0.00    +0.000 C 
ATOM     10  C   UNL     1       9.281  14.173  19.967  0.00  0.00    +0.000 C 
ATOM     11  O   UNL     1      10.108  13.956  18.804  0.00  0.00    +0.000 OA
ATOM     12  O   UNL     1       9.531  12.849  18.037  0.00  0.00    +0.000 OA
BRANCH  10  13
ATOM     13  C   UNL     1       7.831  14.507  19.578  0.00  0.00    +0.000 C 
ATOM     14  C   UNL     1       6.960  14.866  20.786  0.00  0.00    +0.000 C 
BRANCH  13  15
ATOM     15  C   UNL     1       7.842  15.663  18.597  0.00  0.00    +0.000 C 
ATOM     16  O   UNL     1       7.685  16.838  18.918  0.00  0.00    +0.000 OA
BRANCH  15  17
ATOM     17  O   UNL     1       8.011  15.293  17.316  0.00  0.00    +0.000 OA
ATOM     18  H   UNL     1       8.694  14.591  17.217  0.00  0.00    +0.000 HD
ENDBRANCH  15  17
ENDBRANCH  13  15
ENDBRANCH  10  13
ENDBRANCH   5   6
ENDBRANCH   4   5
ENDBRANCH   3   4
BRANCH   2  19
ATOM     19  C   UNL     1       6.325   6.535  16.963  0.00  0.00    +0.000 C 
BRANCH  19  20
ATOM     20  C   UNL     1       4.834   6.881  17.036  0.00  0.00    +0.000 C 
BRANCH  20  21
ATOM     21  C   UNL     1       3.927   5.769  17.543  0.00  0.00    +0.000 C 
ATOM     22  O   UNL     1       2.524   5.822  17.661  0.00  0.00    +0.000 OA
ATOM     23  C   UNL     1       3.168   6.082  18.901  0.00  0.00    +0.000 C 
ATOM     24  C   UNL     1       2.471   7.320  19.426  0.00  0.00    +0.000 C 
ATOM     25  C   UNL     1       3.583   5.134  19.985  0.00  0.00    +0.000 C 
ATOM     26  C   UNL     1       4.271   3.812  19.642  0.00  0.00    +0.000 C 
ATOM     27  C   UNL     1       5.116   3.791  18.366  0.00  0.00    +0.000 C 
ATOM     28  C   UNL     1       4.309   4.310  17.171  0.00  0.00    +0.000 C 
ATOM     29  C   UNL     1       3.067   3.393  16.936  0.00  0.00    +0.000 C 
ATOM     30  C   UNL     1       5.112   4.213  15.859  0.00  0.00    +0.000 C 
ENDBRANCH  20  21
ENDBRANCH  19  20
ENDBRANCH   2  19
TORSDOF 9
ENDMDL
MODEL 8
REMARK VINA RESULT:      -7.3      6.228      7.856
REMARK  Name = 
REMARK  15 active torsions:
REMARK  status: ('A' for Active; 'I' for Inactive)
REMARK    1  A    between atoms: C_1  and  C_2
REMARK    2  A    between atoms: C_2  and  C_18
REMARK    3  A    between atoms: C_3  and  C_4
REMARK    4  A    between atoms: C_4  and  C_5
REMARK    5  A    between atoms: C_5  and  C_6
REMARK    6  A    between atoms: C_6  and  C_7
REMARK    7  A    between atoms: C_10  and  C_11
REMARK    8  A    between atoms: C_11  and  C_12
REMARK    9  A    between atoms: C_11  and  C_13
REMARK   10  A    between atoms: C_13  and  O_15
REMARK   11  A    between atoms: C_18  and  C_19
REMARK   12  A    between atoms: C_19  and  C_20
REMARK   13  A    between atoms: C_22  and  C_23
REMARK   14  A    between atoms: C_27  and  C_28
REMARK   15  A    between atoms: C_27  and  C_29
REMARK                            x       y       z     vdW  Elec       q    Type
REMARK                         _______ _______ _______ _____ _____    ______ ____
ROOT
ATOM      1  C   UNL     1       8.169  10.620  17.466  0.00  0.00    +0.000 C 
ATOM      2  C   UNL     1       8.636   9.641  18.519  0.00  0.00    +0.000 C 
ATOM      3  C   UNL     1       8.447   8.313  18.469  0.00  0.00    +0.000 C 
ENDROOT
BRANCH   3   4
ATOM      4  C   UNL     1       7.629   7.559  17.462  0.00  0.00    +0.000 C 
BRANCH   4   5
ATOM      5  C   UNL     1       7.055   6.251  18.030  0.00  0.00    +0.000 C 
BRANCH   5   6
ATOM      6  C   UNL     1       5.699   5.747  17.456  0.00  0.00    +0.000 C 
ATOM      7  C   UNL     1       5.745   5.974  15.932  0.00  0.00    +0.000 C 
ATOM      8  C   UNL     1       4.506   6.468  18.117  0.00  0.00    +0.000 C 
ATOM      9  C   UNL     1       3.167   5.838  17.727  0.00  0.00    +0.000 C 
ATOM     10  C   UNL     1       3.209   4.313  17.862  0.00  0.00    +0.000 C 
ATOM     11  O   UNL     1       4.334   3.871  17.073  0.00  0.00    +0.000 OA
ATOM     12  O   UNL     1       5.559   4.337  17.727  0.00  0.00    +0.000 OA
BRANCH  10  13
ATOM     13  C   UNL     1       3.275   3.765  19.298  0.00  0.00    +0.000 C 
ATOM     14  C   UNL     1       1.940   3.883  20.039  0.00  0.00    +0.000 C 
BRANCH  13  15
ATOM     15  C   UNL     1       3.703   2.312  19.249  0.00  0.00    +0.000 C 
ATOM     16  O   UNL     1       2.973   1.392  18.890  0.00  0.00    +0.000 OA
BRANCH  15  17
ATOM     17  O   UNL     1       4.963   2.097  19.664  0.00  0.00    +0.000 OA
ATOM     18  H   UNL     1       5.015   1.948  20.636  0.00  0.00    +0.000 HD
ENDBRANCH  15  17
ENDBRANCH  13  15
ENDBRANCH  10  13
ENDBRANCH   5   6
ENDBRANCH   4   5
ENDBRANCH   3   4
BRANCH   2  19
ATOM     19  C   UNL     1       9.316  10.347  19.671  0.00  0.00    +0.000 C 
BRANCH  19  20
ATOM     20  C   UNL     1      10.429  11.380  19.477  0.00  0.00    +0.000 C 
BRANCH  20  21
ATOM     21  C   UNL     1       9.968  12.825  19.342  0.00  0.00    +0.000 C 
ATOM     22  O   UNL     1       9.324  13.397  18.227  0.00  0.00    +0.000 OA
ATOM     23  C   UNL     1      10.718  13.674  18.231  0.00  0.00    +0.000 C 
ATOM     24  C   UNL     1      11.161  13.353  16.818  0.00  0.00    +0.000 C 
ATOM     25  C   UNL     1      11.469  14.820  18.838  0.00  0.00    +0.000 C 
ATOM     26  C   UNL     1      11.134  15.309  20.249  0.00  0.00    +0.000 C 
ATOM     27  C   UNL     1      10.590  14.264  21.225  0.00  0.00    +0.000 C 
ATOM     28  C   UNL     1       9.402  13.515  20.613  0.00  0.00    +0.000 C 
ATOM     29  C   UNL     1       8.249  14.521  20.301  0.00  0.00    +0.000 C 
ATOM     30  C   UNL     1       8.782  12.519  21.614  0.00  0.00    +0.000 C 
ENDBRANCH  20  21
ENDBRANCH  19  20
ENDBRANCH   2  19
TORSDOF 9
ENDMDL
MODEL 9
REMARK VINA RESULT:      -7.3      2.322      4.100
REMARK  Name = 
REMARK  15 active torsions:
REMARK  status: ('A' for Active; 'I' for Inactive)
REMARK    1  A    between atoms: C_1  and  C_2
REMARK    2  A    between atoms: C_2  and  C_18
REMARK    3  A    between atoms: C_3  and  C_4
REMARK    4  A    between atoms: C_4  and  C_5
REMARK    5  A    between atoms: C_5  and  C_6
REMARK    6  A    between atoms: C_6  and  C_7
REMARK    7  A    between atoms: C_10  and  C_11
REMARK    8  A    between atoms: C_11  and  C_12
REMARK    9  A    between atoms: C_11  and  C_13
REMARK   10  A    between atoms: C_13  and  O_15
REMARK   11  A    between atoms: C_18  and  C_19
REMARK   12  A    between atoms: C_19  and  C_20
REMARK   13  A    between atoms: C_22  and  C_23
REMARK   14  A    between atoms: C_27  and  C_28
REMARK   15  A    between atoms: C_27  and  C_29
REMARK                            x       y       z     vdW  Elec       q    Type
REMARK                         _______ _______ _______ _____ _____    ______ ____
ROOT
ATOM      1  C   UNL     1       1.350   8.048  20.945  0.00  0.00    +0.000 C 
ATOM      2  C   UNL     1       1.147   9.137  19.916  0.00  0.00    +0.000 C 
ATOM      3  C   UNL     1       1.654   9.121  18.673  0.00  0.00    +0.000 C 
ENDROOT
BRANCH   3   4
ATOM      4  C   UNL     1       2.619   8.121  18.109  0.00  0.00    +0.000 C 
BRANCH   4   5
ATOM      5  C   UNL     1       2.001   6.721  17.967  0.00  0.00    +0.000 C 
BRANCH   5   6
ATOM      6  C   UNL     1       2.957   5.496  18.056  0.00  0.00    +0.000 C 
ATOM      7  C   UNL     1       2.120   4.248  17.714  0.00  0.00    +0.000 C 
ATOM      8  C   UNL     1       3.611   5.394  19.450  0.00  0.00    +0.000 C 
ATOM      9  C   UNL     1       4.713   4.332  19.490  0.00  0.00    +0.000 C 
ATOM     10  C   UNL     1       5.660   4.466  18.294  0.00  0.00    +0.000 C 
ATOM     11  O   UNL     1       4.827   4.424  17.116  0.00  0.00    +0.000 OA
ATOM     12  O   UNL     1       4.016   5.644  17.089  0.00  0.00    +0.000 OA
BRANCH  10  13
ATOM     13  C   UNL     1       6.576   5.701  18.295  0.00  0.00    +0.000 C 
ATOM     14  C   UNL     1       7.576   5.697  19.456  0.00  0.00    +0.000 C 
BRANCH  13  15
ATOM     15  C   UNL     1       7.326   5.756  16.979  0.00  0.00    +0.000 C 
ATOM     16  O   UNL     1       7.625   6.798  16.402  0.00  0.00    +0.000 OA
BRANCH  15  17
ATOM     17  O   UNL     1       7.620   4.550  16.464  0.00  0.00    +0.000 OA
ATOM     18  H   UNL     1       6.897   3.897  16.608  0.00  0.00    +0.000 HD
ENDBRANCH  15  17
ENDBRANCH  13  15
ENDBRANCH  10  13
ENDBRANCH   5   6
ENDBRANCH   4   5
ENDBRANCH   3   4
BRANCH   2  19
ATOM     19  C   UNL     1       0.328  10.280  20.472  0.00  0.00    +0.000 C 
BRANCH  19  20
ATOM     20  C   UNL     1       0.085  11.583  19.706  0.00  0.00    +0.000 C 
BRANCH  20  21
ATOM     21  C   UNL     1       0.772  12.817  20.274  0.00  0.00    +0.000 C 
ATOM     22  O   UNL     1       1.250  12.977  21.590  0.00  0.00    +0.000 OA
ATOM     23  C   UNL     1      -0.029  13.572  21.417  0.00  0.00    +0.000 C 
ATOM     24  C   UNL     1      -0.828  13.080  22.607  0.00  0.00    +0.000 C 
ATOM     25  C   UNL     1      -0.394  14.963  20.996  0.00  0.00    +0.000 C 
ATOM     26  C   UNL     1       0.332  15.640  19.832  0.00  0.00    +0.000 C 
ATOM     27  C   UNL     1       0.870  14.720  18.733  0.00  0.00    +0.000 C 
ATOM     28  C   UNL     1       1.727  13.600  19.333  0.00  0.00    +0.000 C 
ATOM     29  C   UNL     1       2.952  14.217  20.079  0.00  0.00    +0.000 C 
ATOM     30  C   UNL     1       2.351  12.714  18.236  0.00  0.00    +0.000 C 
ENDBRANCH  20  21
ENDBRANCH  19  20
ENDBRANCH   2  19
TORSDOF 9
ENDMDL
