MODEL 1
REMARK VINA RESULT:      -6.0      0.000      0.000
REMARK  Name = 
REMARK  4 active torsions:
REMARK  status: ('A' for Active; 'I' for Inactive)
REMARK    1  A    between atoms: C_1  and  C_2
REMARK    2  A    between atoms: C_11  and  C_12
REMARK    3  A    between atoms: C_11  and  C_13
REMARK    4  A    between atoms: C_15  and  C_16
REMARK                            x       y       z     vdW  Elec       q    Type
REMARK                         _______ _______ _______ _____ _____    ______ ____
ROOT
ATOM      1  C   UNL     1       2.359   7.764  18.676  0.00  0.00    +0.000 C 
ATOM      2  C   UNL     1       3.434   6.913  18.039  0.00  0.00    +0.000 C 
ATOM      3  O   UNL     1       4.343   7.531  17.488  0.00  0.00    +0.000 OA
ATOM      4  N   UNL     1       3.443   5.524  18.134  0.00  0.00    +0.000 N 
ATOM      5  C   UNL     1       2.558   4.718  18.976  0.00  0.00    +0.000 A 
ATOM      6  C   UNL     1       1.317   5.159  19.481  0.00  0.00    +0.000 A 
ATOM      7  C   UNL     1       0.623   4.474  20.483  0.00  0.00    +0.000 A 
ATOM      8  C   UNL     1       1.106   3.276  20.977  0.00  0.00    +0.000 A 
ATOM      9  C   UNL     1       2.251   2.736  20.402  0.00  0.00    +0.000 A 
ATOM     10  C   UNL     1       2.954   3.424  19.386  0.00  0.00    +0.000 A 
ATOM     11  C   UNL     1       4.119   2.732  18.709  0.00  0.00    +0.000 C 
ATOM     12  C   UNL     1       3.722   1.361  18.148  0.00  0.00    +0.000 C 
ATOM     13  C   UNL     1       5.306   2.541  19.664  0.00  0.00    +0.000 C 
ATOM     14  O   UNL     1       4.454   3.470  17.546  0.00  0.00    +0.000 OA
ATOM     15  C   UNL     1       4.739   4.865  17.779  0.00  0.00    +0.000 C 
ENDROOT
BRANCH  15  16
ATOM     16  C   UNL     1       5.774   5.334  16.649  0.00  0.00    +0.000 C 
ATOM     17 CL   UNL     1       5.138   6.194  15.210  0.00  0.00    +0.000 Cl
ATOM     18 CL   UNL     1       7.173   6.234  17.398  0.00  0.00    +0.000 Cl
ATOM     19 CL   UNL     1       6.633   3.853  15.899  0.00  0.00    +0.000 Cl
ENDBRANCH  15  16
TORSDOF 1
ENDMDL
MODEL 2
REMARK VINA RESULT:      -5.8      8.903     10.722
REMARK  Name = 
REMARK  4 active torsions:
REMARK  status: ('A' for Active; 'I' for Inactive)
REMARK    1  A    between atoms: C_1  and  C_2
REMARK    2  A    between atoms: C_11  and  C_12
REMARK    3  A    between atoms: C_11  and  C_13
REMARK    4  A    between atoms: C_15  and  C_16
REMARK                            x       y       z     vdW  Elec       q    Type
REMARK                         _______ _______ _______ _____ _____    ______ ____
ROOT
ATOM      1  C   UNL     1      -6.060  12.263  19.281  0.00  0.00    +0.000 C 
ATOM      2  C   UNL     1      -4.876  12.570  20.169  0.00  0.00    +0.000 C 
ATOM      3  O   UNL     1      -5.150  12.964  21.302  0.00  0.00    +0.000 OA
ATOM      4  N   UNL     1      -3.561  12.348  19.767  0.00  0.00    +0.000 N 
ATOM      5  C   UNL     1      -3.146  11.649  18.550  0.00  0.00    +0.000 A 
ATOM      6  C   UNL     1      -3.962  11.469  17.414  0.00  0.00    +0.000 A 
ATOM      7  C   UNL     1      -3.635  10.583  16.382  0.00  0.00    +0.000 A 
ATOM      8  C   UNL     1      -2.441   9.888  16.407  0.00  0.00    +0.000 A 
ATOM      9  C   UNL     1      -1.544  10.148  17.438  0.00  0.00    +0.000 A 
ATOM     10  C   UNL     1      -1.869  11.045  18.481  0.00  0.00    +0.000 A 
ATOM     11  C   UNL     1      -0.807  11.386  19.506  0.00  0.00    +0.000 C 
ATOM     12  C   UNL     1       0.482  11.891  18.848  0.00  0.00    +0.000 C 
ATOM     13  C   UNL     1      -0.460  10.181  20.394  0.00  0.00    +0.000 C 
ATOM     14  O   UNL     1      -1.253  12.510  20.245  0.00  0.00    +0.000 OA
ATOM     15  C   UNL     1      -2.545  12.350  20.865  0.00  0.00    +0.000 C 
ENDROOT
BRANCH  15  16
ATOM     16  C   UNL     1      -2.558  13.265  22.181  0.00  0.00    +0.000 C 
ATOM     17 CL   UNL     1      -3.128  14.960  22.039  0.00  0.00    +0.000 Cl
ATOM     18 CL   UNL     1      -3.386  12.397  23.555  0.00  0.00    +0.000 Cl
ATOM     19 CL   UNL     1      -0.824  13.467  22.849  0.00  0.00    +0.000 Cl
ENDBRANCH  15  16
TORSDOF 1
ENDMDL
MODEL 3
REMARK VINA RESULT:      -5.8     11.393     12.884
REMARK  Name = 
REMARK  4 active torsions:
REMARK  status: ('A' for Active; 'I' for Inactive)
REMARK    1  A    between atoms: C_1  and  C_2
REMARK    2  A    between atoms: C_11  and  C_12
REMARK    3  A    between atoms: C_11  and  C_13
REMARK    4  A    between atoms: C_15  and  C_16
REMARK                            x       y       z     vdW  Elec       q    Type
REMARK                         _______ _______ _______ _____ _____    ______ ____
ROOT
ATOM      1  C   UNL     1      -1.603  13.577  20.636  0.00  0.00    +0.000 C 
ATOM      2  C   UNL     1      -2.835  13.443  21.503  0.00  0.00    +0.000 C 
ATOM      3  O   UNL     1      -2.817  14.084  22.553  0.00  0.00    +0.000 OA
ATOM      4  N   UNL     1      -3.951  12.709  21.110  0.00  0.00    +0.000 N 
ATOM      5  C   UNL     1      -4.169  12.130  19.784  0.00  0.00    +0.000 A 
ATOM      6  C   UNL     1      -3.145  11.856  18.853  0.00  0.00    +0.000 A 
ATOM      7  C   UNL     1      -3.404  11.551  17.513  0.00  0.00    +0.000 A 
ATOM      8  C   UNL     1      -4.705  11.436  17.059  0.00  0.00    +0.000 A 
ATOM      9  C   UNL     1      -5.741  11.555  17.980  0.00  0.00    +0.000 A 
ATOM     10  C   UNL     1      -5.483  11.861  19.335  0.00  0.00    +0.000 A 
ATOM     11  C   UNL     1      -6.637  11.852  20.316  0.00  0.00    +0.000 C 
ATOM     12  C   UNL     1      -7.409  10.528  20.280  0.00  0.00    +0.000 C 
ATOM     13  C   UNL     1      -7.625  12.998  20.049  0.00  0.00    +0.000 C 
ATOM     14  O   UNL     1      -6.101  11.876  21.628  0.00  0.00    +0.000 OA
ATOM     15  C   UNL     1      -5.200  12.972  21.891  0.00  0.00    +0.000 C 
ENDROOT
BRANCH  15  16
ATOM     16  C   UNL     1      -5.299  13.304  23.456  0.00  0.00    +0.000 C 
ATOM     17 CL   UNL     1      -4.224  12.422  24.588  0.00  0.00    +0.000 Cl
ATOM     18 CL   UNL     1      -5.221  15.106  23.732  0.00  0.00    +0.000 Cl
ATOM     19 CL   UNL     1      -7.005  12.894  24.100  0.00  0.00    +0.000 Cl
ENDBRANCH  15  16
TORSDOF 1
ENDMDL
MODEL 4
REMARK VINA RESULT:      -5.6     10.068     11.771
REMARK  Name = 
REMARK  4 active torsions:
REMARK  status: ('A' for Active; 'I' for Inactive)
REMARK    1  A    between atoms: C_1  and  C_2
REMARK    2  A    between atoms: C_11  and  C_12
REMARK    3  A    between atoms: C_11  and  C_13
REMARK    4  A    between atoms: C_15  and  C_16
REMARK                            x       y       z     vdW  Elec       q    Type
REMARK                         _______ _______ _______ _____ _____    ______ ____
ROOT
ATOM      1  C   UNL     1      -0.342  12.279  19.411  0.00  0.00    +0.000 C 
ATOM      2  C   UNL     1      -1.627  12.566  20.155  0.00  0.00    +0.000 C 
ATOM      3  O   UNL     1      -1.513  13.273  21.156  0.00  0.00    +0.000 OA
ATOM      4  N   UNL     1      -2.869  12.132  19.701  0.00  0.00    +0.000 N 
ATOM      5  C   UNL     1      -3.135  11.513  18.401  0.00  0.00    +0.000 A 
ATOM      6  C   UNL     1      -2.159  10.885  17.600  0.00  0.00    +0.000 A 
ATOM      7  C   UNL     1      -2.386  10.538  16.264  0.00  0.00    +0.000 A 
ATOM      8  C   UNL     1      -3.627  10.741  15.690  0.00  0.00    +0.000 A 
ATOM      9  C   UNL     1      -4.657  11.223  16.489  0.00  0.00    +0.000 A 
ATOM     10  C   UNL     1      -4.432  11.572  17.840  0.00  0.00    +0.000 A 
ATOM     11  C   UNL     1      -5.616  11.970  18.697  0.00  0.00    +0.000 C 
ATOM     12  C   UNL     1      -6.723  10.910  18.672  0.00  0.00    +0.000 C 
ATOM     13  C   UNL     1      -6.219  13.312  18.253  0.00  0.00    +0.000 C 
ATOM     14  O   UNL     1      -5.200  11.969  20.052  0.00  0.00    +0.000 OA
ATOM     15  C   UNL     1      -4.052  12.797  20.331  0.00  0.00    +0.000 C 
ENDROOT
BRANCH  15  16
ATOM     16  C   UNL     1      -4.178  13.288  21.851  0.00  0.00    +0.000 C 
ATOM     17 CL   UNL     1      -3.400  12.306  23.135  0.00  0.00    +0.000 Cl
ATOM     18 CL   UNL     1      -3.723  15.049  21.992  0.00  0.00    +0.000 Cl
ATOM     19 CL   UNL     1      -5.970  13.315  22.379  0.00  0.00    +0.000 Cl
ENDBRANCH  15  16
TORSDOF 1
ENDMDL
MODEL 5
REMARK VINA RESULT:      -5.6     10.035     11.708
REMARK  Name = 
REMARK  4 active torsions:
REMARK  status: ('A' for Active; 'I' for Inactive)
REMARK    1  A    between atoms: C_1  and  C_2
REMARK    2  A    between atoms: C_11  and  C_12
REMARK    3  A    between atoms: C_11  and  C_13
REMARK    4  A    between atoms: C_15  and  C_16
REMARK                            x       y       z     vdW  Elec       q    Type
REMARK                         _______ _______ _______ _____ _____    ______ ____
ROOT
ATOM      1  C   UNL     1      -6.699  10.901  18.509  0.00  0.00    +0.000 C 
ATOM      2  C   UNL     1      -6.013  11.851  19.465  0.00  0.00    +0.000 C 
ATOM      3  O   UNL     1      -6.712  12.276  20.383  0.00  0.00    +0.000 OA
ATOM      4  N   UNL     1      -4.660  12.164  19.367  0.00  0.00    +0.000 N 
ATOM      5  C   UNL     1      -3.694  11.516  18.478  0.00  0.00    +0.000 A 
ATOM      6  C   UNL     1      -4.037  10.797  17.314  0.00  0.00    +0.000 A 
ATOM      7  C   UNL     1      -3.128   9.979  16.635  0.00  0.00    +0.000 A 
ATOM      8  C   UNL     1      -1.812   9.899  17.052  0.00  0.00    +0.000 A 
ATOM      9  C   UNL     1      -1.400  10.706  18.107  0.00  0.00    +0.000 A 
ATOM     10  C   UNL     1      -2.316  11.536  18.793  0.00  0.00    +0.000 A 
ATOM     11  C   UNL     1      -1.788  12.486  19.849  0.00  0.00    +0.000 C 
ATOM     12  C   UNL     1      -0.670  13.382  19.304  0.00  0.00    +0.000 C 
ATOM     13  C   UNL     1      -1.254  11.736  21.079  0.00  0.00    +0.000 C 
ATOM     14  O   UNL     1      -2.816  13.409  20.164  0.00  0.00    +0.000 OA
ATOM     15  C   UNL     1      -4.060  12.808  20.577  0.00  0.00    +0.000 C 
ENDROOT
BRANCH  15  16
ATOM     16  C   UNL     1      -4.781  13.841  21.569  0.00  0.00    +0.000 C 
ATOM     17 CL   UNL     1      -5.897  15.059  20.872  0.00  0.00    +0.000 Cl
ATOM     18 CL   UNL     1      -5.552  12.954  22.964  0.00  0.00    +0.000 Cl
ATOM     19 CL   UNL     1      -3.511  14.896  22.444  0.00  0.00    +0.000 Cl
ENDBRANCH  15  16
TORSDOF 1
ENDMDL
MODEL 6
REMARK VINA RESULT:      -5.5      0.166      1.161
REMARK  Name = 
REMARK  4 active torsions:
REMARK  status: ('A' for Active; 'I' for Inactive)
REMARK    1  A    between atoms: C_1  and  C_2
REMARK    2  A    between atoms: C_11  and  C_12
REMARK    3  A    between atoms: C_11  and  C_13
REMARK    4  A    between atoms: C_15  and  C_16
REMARK                            x       y       z     vdW  Elec       q    Type
REMARK                         _______ _______ _______ _____ _____    ______ ____
ROOT
ATOM      1  C   UNL     1       2.540   7.808  18.508  0.00  0.00    +0.000 C 
ATOM      2  C   UNL     1       3.602   6.904  17.922  0.00  0.00    +0.000 C 
ATOM      3  O   UNL     1       4.546   7.477  17.381  0.00  0.00    +0.000 OA
ATOM      4  N   UNL     1       3.561   5.518  18.053  0.00  0.00    +0.000 N 
ATOM      5  C   UNL     1       2.626   4.765  18.891  0.00  0.00    +0.000 A 
ATOM      6  C   UNL     1       1.388   5.261  19.350  0.00  0.00    +0.000 A 
ATOM      7  C   UNL     1       0.645   4.626  20.351  0.00  0.00    +0.000 A 
ATOM      8  C   UNL     1       1.073   3.427  20.888  0.00  0.00    +0.000 A 
ATOM      9  C   UNL     1       2.214   2.833  20.358  0.00  0.00    +0.000 A 
ATOM     10  C   UNL     1       2.966   3.470  19.345  0.00  0.00    +0.000 A 
ATOM     11  C   UNL     1       4.123   2.721  18.717  0.00  0.00    +0.000 C 
ATOM     12  C   UNL     1       3.695   1.350  18.181  0.00  0.00    +0.000 C 
ATOM     13  C   UNL     1       5.278   2.515  19.709  0.00  0.00    +0.000 C 
ATOM     14  O   UNL     1       4.515   3.417  17.545  0.00  0.00    +0.000 OA
ATOM     15  C   UNL     1       4.841   4.807  17.750  0.00  0.00    +0.000 C 
ENDROOT
BRANCH  15  16
ATOM     16  C   UNL     1       5.922   5.210  16.637  0.00  0.00    +0.000 C 
ATOM     17 CL   UNL     1       7.251   6.322  17.098  0.00  0.00    +0.000 Cl
ATOM     18 CL   UNL     1       6.560   3.721  15.799  0.00  0.00    +0.000 Cl
ATOM     19 CL   UNL     1       5.095   6.116  15.227  0.00  0.00    +0.000 Cl
ENDBRANCH  15  16
TORSDOF 1
ENDMDL
MODEL 7
REMARK VINA RESULT:      -5.4      9.534     11.904
REMARK  Name = 
REMARK  4 active torsions:
REMARK  status: ('A' for Active; 'I' for Inactive)
REMARK    1  A    between atoms: C_1  and  C_2
REMARK    2  A    between atoms: C_11  and  C_12
REMARK    3  A    between atoms: C_11  and  C_13
REMARK    4  A    between atoms: C_15  and  C_16
REMARK                            x       y       z     vdW  Elec       q    Type
REMARK                         _______ _______ _______ _____ _____    ______ ____
ROOT
ATOM      1  C   UNL     1      -0.917  11.707  18.575  0.00  0.00    +0.000 C 
ATOM      2  C   UNL     1      -1.492  11.984  19.946  0.00  0.00    +0.000 C 
ATOM      3  O   UNL     1      -0.670  12.235  20.826  0.00  0.00    +0.000 OA
ATOM      4  N   UNL     1      -2.863  12.034  20.187  0.00  0.00    +0.000 N 
ATOM      5  C   UNL     1      -3.912  12.006  19.167  0.00  0.00    +0.000 A 
ATOM      6  C   UNL     1      -3.740  11.511  17.858  0.00  0.00    +0.000 A 
ATOM      7  C   UNL     1      -4.670  11.733  16.837  0.00  0.00    +0.000 A 
ATOM      8  C   UNL     1      -5.851  12.402  17.100  0.00  0.00    +0.000 A 
ATOM      9  C   UNL     1      -6.123  12.778  18.411  0.00  0.00    +0.000 A 
ATOM     10  C   UNL     1      -5.186  12.553  19.445  0.00  0.00    +0.000 A 
ATOM     11  C   UNL     1      -5.587  12.866  20.872  0.00  0.00    +0.000 C 
ATOM     12  C   UNL     1      -6.890  12.164  21.268  0.00  0.00    +0.000 C 
ATOM     13  C   UNL     1      -5.760  14.376  21.100  0.00  0.00    +0.000 C 
ATOM     14  O   UNL     1      -4.629  12.280  21.738  0.00  0.00    +0.000 OA
ATOM     15  C   UNL     1      -3.265  12.671  21.480  0.00  0.00    +0.000 C 
ENDROOT
BRANCH  15  16
ATOM     16  C   UNL     1      -2.476  12.591  22.873  0.00  0.00    +0.000 C 
ATOM     17 CL   UNL     1      -1.576  11.090  23.262  0.00  0.00    +0.000 Cl
ATOM     18 CL   UNL     1      -1.434  14.071  23.102  0.00  0.00    +0.000 Cl
ATOM     19 CL   UNL     1      -3.669  12.741  24.304  0.00  0.00    +0.000 Cl
ENDBRANCH  15  16
TORSDOF 1
ENDMDL
MODEL 8
REMARK VINA RESULT:      -5.3      7.489      9.669
REMARK  Name = 
REMARK  4 active torsions:
REMARK  status: ('A' for Active; 'I' for Inactive)
REMARK    1  A    between atoms: C_1  and  C_2
REMARK    2  A    between atoms: C_11  and  C_12
REMARK    3  A    between atoms: C_11  and  C_13
REMARK    4  A    between atoms: C_15  and  C_16
REMARK                            x       y       z     vdW  Elec       q    Type
REMARK                         _______ _______ _______ _____ _____    ______ ____
ROOT
ATOM      1  C   UNL     1      -2.177  12.815  22.634  0.00  0.00    +0.000 C 
ATOM      2  C   UNL     1      -1.400  12.072  21.570  0.00  0.00    +0.000 C 
ATOM      3  O   UNL     1      -0.369  11.522  21.953  0.00  0.00    +0.000 OA
ATOM      4  N   UNL     1      -1.856  11.945  20.261  0.00  0.00    +0.000 N 
ATOM      5  C   UNL     1      -3.180  12.337  19.775  0.00  0.00    +0.000 A 
ATOM      6  C   UNL     1      -4.026  13.264  20.420  0.00  0.00    +0.000 A 
ATOM      7  C   UNL     1      -5.373  13.421  20.080  0.00  0.00    +0.000 A 
ATOM      8  C   UNL     1      -5.919  12.707  19.029  0.00  0.00    +0.000 A 
ATOM      9  C   UNL     1      -5.081  11.891  18.276  0.00  0.00    +0.000 A 
ATOM     10  C   UNL     1      -3.718  11.732  18.616  0.00  0.00    +0.000 A 
ATOM     11  C   UNL     1      -2.825  10.934  17.687  0.00  0.00    +0.000 C 
ATOM     12  C   UNL     1      -2.884  11.456  16.247  0.00  0.00    +0.000 C 
ATOM     13  C   UNL     1      -3.193   9.443  17.680  0.00  0.00    +0.000 C 
ATOM     14  O   UNL     1      -1.478  11.171  18.060  0.00  0.00    +0.000 OA
ATOM     15  C   UNL     1      -1.177  10.893  19.443  0.00  0.00    +0.000 C 
ENDROOT
BRANCH  15  16
ATOM     16  C   UNL     1       0.367  10.470  19.518  0.00  0.00    +0.000 C 
ATOM     17 CL   UNL     1       1.602  11.762  19.674  0.00  0.00    +0.000 Cl
ATOM     18 CL   UNL     1       0.612   9.162  20.765  0.00  0.00    +0.000 Cl
ATOM     19 CL   UNL     1       0.879   9.598  17.946  0.00  0.00    +0.000 Cl
ENDBRANCH  15  16
TORSDOF 1
ENDMDL
MODEL 9
REMARK VINA RESULT:      -5.3      8.753     10.628
REMARK  Name = 
REMARK  4 active torsions:
REMARK  status: ('A' for Active; 'I' for Inactive)
REMARK    1  A    between atoms: C_1  and  C_2
REMARK    2  A    between atoms: C_11  and  C_12
REMARK    3  A    between atoms: C_11  and  C_13
REMARK    4  A    between atoms: C_15  and  C_16
REMARK                            x       y       z     vdW  Elec       q    Type
REMARK                         _______ _______ _______ _____ _____    ______ ____
ROOT
ATOM      1  C   UNL     1      -5.898  12.321  19.438  0.00  0.00    +0.000 C 
ATOM      2  C   UNL     1      -4.677  12.595  20.286  0.00  0.00    +0.000 C 
ATOM      3  O   UNL     1      -4.903  12.993  21.428  0.00  0.00    +0.000 OA
ATOM      4  N   UNL     1      -3.383  12.341  19.841  0.00  0.00    +0.000 N 
ATOM      5  C   UNL     1      -3.026  11.633  18.610  0.00  0.00    +0.000 A 
ATOM      6  C   UNL     1      -3.884  11.477  17.501  0.00  0.00    +0.000 A 
ATOM      7  C   UNL     1      -3.614  10.586  16.457  0.00  0.00    +0.000 A 
ATOM      8  C   UNL     1      -2.438   9.861  16.441  0.00  0.00    +0.000 A 
ATOM      9  C   UNL     1      -1.501  10.095  17.442  0.00  0.00    +0.000 A 
ATOM     10  C   UNL     1      -1.768  10.997  18.497  0.00  0.00    +0.000 A 
ATOM     11  C   UNL     1      -0.664  11.309  19.486  0.00  0.00    +0.000 C 
ATOM     12  C   UNL     1       0.615  11.782  18.787  0.00  0.00    +0.000 C 
ATOM     13  C   UNL     1      -0.319  10.093  20.360  0.00  0.00    +0.000 C 
ATOM     14  O   UNL     1      -1.056  12.442  20.242  0.00  0.00    +0.000 OA
ATOM     15  C   UNL     1      -2.331  12.314  20.904  0.00  0.00    +0.000 C 
ENDROOT
BRANCH  15  16
ATOM     16  C   UNL     1      -2.276  13.226  22.221  0.00  0.00    +0.000 C 
ATOM     17 CL   UNL     1      -3.303  12.773  23.620  0.00  0.00    +0.000 Cl
ATOM     18 CL   UNL     1      -0.548  13.511  22.729  0.00  0.00    +0.000 Cl
ATOM     19 CL   UNL     1      -2.849  14.962  21.833  0.00  0.00    +0.000 Cl
ENDBRANCH  15  16
TORSDOF 1
ENDMDL
