MODEL 1
REMARK VINA RESULT:      -6.3      0.000      0.000
REMARK  Name = 
REMARK  11 active torsions:
REMARK  status: ('A' for Active; 'I' for Inactive)
REMARK    1  A    between atoms: C_1  and  C_2
REMARK    2  A    between atoms: C_2  and  N_3
REMARK    3  A    between atoms: N_3  and  C_4
REMARK    4  A    between atoms: N_3  and  C_7
REMARK    5  A    between atoms: C_4  and  C_5
REMARK    6  A    between atoms: C_5  and  O_6
REMARK    7  A    between atoms: C_7  and  C_8
REMARK    8  A    between atoms: C_11  and  C_13
REMARK    9  A    between atoms: C_13  and  C_14
REMARK   10  A    between atoms: C_18  and  C_19
REMARK   11  A    between atoms: C_19  and  O_20
REMARK                            x       y       z     vdW  Elec       q    Type
REMARK                         _______ _______ _______ _____ _____    ______ ____
ROOT
ATOM      1  C   UNL     1       4.505   6.298  17.781  0.00  0.00    +0.000 C 
ATOM      2  C   UNL     1       3.953   4.891  17.541  0.00  0.00    +0.000 C 
ATOM      3  N   UNL     1       3.022   4.687  18.634  0.00  0.00    +0.000 N 
ATOM      4  C   UNL     1       2.696   3.411  19.033  0.00  0.00    +0.000 C 
ATOM      5  O   UNL     1       3.110   2.408  18.459  0.00  0.00    +0.000 OA
ATOM      6  C   UNL     1       2.517   5.952  19.132  0.00  0.00    +0.000 C 
ATOM      7  C   UNL     1       3.290   7.053  18.372  0.00  0.00    +0.000 C 
ENDROOT
BRANCH   4   8
ATOM      8  C   UNL     1       1.866   3.223  20.286  0.00  0.00    +0.000 C 
ATOM      9  C   UNL     1       0.368   3.286  20.084  0.00  0.00    +0.000 C 
ATOM     10  C   UNL     1       2.374   2.473  21.505  0.00  0.00    +0.000 C 
ATOM     11  C   UNL     1       2.399   3.965  21.513  0.00  0.00    +0.000 C 
ENDBRANCH   4   8
BRANCH   1  12
ATOM     12  C   UNL     1       5.194   6.843  16.517  0.00  0.00    +0.000 C 
BRANCH  12  13
ATOM     13  N   UNL     1       6.647   6.574  16.384  0.00  0.00    +0.000 NA
BRANCH  13  15
ATOM     14  C   UNL     1       7.892   8.374  17.651  0.00  0.00    +0.000 C 
ATOM     15  C   UNL     1       7.373   6.937  17.624  0.00  0.00    +0.000 C 
ENDBRANCH  13  15
BRANCH  13  16
ATOM     16  C   UNL     1       6.877   5.132  16.066  0.00  0.00    +0.000 C 
BRANCH  16  17
ATOM     17  C   UNL     1       7.045   4.774  14.577  0.00  0.00    +0.000 C 
BRANCH  17  18
ATOM     18  O   UNL     1       7.989   5.626  13.942  0.00  0.00    +0.000 OA
ATOM     19  H   UNL     1       8.520   6.048  14.653  0.00  0.00    +0.000 HD
ENDBRANCH  17  18
ENDBRANCH  16  17
ENDBRANCH  13  16
ENDBRANCH  12  13
ENDBRANCH   1  12
BRANCH   7  20
ATOM     20  C   UNL     1       2.364   7.758  17.373  0.00  0.00    +0.000 C 
BRANCH  20  21
ATOM     21  O   UNL     1       2.362   9.172  17.517  0.00  0.00    +0.000 OA
ATOM     22  H   UNL     1       3.286   9.477  17.624  0.00  0.00    +0.000 HD
ENDBRANCH  20  21
ENDBRANCH   7  20
TORSDOF 9
ENDMDL
MODEL 2
REMARK VINA RESULT:      -6.3      0.504      1.086
REMARK  Name = 
REMARK  11 active torsions:
REMARK  status: ('A' for Active; 'I' for Inactive)
REMARK    1  A    between atoms: C_1  and  C_2
REMARK    2  A    between atoms: C_2  and  N_3
REMARK    3  A    between atoms: N_3  and  C_4
REMARK    4  A    between atoms: N_3  and  C_7
REMARK    5  A    between atoms: C_4  and  C_5
REMARK    6  A    between atoms: C_5  and  O_6
REMARK    7  A    between atoms: C_7  and  C_8
REMARK    8  A    between atoms: C_11  and  C_13
REMARK    9  A    between atoms: C_13  and  C_14
REMARK   10  A    between atoms: C_18  and  C_19
REMARK   11  A    between atoms: C_19  and  O_20
REMARK                            x       y       z     vdW  Elec       q    Type
REMARK                         _______ _______ _______ _____ _____    ______ ____
ROOT
ATOM      1  C   UNL     1       4.712   6.190  17.689  0.00  0.00    +0.000 C 
ATOM      2  C   UNL     1       4.043   4.850  17.378  0.00  0.00    +0.000 C 
ATOM      3  N   UNL     1       3.149   4.634  18.499  0.00  0.00    +0.000 N 
ATOM      4  C   UNL     1       2.743   3.359  18.822  0.00  0.00    +0.000 C 
ATOM      5  O   UNL     1       3.052   2.375  18.157  0.00  0.00    +0.000 OA
ATOM      6  C   UNL     1       2.766   5.892  19.111  0.00  0.00    +0.000 C 
ATOM      7  C   UNL     1       3.587   6.986  18.393  0.00  0.00    +0.000 C 
ENDROOT
BRANCH   4   8
ATOM      8  C   UNL     1       1.959   3.139  20.098  0.00  0.00    +0.000 C 
ATOM      9  C   UNL     1       2.744   2.541  21.244  0.00  0.00    +0.000 C 
ATOM     10  C   UNL     1       0.715   3.936  20.448  0.00  0.00    +0.000 C 
ATOM     11  C   UNL     1       0.558   2.562  19.887  0.00  0.00    +0.000 C 
ENDBRANCH   4   8
BRANCH   1  12
ATOM     12  C   UNL     1       5.384   6.776  16.435  0.00  0.00    +0.000 C 
BRANCH  12  13
ATOM     13  N   UNL     1       6.863   6.677  16.366  0.00  0.00    +0.000 NA
BRANCH  13  15
ATOM     14  C   UNL     1       8.023   8.465  17.726  0.00  0.00    +0.000 C 
ATOM     15  C   UNL     1       7.483   7.037  17.662  0.00  0.00    +0.000 C 
ENDBRANCH  13  15
BRANCH  13  16
ATOM     16  C   UNL     1       7.269   5.293  15.977  0.00  0.00    +0.000 C 
BRANCH  16  17
ATOM     17  C   UNL     1       6.853   4.824  14.569  0.00  0.00    +0.000 C 
BRANCH  17  18
ATOM     18  O   UNL     1       7.671   5.408  13.565  0.00  0.00    +0.000 OA
ATOM     19  H   UNL     1       8.301   6.009  14.019  0.00  0.00    +0.000 HD
ENDBRANCH  17  18
ENDBRANCH  16  17
ENDBRANCH  13  16
ENDBRANCH  12  13
ENDBRANCH   1  12
BRANCH   7  20
ATOM     20  C   UNL     1       2.675   7.831  17.495  0.00  0.00    +0.000 C 
BRANCH  20  21
ATOM     21  O   UNL     1       1.957   8.828  18.211  0.00  0.00    +0.000 OA
ATOM     22  H   UNL     1       1.491   8.402  18.958  0.00  0.00    +0.000 HD
ENDBRANCH  20  21
ENDBRANCH   7  20
TORSDOF 9
ENDMDL
MODEL 3
REMARK VINA RESULT:      -6.1      2.234      3.331
REMARK  Name = 
REMARK  11 active torsions:
REMARK  status: ('A' for Active; 'I' for Inactive)
REMARK    1  A    between atoms: C_1  and  C_2
REMARK    2  A    between atoms: C_2  and  N_3
REMARK    3  A    between atoms: N_3  and  C_4
REMARK    4  A    between atoms: N_3  and  C_7
REMARK    5  A    between atoms: C_4  and  C_5
REMARK    6  A    between atoms: C_5  and  O_6
REMARK    7  A    between atoms: C_7  and  C_8
REMARK    8  A    between atoms: C_11  and  C_13
REMARK    9  A    between atoms: C_13  and  C_14
REMARK   10  A    between atoms: C_18  and  C_19
REMARK   11  A    between atoms: C_19  and  O_20
REMARK                            x       y       z     vdW  Elec       q    Type
REMARK                         _______ _______ _______ _____ _____    ______ ____
ROOT
ATOM      1  C   UNL     1       5.611   4.673  16.520  0.00  0.00    +0.000 C 
ATOM      2  C   UNL     1       4.269   5.282  16.934  0.00  0.00    +0.000 C 
ATOM      3  N   UNL     1       3.872   4.504  18.091  0.00  0.00    +0.000 N 
ATOM      4  C   UNL     1       2.544   4.425  18.446  0.00  0.00    +0.000 C 
ATOM      5  O   UNL     1       1.662   5.045  17.861  0.00  0.00    +0.000 OA
ATOM      6  C   UNL     1       5.027   3.933  18.759  0.00  0.00    +0.000 C 
ATOM      7  C   UNL     1       6.247   4.277  17.875  0.00  0.00    +0.000 C 
ENDROOT
BRANCH   4   8
ATOM      8  C   UNL     1       2.134   3.467  19.545  0.00  0.00    +0.000 C 
ATOM      9  C   UNL     1       1.984   2.023  19.119  0.00  0.00    +0.000 C 
ATOM     10  C   UNL     1       2.401   3.736  21.015  0.00  0.00    +0.000 C 
ATOM     11  C   UNL     1       1.037   3.999  20.469  0.00  0.00    +0.000 C 
ENDBRANCH   4   8
BRANCH   1  12
ATOM     12  C   UNL     1       6.374   5.613  15.571  0.00  0.00    +0.000 C 
BRANCH  12  13
ATOM     13  N   UNL     1       6.500   5.175  14.159  0.00  0.00    +0.000 NA
BRANCH  13  15
ATOM     14  C   UNL     1       8.185   5.820  12.388  0.00  0.00    +0.000 C 
ATOM     15  C   UNL     1       7.919   5.147  13.734  0.00  0.00    +0.000 C 
ENDBRANCH  13  15
BRANCH  13  16
ATOM     16  C   UNL     1       5.891   3.822  13.984  0.00  0.00    +0.000 C 
BRANCH  16  17
ATOM     17  C   UNL     1       5.540   3.407  12.543  0.00  0.00    +0.000 C 
BRANCH  17  18
ATOM     18  O   UNL     1       6.421   2.401  12.063  0.00  0.00    +0.000 OA
ATOM     19  H   UNL     1       7.247   2.852  11.781  0.00  0.00    +0.000 HD
ENDBRANCH  17  18
ENDBRANCH  16  17
ENDBRANCH  13  16
ENDBRANCH  12  13
ENDBRANCH   1  12
BRANCH   7  20
ATOM     20  C   UNL     1       7.118   5.335  18.563  0.00  0.00    +0.000 C 
BRANCH  20  21
ATOM     21  O   UNL     1       6.913   5.398  19.968  0.00  0.00    +0.000 OA
ATOM     22  H   UNL     1       5.951   5.361  20.146  0.00  0.00    +0.000 HD
ENDBRANCH  20  21
ENDBRANCH   7  20
TORSDOF 9
ENDMDL
MODEL 4
REMARK VINA RESULT:      -6.0      2.279      3.388
REMARK  Name = 
REMARK  11 active torsions:
REMARK  status: ('A' for Active; 'I' for Inactive)
REMARK    1  A    between atoms: C_1  and  C_2
REMARK    2  A    between atoms: C_2  and  N_3
REMARK    3  A    between atoms: N_3  and  C_4
REMARK    4  A    between atoms: N_3  and  C_7
REMARK    5  A    between atoms: C_4  and  C_5
REMARK    6  A    between atoms: C_5  and  O_6
REMARK    7  A    between atoms: C_7  and  C_8
REMARK    8  A    between atoms: C_11  and  C_13
REMARK    9  A    between atoms: C_13  and  C_14
REMARK   10  A    between atoms: C_18  and  C_19
REMARK   11  A    between atoms: C_19  and  O_20
REMARK                            x       y       z     vdW  Elec       q    Type
REMARK                         _______ _______ _______ _____ _____    ______ ____
ROOT
ATOM      1  C   UNL     1       5.833   4.762  16.984  0.00  0.00    +0.000 C 
ATOM      2  C   UNL     1       4.432   5.365  17.111  0.00  0.00    +0.000 C 
ATOM      3  N   UNL     1       3.884   4.734  18.296  0.00  0.00    +0.000 N 
ATOM      4  C   UNL     1       2.520   4.648  18.463  0.00  0.00    +0.000 C 
ATOM      5  O   UNL     1       1.721   5.146  17.677  0.00  0.00    +0.000 OA
ATOM      6  C   UNL     1       4.938   4.306  19.196  0.00  0.00    +0.000 C 
ATOM      7  C   UNL     1       6.268   4.579  18.458  0.00  0.00    +0.000 C 
ENDROOT
BRANCH   4   8
ATOM      8  C   UNL     1       1.971   3.830  19.613  0.00  0.00    +0.000 C 
ATOM      9  C   UNL     1       2.221   4.403  20.991  0.00  0.00    +0.000 C 
ATOM     10  C   UNL     1       0.804   2.871  19.459  0.00  0.00    +0.000 C 
ATOM     11  C   UNL     1       2.191   2.322  19.477  0.00  0.00    +0.000 C 
ENDBRANCH   4   8
BRANCH   1  12
ATOM     12  C   UNL     1       6.708   5.598  16.034  0.00  0.00    +0.000 C 
BRANCH  12  13
ATOM     13  N   UNL     1       6.643   5.253  14.593  0.00  0.00    +0.000 NA
BRANCH  13  15
ATOM     14  C   UNL     1       7.908   5.542  12.423  0.00  0.00    +0.000 C 
ATOM     15  C   UNL     1       7.965   5.415  13.945  0.00  0.00    +0.000 C 
ENDBRANCH  13  15
BRANCH  13  16
ATOM     16  C   UNL     1       6.163   3.848  14.421  0.00  0.00    +0.000 C 
BRANCH  16  17
ATOM     17  C   UNL     1       5.386   3.539  13.127  0.00  0.00    +0.000 C 
BRANCH  17  18
ATOM     18  O   UNL     1       6.047   2.551  12.349  0.00  0.00    +0.000 OA
ATOM     19  H   UNL     1       5.924   1.692  12.809  0.00  0.00    +0.000 HD
ENDBRANCH  17  18
ENDBRANCH  16  17
ENDBRANCH  13  16
ENDBRANCH  12  13
ENDBRANCH   1  12
BRANCH   7  20
ATOM     20  C   UNL     1       7.005   5.755  19.111  0.00  0.00    +0.000 C 
BRANCH  20  21
ATOM     21  O   UNL     1       7.828   5.360  20.201  0.00  0.00    +0.000 OA
ATOM     22  H   UNL     1       8.754   5.303  19.889  0.00  0.00    +0.000 HD
ENDBRANCH  20  21
ENDBRANCH   7  20
TORSDOF 9
ENDMDL
MODEL 5
REMARK VINA RESULT:      -6.0      1.864      2.936
REMARK  Name = 
REMARK  11 active torsions:
REMARK  status: ('A' for Active; 'I' for Inactive)
REMARK    1  A    between atoms: C_1  and  C_2
REMARK    2  A    between atoms: C_2  and  N_3
REMARK    3  A    between atoms: N_3  and  C_4
REMARK    4  A    between atoms: N_3  and  C_7
REMARK    5  A    between atoms: C_4  and  C_5
REMARK    6  A    between atoms: C_5  and  O_6
REMARK    7  A    between atoms: C_7  and  C_8
REMARK    8  A    between atoms: C_11  and  C_13
REMARK    9  A    between atoms: C_13  and  C_14
REMARK   10  A    between atoms: C_18  and  C_19
REMARK   11  A    between atoms: C_19  and  O_20
REMARK                            x       y       z     vdW  Elec       q    Type
REMARK                         _______ _______ _______ _____ _____    ______ ____
ROOT
ATOM      1  C   UNL     1       4.712   4.192  16.396  0.00  0.00    +0.000 C 
ATOM      2  C   UNL     1       3.225   3.946  16.660  0.00  0.00    +0.000 C 
ATOM      3  N   UNL     1       3.074   4.193  18.081  0.00  0.00    +0.000 N 
ATOM      4  C   UNL     1       2.025   3.628  18.772  0.00  0.00    +0.000 C 
ATOM      5  O   UNL     1       1.152   2.962  18.225  0.00  0.00    +0.000 OA
ATOM      6  C   UNL     1       4.100   5.095  18.566  0.00  0.00    +0.000 C 
ATOM      7  C   UNL     1       5.054   5.341  17.376  0.00  0.00    +0.000 C 
ENDROOT
BRANCH   4   8
ATOM      8  C   UNL     1       1.989   3.750  20.280  0.00  0.00    +0.000 C 
ATOM      9  C   UNL     1       1.950   5.166  20.813  0.00  0.00    +0.000 C 
ATOM     10  C   UNL     1       1.458   2.652  21.184  0.00  0.00    +0.000 C 
ATOM     11  C   UNL     1       2.933   2.796  21.014  0.00  0.00    +0.000 C 
ENDBRANCH   4   8
BRANCH   1  12
ATOM     12  C   UNL     1       4.983   4.373  14.893  0.00  0.00    +0.000 C 
BRANCH  12  13
ATOM     13  N   UNL     1       6.272   3.846  14.381  0.00  0.00    +0.000 NA
BRANCH  13  15
ATOM     14  C   UNL     1       4.720   3.444  12.427  0.00  0.00    +0.000 C 
ATOM     15  C   UNL     1       6.145   3.396  12.976  0.00  0.00    +0.000 C 
ENDBRANCH  13  15
BRANCH  13  16
ATOM     16  C   UNL     1       7.333   4.894  14.485  0.00  0.00    +0.000 C 
BRANCH  16  17
ATOM     17  C   UNL     1       7.968   5.363  13.162  0.00  0.00    +0.000 C 
BRANCH  17  18
ATOM     18  O   UNL     1       9.149   6.118  13.392  0.00  0.00    +0.000 OA
ATOM     19  H   UNL     1       9.083   6.486  14.300  0.00  0.00    +0.000 HD
ENDBRANCH  17  18
ENDBRANCH  16  17
ENDBRANCH  13  16
ENDBRANCH  12  13
ENDBRANCH   1  12
BRANCH   7  20
ATOM     20  C   UNL     1       4.886   6.770  16.847  0.00  0.00    +0.000 C 
BRANCH  20  21
ATOM     21  O   UNL     1       3.796   7.461  17.445  0.00  0.00    +0.000 OA
ATOM     22  H   UNL     1       2.965   7.012  17.191  0.00  0.00    +0.000 HD
ENDBRANCH  20  21
ENDBRANCH   7  20
TORSDOF 9
ENDMDL
MODEL 6
REMARK VINA RESULT:      -6.0      1.921      6.173
REMARK  Name = 
REMARK  11 active torsions:
REMARK  status: ('A' for Active; 'I' for Inactive)
REMARK    1  A    between atoms: C_1  and  C_2
REMARK    2  A    between atoms: C_2  and  N_3
REMARK    3  A    between atoms: N_3  and  C_4
REMARK    4  A    between atoms: N_3  and  C_7
REMARK    5  A    between atoms: C_4  and  C_5
REMARK    6  A    between atoms: C_5  and  O_6
REMARK    7  A    between atoms: C_7  and  C_8
REMARK    8  A    between atoms: C_11  and  C_13
REMARK    9  A    between atoms: C_13  and  C_14
REMARK   10  A    between atoms: C_18  and  C_19
REMARK   11  A    between atoms: C_19  and  O_20
REMARK                            x       y       z     vdW  Elec       q    Type
REMARK                         _______ _______ _______ _____ _____    ______ ____
ROOT
ATOM      1  C   UNL     1       2.625   5.259  19.021  0.00  0.00    +0.000 C 
ATOM      2  C   UNL     1       4.076   5.179  19.502  0.00  0.00    +0.000 C 
ATOM      3  N   UNL     1       4.834   5.807  18.438  0.00  0.00    +0.000 N 
ATOM      4  C   UNL     1       6.169   5.510  18.275  0.00  0.00    +0.000 C 
ATOM      5  O   UNL     1       6.784   4.773  19.038  0.00  0.00    +0.000 OA
ATOM      6  C   UNL     1       4.015   6.747  17.697  0.00  0.00    +0.000 C 
ATOM      7  C   UNL     1       2.584   6.608  18.262  0.00  0.00    +0.000 C 
ENDROOT
BRANCH   4   8
ATOM      8  C   UNL     1       6.894   6.036  17.054  0.00  0.00    +0.000 C 
ATOM      9  C   UNL     1       7.532   7.398  17.219  0.00  0.00    +0.000 C 
ATOM     10  C   UNL     1       7.459   5.129  15.976  0.00  0.00    +0.000 C 
ATOM     11  C   UNL     1       6.154   5.810  15.734  0.00  0.00    +0.000 C 
ENDBRANCH   4   8
BRANCH   1  12
ATOM     12  C   UNL     1       1.645   5.012  20.181  0.00  0.00    +0.000 C 
BRANCH  12  13
ATOM     13  N   UNL     1       0.746   3.838  20.054  0.00  0.00    +0.000 NA
BRANCH  13  15
ATOM     14  C   UNL     1       1.249   1.738  18.739  0.00  0.00    +0.000 C 
ATOM     15  C   UNL     1       0.867   3.217  18.714  0.00  0.00    +0.000 C 
ENDBRANCH  13  15
BRANCH  13  16
ATOM     16  C   UNL     1       1.062   2.831  21.111  0.00  0.00    +0.000 C 
BRANCH  16  17
ATOM     17  C   UNL     1       2.318   3.098  21.962  0.00  0.00    +0.000 C 
BRANCH  17  18
ATOM     18  O   UNL     1       3.389   2.240  21.591  0.00  0.00    +0.000 OA
ATOM     19  H   UNL     1       3.814   1.934  22.423  0.00  0.00    +0.000 HD
ENDBRANCH  17  18
ENDBRANCH  16  17
ENDBRANCH  13  16
ENDBRANCH  12  13
ENDBRANCH   1  12
BRANCH   7  20
ATOM     20  C   UNL     1       2.214   7.849  19.083  0.00  0.00    +0.000 C 
BRANCH  20  21
ATOM     21  O   UNL     1       2.116   9.029  18.295  0.00  0.00    +0.000 OA
ATOM     22  H   UNL     1       1.231   9.054  17.878  0.00  0.00    +0.000 HD
ENDBRANCH  20  21
ENDBRANCH   7  20
TORSDOF 9
ENDMDL
MODEL 7
REMARK VINA RESULT:      -6.0      2.121      6.164
REMARK  Name = 
REMARK  11 active torsions:
REMARK  status: ('A' for Active; 'I' for Inactive)
REMARK    1  A    between atoms: C_1  and  C_2
REMARK    2  A    between atoms: C_2  and  N_3
REMARK    3  A    between atoms: N_3  and  C_4
REMARK    4  A    between atoms: N_3  and  C_7
REMARK    5  A    between atoms: C_4  and  C_5
REMARK    6  A    between atoms: C_5  and  O_6
REMARK    7  A    between atoms: C_7  and  C_8
REMARK    8  A    between atoms: C_11  and  C_13
REMARK    9  A    between atoms: C_13  and  C_14
REMARK   10  A    between atoms: C_18  and  C_19
REMARK   11  A    between atoms: C_19  and  O_20
REMARK                            x       y       z     vdW  Elec       q    Type
REMARK                         _______ _______ _______ _____ _____    ______ ____
ROOT
ATOM      1  C   UNL     1       2.649   5.066  18.907  0.00  0.00    +0.000 C 
ATOM      2  C   UNL     1       3.959   5.200  19.686  0.00  0.00    +0.000 C 
ATOM      3  N   UNL     1       4.871   5.813  18.740  0.00  0.00    +0.000 N 
ATOM      4  C   UNL     1       6.230   5.659  18.894  0.00  0.00    +0.000 C 
ATOM      5  O   UNL     1       6.729   5.072  19.849  0.00  0.00    +0.000 OA
ATOM      6  C   UNL     1       4.150   6.579  17.742  0.00  0.00    +0.000 C 
ATOM      7  C   UNL     1       2.649   6.326  18.007  0.00  0.00    +0.000 C 
ENDROOT
BRANCH   4   8
ATOM      8  C   UNL     1       7.153   6.153  17.800  0.00  0.00    +0.000 C 
ATOM      9  C   UNL     1       7.665   5.087  16.857  0.00  0.00    +0.000 C 
ATOM     10  C   UNL     1       7.136   7.583  17.291  0.00  0.00    +0.000 C 
ATOM     11  C   UNL     1       8.192   7.176  18.264  0.00  0.00    +0.000 C 
ENDBRANCH   4   8
BRANCH   1  12
ATOM     12  C   UNL     1       1.465   4.814  19.856  0.00  0.00    +0.000 C 
BRANCH  12  13
ATOM     13  N   UNL     1       0.730   3.538  19.677  0.00  0.00    +0.000 NA
BRANCH  13  15
ATOM     14  C   UNL     1       2.182   1.753  18.629  0.00  0.00    +0.000 C 
ATOM     15  C   UNL     1       1.143   2.855  18.429  0.00  0.00    +0.000 C 
ENDBRANCH  13  15
BRANCH  13  16
ATOM     16  C   UNL     1       0.965   2.640  20.848  0.00  0.00    +0.000 C 
BRANCH  16  17
ATOM     17  C   UNL     1       1.950   3.147  21.918  0.00  0.00    +0.000 C 
BRANCH  17  18
ATOM     18  O   UNL     1       3.061   2.272  22.057  0.00  0.00    +0.000 OA
ATOM     19  H   UNL     1       3.760   2.768  22.538  0.00  0.00    +0.000 HD
ENDBRANCH  17  18
ENDBRANCH  16  17
ENDBRANCH  13  16
ENDBRANCH  12  13
ENDBRANCH   1  12
BRANCH   7  20
ATOM     20  C   UNL     1       1.993   7.586  18.585  0.00  0.00    +0.000 C 
BRANCH  20  21
ATOM     21  O   UNL     1       2.631   8.787  18.171  0.00  0.00    +0.000 OA
ATOM     22  H   UNL     1       3.223   9.090  18.889  0.00  0.00    +0.000 HD
ENDBRANCH  20  21
ENDBRANCH   7  20
TORSDOF 9
ENDMDL
MODEL 8
REMARK VINA RESULT:      -5.9      1.846      6.599
REMARK  Name = 
REMARK  11 active torsions:
REMARK  status: ('A' for Active; 'I' for Inactive)
REMARK    1  A    between atoms: C_1  and  C_2
REMARK    2  A    between atoms: C_2  and  N_3
REMARK    3  A    between atoms: N_3  and  C_4
REMARK    4  A    between atoms: N_3  and  C_7
REMARK    5  A    between atoms: C_4  and  C_5
REMARK    6  A    between atoms: C_5  and  O_6
REMARK    7  A    between atoms: C_7  and  C_8
REMARK    8  A    between atoms: C_11  and  C_13
REMARK    9  A    between atoms: C_13  and  C_14
REMARK   10  A    between atoms: C_18  and  C_19
REMARK   11  A    between atoms: C_19  and  O_20
REMARK                            x       y       z     vdW  Elec       q    Type
REMARK                         _______ _______ _______ _____ _____    ______ ____
ROOT
ATOM      1  C   UNL     1       3.002   4.447  18.817  0.00  0.00    +0.000 C 
ATOM      2  C   UNL     1       3.271   5.370  17.627  0.00  0.00    +0.000 C 
ATOM      3  N   UNL     1       4.705   5.285  17.433  0.00  0.00    +0.000 N 
ATOM      4  C   UNL     1       5.376   6.305  16.795  0.00  0.00    +0.000 C 
ATOM      5  O   UNL     1       4.804   7.277  16.312  0.00  0.00    +0.000 OA
ATOM      6  C   UNL     1       5.228   4.031  17.938  0.00  0.00    +0.000 C 
ATOM      7  C   UNL     1       4.041   3.316  18.622  0.00  0.00    +0.000 C 
ENDROOT
BRANCH   4   8
ATOM      8  C   UNL     1       6.890   6.281  16.764  0.00  0.00    +0.000 C 
ATOM      9  C   UNL     1       7.500   5.286  15.801  0.00  0.00    +0.000 C 
ATOM     10  C   UNL     1       7.741   7.471  17.168  0.00  0.00    +0.000 C 
ATOM     11  C   UNL     1       7.551   6.355  18.141  0.00  0.00    +0.000 C 
ENDBRANCH   4   8
BRANCH   1  12
ATOM     12  C   UNL     1       1.508   4.093  18.915  0.00  0.00    +0.000 C 
BRANCH  12  13
ATOM     13  N   UNL     1       0.896   4.161  20.265  0.00  0.00    +0.000 NA
BRANCH  13  15
ATOM     14  C   UNL     1       2.200   2.674  21.840  0.00  0.00    +0.000 C 
ATOM     15  C   UNL     1       0.971   2.849  20.950  0.00  0.00    +0.000 C 
ENDBRANCH  13  15
BRANCH  13  16
ATOM     16  C   UNL     1       1.579   5.203  21.089  0.00  0.00    +0.000 C 
BRANCH  16  17
ATOM     17  C   UNL     1       1.166   6.664  20.831  0.00  0.00    +0.000 C 
BRANCH  17  18
ATOM     18  O   UNL     1       2.284   7.464  20.471  0.00  0.00    +0.000 OA
ATOM     19  H   UNL     1       2.519   7.232  19.546  0.00  0.00    +0.000 HD
ENDBRANCH  17  18
ENDBRANCH  16  17
ENDBRANCH  13  16
ENDBRANCH  12  13
ENDBRANCH   1  12
BRANCH   7  20
ATOM     20  C   UNL     1       3.597   2.108  17.787  0.00  0.00    +0.000 C 
BRANCH  20  21
ATOM     21  O   UNL     1       3.212   0.993  18.582  0.00  0.00    +0.000 OA
ATOM     22  H   UNL     1       3.204   1.267  19.521  0.00  0.00    +0.000 HD
ENDBRANCH  20  21
ENDBRANCH   7  20
TORSDOF 9
ENDMDL
MODEL 9
REMARK VINA RESULT:      -5.9      2.199      3.501
REMARK  Name = 
REMARK  11 active torsions:
REMARK  status: ('A' for Active; 'I' for Inactive)
REMARK    1  A    between atoms: C_1  and  C_2
REMARK    2  A    between atoms: C_2  and  N_3
REMARK    3  A    between atoms: N_3  and  C_4
REMARK    4  A    between atoms: N_3  and  C_7
REMARK    5  A    between atoms: C_4  and  C_5
REMARK    6  A    between atoms: C_5  and  O_6
REMARK    7  A    between atoms: C_7  and  C_8
REMARK    8  A    between atoms: C_11  and  C_13
REMARK    9  A    between atoms: C_13  and  C_14
REMARK   10  A    between atoms: C_18  and  C_19
REMARK   11  A    between atoms: C_19  and  O_20
REMARK                            x       y       z     vdW  Elec       q    Type
REMARK                         _______ _______ _______ _____ _____    ______ ____
ROOT
ATOM      1  C   UNL     1       5.519   4.479  16.218  0.00  0.00    +0.000 C 
ATOM      2  C   UNL     1       3.997   4.411  16.363  0.00  0.00    +0.000 C 
ATOM      3  N   UNL     1       3.779   4.411  17.796  0.00  0.00    +0.000 N 
ATOM      4  C   UNL     1       2.617   3.889  18.317  0.00  0.00    +0.000 C 
ATOM      5  O   UNL     1       1.702   3.472  17.614  0.00  0.00    +0.000 OA
ATOM      6  C   UNL     1       4.881   5.048  18.492  0.00  0.00    +0.000 C 
ATOM      7  C   UNL     1       5.943   5.365  17.415  0.00  0.00    +0.000 C 
ENDROOT
BRANCH   4   8
ATOM      8  C   UNL     1       2.489   3.736  19.818  0.00  0.00    +0.000 C 
ATOM      9  C   UNL     1       3.245   2.569  20.415  0.00  0.00    +0.000 C 
ATOM     10  C   UNL     1       2.159   4.896  20.740  0.00  0.00    +0.000 C 
ATOM     11  C   UNL     1       1.073   3.948  20.356  0.00  0.00    +0.000 C 
ENDBRANCH   4   8
BRANCH   1  12
ATOM     12  C   UNL     1       5.920   4.892  14.791  0.00  0.00    +0.000 C 
BRANCH  12  13
ATOM     13  N   UNL     1       6.153   3.794  13.822  0.00  0.00    +0.000 NA
BRANCH  13  15
ATOM     14  C   UNL     1       5.279   2.706  11.713  0.00  0.00    +0.000 C 
ATOM     15  C   UNL     1       5.028   3.678  12.865  0.00  0.00    +0.000 C 
ENDBRANCH  13  15
BRANCH  13  16
ATOM     16  C   UNL     1       7.429   4.025  13.080  0.00  0.00    +0.000 C 
BRANCH  16  17
ATOM     17  C   UNL     1       7.728   5.476  12.661  0.00  0.00    +0.000 C 
BRANCH  17  18
ATOM     18  O   UNL     1       8.911   5.962  13.281  0.00  0.00    +0.000 OA
ATOM     19  H   UNL     1       9.669   5.510  12.849  0.00  0.00    +0.000 HD
ENDBRANCH  17  18
ENDBRANCH  16  17
ENDBRANCH  13  16
ENDBRANCH  12  13
ENDBRANCH   1  12
BRANCH   7  20
ATOM     20  C   UNL     1       6.010   6.876  17.165  0.00  0.00    +0.000 C 
BRANCH  20  21
ATOM     21  O   UNL     1       7.330   7.341  16.912  0.00  0.00    +0.000 OA
ATOM     22  H   UNL     1       7.832   6.629  16.466  0.00  0.00    +0.000 HD
ENDBRANCH  20  21
ENDBRANCH   7  20
TORSDOF 9
ENDMDL
