MODEL 1
REMARK VINA RESULT:      -8.0      0.000      0.000
REMARK  Name = 
REMARK  1 active torsions:
REMARK  status: ('A' for Active; 'I' for Inactive)
REMARK    1  A    between atoms: N_14  and  C_15
REMARK                            x       y       z     vdW  Elec       q    Type
REMARK                         _______ _______ _______ _____ _____    ______ ____
ROOT
ATOM      1  O   UNL     1       1.651   5.327  20.792  0.00  0.00    +0.000 OA
ATOM      2  C   UNL     1       2.229   5.838  19.847  0.00  0.00    +0.000 A 
ATOM      3  C   UNL     1       2.999   5.090  18.863  0.00  0.00    +0.000 A 
ATOM      4  N   UNL     1       3.207   3.763  18.905  0.00  0.00    +0.000 NA
ATOM      5  C   UNL     1       4.028   3.322  17.935  0.00  0.00    +0.000 A 
ATOM      6  C   UNL     1       4.658   4.143  16.985  0.00  0.00    +0.000 A 
ATOM      7  C   UNL     1       5.535   3.594  16.038  0.00  0.00    +0.000 A 
ATOM      8  C   UNL     1       6.185   4.416  15.121  0.00  0.00    +0.000 A 
ATOM      9  C   UNL     1       5.952   5.790  15.130  0.00  0.00    +0.000 A 
ATOM     10  C   UNL     1       5.057   6.353  16.049  0.00  0.00    +0.000 A 
ATOM     11  C   UNL     1       4.398   5.543  16.997  0.00  0.00    +0.000 A 
ATOM     12  C   UNL     1       3.512   6.019  17.970  0.00  0.00    +0.000 A 
ATOM     13  N   UNL     1       3.033   7.337  18.209  0.00  0.00    +0.000 N 
ATOM     14  N   UNL     1       2.307   7.177  19.449  0.00  0.00    +0.000 N 
ATOM     15  H   UNL     1       3.817   7.981  18.320  0.00  0.00    +0.000 HD
ENDROOT
BRANCH  14  16
ATOM     16  C   UNL     1       1.609   8.256  20.045  0.00  0.00    +0.000 A 
ATOM     17  C   UNL     1       1.158   9.325  19.251  0.00  0.00    +0.000 A 
ATOM     18  C   UNL     1       0.566  10.458  19.813  0.00  0.00    +0.000 A 
ATOM     19  C   UNL     1       0.412  10.535  21.189  0.00  0.00    +0.000 A 
ATOM     20 CL   UNL     1      -0.254  11.958  21.891  0.00  0.00    +0.000 Cl
ATOM     21  C   UNL     1       0.807   9.470  21.997  0.00  0.00    +0.000 A 
ATOM     22  C   UNL     1       1.390   8.326  21.427  0.00  0.00    +0.000 A 
ENDBRANCH  14  16
TORSDOF 1
ENDMDL
MODEL 2
REMARK VINA RESULT:      -8.0      0.306      1.091
REMARK  Name = 
REMARK  1 active torsions:
REMARK  status: ('A' for Active; 'I' for Inactive)
REMARK    1  A    between atoms: N_14  and  C_15
REMARK                            x       y       z     vdW  Elec       q    Type
REMARK                         _______ _______ _______ _____ _____    ______ ____
ROOT
ATOM      1  O   UNL     1       1.521   5.313  20.829  0.00  0.00    +0.000 OA
ATOM      2  C   UNL     1       2.126   5.843  19.913  0.00  0.00    +0.000 A 
ATOM      3  C   UNL     1       2.876   5.111  18.901  0.00  0.00    +0.000 A 
ATOM      4  N   UNL     1       3.032   3.777  18.884  0.00  0.00    +0.000 NA
ATOM      5  C   UNL     1       3.844   3.349  17.900  0.00  0.00    +0.000 A 
ATOM      6  C   UNL     1       4.513   4.188  16.994  0.00  0.00    +0.000 A 
ATOM      7  C   UNL     1       5.377   3.649  16.029  0.00  0.00    +0.000 A 
ATOM      8  C   UNL     1       6.067   4.485  15.155  0.00  0.00    +0.000 A 
ATOM      9  C   UNL     1       5.887   5.865  15.226  0.00  0.00    +0.000 A 
ATOM     10  C   UNL     1       5.006   6.421  16.163  0.00  0.00    +0.000 A 
ATOM     11  C   UNL     1       4.308   5.594  17.068  0.00  0.00    +0.000 A 
ATOM     12  C   UNL     1       3.433   6.060  18.056  0.00  0.00    +0.000 A 
ATOM     13  N   UNL     1       3.003   7.383  18.352  0.00  0.00    +0.000 N 
ATOM     14  N   UNL     1       2.260   7.196  19.578  0.00  0.00    +0.000 N 
ATOM     15  H   UNL     1       3.810   7.990  18.498  0.00  0.00    +0.000 HD
ENDROOT
BRANCH  14  16
ATOM     16  C   UNL     1       1.599   8.273  20.218  0.00  0.00    +0.000 A 
ATOM     17  C   UNL     1       1.483   8.291  21.619  0.00  0.00    +0.000 A 
ATOM     18  C   UNL     1       0.744   9.274  22.282  0.00  0.00    +0.000 A 
ATOM     19  C   UNL     1       0.112  10.264  21.544  0.00  0.00    +0.000 A 
ATOM     20 CL   UNL     1      -0.855  11.437  22.350  0.00  0.00    +0.000 Cl
ATOM     21  C   UNL     1       0.250  10.298  20.157  0.00  0.00    +0.000 A 
ATOM     22  C   UNL     1       1.005   9.315  19.495  0.00  0.00    +0.000 A 
ENDBRANCH  14  16
TORSDOF 1
ENDMDL
MODEL 3
REMARK VINA RESULT:      -7.9      3.571      7.515
REMARK  Name = 
REMARK  1 active torsions:
REMARK  status: ('A' for Active; 'I' for Inactive)
REMARK    1  A    between atoms: N_14  and  C_15
REMARK                            x       y       z     vdW  Elec       q    Type
REMARK                         _______ _______ _______ _____ _____    ______ ____
ROOT
ATOM      1  O   UNL     1       2.859   8.275  17.290  0.00  0.00    +0.000 OA
ATOM      2  C   UNL     1       2.294   8.149  18.364  0.00  0.00    +0.000 A 
ATOM      3  C   UNL     1       1.545   9.212  19.019  0.00  0.00    +0.000 A 
ATOM      4  N   UNL     1       1.428  10.465  18.548  0.00  0.00    +0.000 NA
ATOM      5  C   UNL     1       0.763  11.287  19.381  0.00  0.00    +0.000 A 
ATOM      6  C   UNL     1       0.266  10.917  20.642  0.00  0.00    +0.000 A 
ATOM      7  C   UNL     1      -0.376  11.858  21.458  0.00  0.00    +0.000 A 
ATOM      8  C   UNL     1      -0.835  11.498  22.723  0.00  0.00    +0.000 A 
ATOM      9  C   UNL     1      -0.673  10.189  23.175  0.00  0.00    +0.000 A 
ATOM     10  C   UNL     1      -0.060   9.227  22.362  0.00  0.00    +0.000 A 
ATOM     11  C   UNL     1       0.426   9.573  21.083  0.00  0.00    +0.000 A 
ATOM     12  C   UNL     1       1.077   8.689  20.215  0.00  0.00    +0.000 A 
ATOM     13  N   UNL     1       1.350   7.300  20.355  0.00  0.00    +0.000 N 
ATOM     14  N   UNL     1       2.192   7.038  19.209  0.00  0.00    +0.000 N 
ATOM     15  H   UNL     1       1.850   7.126  21.228  0.00  0.00    +0.000 HD
ENDROOT
BRANCH  14  16
ATOM     16  C   UNL     1       2.671   5.737  18.921  0.00  0.00    +0.000 A 
ATOM     17  C   UNL     1       1.974   4.916  18.017  0.00  0.00    +0.000 A 
ATOM     18  C   UNL     1       2.348   3.590  17.791  0.00  0.00    +0.000 A 
ATOM     19  C   UNL     1       3.439   3.065  18.468  0.00  0.00    +0.000 A 
ATOM     20 CL   UNL     1       3.862   1.412  18.244  0.00  0.00    +0.000 Cl
ATOM     21  C   UNL     1       4.178   3.870  19.334  0.00  0.00    +0.000 A 
ATOM     22  C   UNL     1       3.806   5.207  19.550  0.00  0.00    +0.000 A 
ENDBRANCH  14  16
TORSDOF 1
ENDMDL
MODEL 4
REMARK VINA RESULT:      -7.8      2.049      3.389
REMARK  Name = 
REMARK  1 active torsions:
REMARK  status: ('A' for Active; 'I' for Inactive)
REMARK    1  A    between atoms: N_14  and  C_15
REMARK                            x       y       z     vdW  Elec       q    Type
REMARK                         _______ _______ _______ _____ _____    ______ ____
ROOT
ATOM      1  O   UNL     1       2.095   9.275  18.249  0.00  0.00    +0.000 OA
ATOM      2  C   UNL     1       2.052   8.319  19.005  0.00  0.00    +0.000 A 
ATOM      3  C   UNL     1       2.749   7.063  18.769  0.00  0.00    +0.000 A 
ATOM      4  N   UNL     1       3.479   6.790  17.674  0.00  0.00    +0.000 NA
ATOM      5  C   UNL     1       3.947   5.528  17.647  0.00  0.00    +0.000 A 
ATOM      6  C   UNL     1       3.681   4.556  18.626  0.00  0.00    +0.000 A 
ATOM      7  C   UNL     1       4.177   3.252  18.487  0.00  0.00    +0.000 A 
ATOM      8  C   UNL     1       3.882   2.280  19.440  0.00  0.00    +0.000 A 
ATOM      9  C   UNL     1       3.104   2.608  20.549  0.00  0.00    +0.000 A 
ATOM     10  C   UNL     1       2.623   3.912  20.720  0.00  0.00    +0.000 A 
ATOM     11  C   UNL     1       2.897   4.909  19.760  0.00  0.00    +0.000 A 
ATOM     12  C   UNL     1       2.436   6.228  19.831  0.00  0.00    +0.000 A 
ATOM     13  N   UNL     1       1.675   6.882  20.840  0.00  0.00    +0.000 N 
ATOM     14  N   UNL     1       1.388   8.159  20.227  0.00  0.00    +0.000 N 
ATOM     15  H   UNL     1       0.818   6.360  21.026  0.00  0.00    +0.000 HD
ENDROOT
BRANCH  14  16
ATOM     16  C   UNL     1       0.673   9.170  20.915  0.00  0.00    +0.000 A 
ATOM     17  C   UNL     1       0.541   9.108  22.313  0.00  0.00    +0.000 A 
ATOM     18  C   UNL     1      -0.248  10.019  23.017  0.00  0.00    +0.000 A 
ATOM     19  C   UNL     1      -0.917  11.018  22.325  0.00  0.00    +0.000 A 
ATOM     20 CL   UNL     1      -1.944  12.103  23.179  0.00  0.00    +0.000 Cl
ATOM     21  C   UNL     1      -0.765  11.133  20.944  0.00  0.00    +0.000 A 
ATOM     22  C   UNL     1       0.040  10.221  20.241  0.00  0.00    +0.000 A 
ENDBRANCH  14  16
TORSDOF 1
ENDMDL
MODEL 5
REMARK VINA RESULT:      -7.8      4.086      5.431
REMARK  Name = 
REMARK  1 active torsions:
REMARK  status: ('A' for Active; 'I' for Inactive)
REMARK    1  A    between atoms: N_14  and  C_15
REMARK                            x       y       z     vdW  Elec       q    Type
REMARK                         _______ _______ _______ _____ _____    ______ ____
ROOT
ATOM      1  O   UNL     1       6.261   5.844  18.562  0.00  0.00    +0.000 OA
ATOM      2  C   UNL     1       5.829   5.164  17.647  0.00  0.00    +0.000 A 
ATOM      3  C   UNL     1       6.450   5.079  16.332  0.00  0.00    +0.000 A 
ATOM      4  N   UNL     1       7.537   5.774  15.955  0.00  0.00    +0.000 NA
ATOM      5  C   UNL     1       7.863   5.593  14.662  0.00  0.00    +0.000 A 
ATOM      6  C   UNL     1       7.136   4.801  13.758  0.00  0.00    +0.000 A 
ATOM      7  C   UNL     1       7.530   4.710  12.415  0.00  0.00    +0.000 A 
ATOM      8  C   UNL     1       6.787   3.953  11.512  0.00  0.00    +0.000 A 
ATOM      9  C   UNL     1       5.655   3.266  11.947  0.00  0.00    +0.000 A 
ATOM     10  C   UNL     1       5.262   3.321  13.291  0.00  0.00    +0.000 A 
ATOM     11  C   UNL     1       5.991   4.093  14.220  0.00  0.00    +0.000 A 
ATOM     12  C   UNL     1       5.658   4.231  15.572  0.00  0.00    +0.000 A 
ATOM     13  N   UNL     1       4.611   3.632  16.326  0.00  0.00    +0.000 N 
ATOM     14  N   UNL     1       4.713   4.322  17.592  0.00  0.00    +0.000 N 
ATOM     15  H   UNL     1       3.710   3.810  15.879  0.00  0.00    +0.000 HD
ENDROOT
BRANCH  14  16
ATOM     16  C   UNL     1       3.870   3.999  18.683  0.00  0.00    +0.000 A 
ATOM     17  C   UNL     1       4.285   3.051  19.635  0.00  0.00    +0.000 A 
ATOM     18  C   UNL     1       3.441   2.622  20.661  0.00  0.00    +0.000 A 
ATOM     19  C   UNL     1       2.160   3.146  20.753  0.00  0.00    +0.000 A 
ATOM     20 CL   UNL     1       1.093   2.572  21.975  0.00  0.00    +0.000 Cl
ATOM     21  C   UNL     1       1.738   4.124  19.853  0.00  0.00    +0.000 A 
ATOM     22  C   UNL     1       2.595   4.562  18.829  0.00  0.00    +0.000 A 
ENDBRANCH  14  16
TORSDOF 1
ENDMDL
MODEL 6
REMARK VINA RESULT:      -7.7      4.297      5.413
REMARK  Name = 
REMARK  1 active torsions:
REMARK  status: ('A' for Active; 'I' for Inactive)
REMARK    1  A    between atoms: N_14  and  C_15
REMARK                            x       y       z     vdW  Elec       q    Type
REMARK                         _______ _______ _______ _____ _____    ______ ____
ROOT
ATOM      1  O   UNL     1       6.016   5.625  18.845  0.00  0.00    +0.000 OA
ATOM      2  C   UNL     1       5.693   4.958  17.877  0.00  0.00    +0.000 A 
ATOM      3  C   UNL     1       6.379   5.003  16.592  0.00  0.00    +0.000 A 
ATOM      4  N   UNL     1       7.410   5.815  16.306  0.00  0.00    +0.000 NA
ATOM      5  C   UNL     1       7.811   5.735  15.024  0.00  0.00    +0.000 A 
ATOM      6  C   UNL     1       7.206   4.929  14.046  0.00  0.00    +0.000 A 
ATOM      7  C   UNL     1       7.667   4.948  12.722  0.00  0.00    +0.000 A 
ATOM      8  C   UNL     1       7.042   4.174  11.747  0.00  0.00    +0.000 A 
ATOM      9  C   UNL     1       5.963   3.363  12.089  0.00  0.00    +0.000 A 
ATOM     10  C   UNL     1       5.505   3.308  13.412  0.00  0.00    +0.000 A 
ATOM     11  C   UNL     1       6.113   4.093  14.414  0.00  0.00    +0.000 A 
ATOM     12  C   UNL     1       5.707   4.127  15.753  0.00  0.00    +0.000 A 
ATOM     13  N   UNL     1       4.689   3.392  16.422  0.00  0.00    +0.000 N 
ATOM     14  N   UNL     1       4.666   4.019  17.724  0.00  0.00    +0.000 N 
ATOM     15  H   UNL     1       3.797   3.509  15.939  0.00  0.00    +0.000 HD
ENDROOT
BRANCH  14  16
ATOM     16  C   UNL     1       3.809   3.561  18.754  0.00  0.00    +0.000 A 
ATOM     17  C   UNL     1       2.470   3.987  18.795  0.00  0.00    +0.000 A 
ATOM     18  C   UNL     1       1.624   3.650  19.853  0.00  0.00    +0.000 A 
ATOM     19  C   UNL     1       2.110   2.868  20.891  0.00  0.00    +0.000 A 
ATOM     20 CL   UNL     1       1.091   2.506  22.230  0.00  0.00    +0.000 Cl
ATOM     21  C   UNL     1       3.419   2.391  20.853  0.00  0.00    +0.000 A 
ATOM     22  C   UNL     1       4.263   2.722  19.780  0.00  0.00    +0.000 A 
ENDBRANCH  14  16
TORSDOF 1
ENDMDL
MODEL 7
REMARK VINA RESULT:      -7.6      3.545      7.511
REMARK  Name = 
REMARK  1 active torsions:
REMARK  status: ('A' for Active; 'I' for Inactive)
REMARK    1  A    between atoms: N_14  and  C_15
REMARK                            x       y       z     vdW  Elec       q    Type
REMARK                         _______ _______ _______ _____ _____    ______ ____
ROOT
ATOM      1  O   UNL     1       2.956   7.706  17.752  0.00  0.00    +0.000 OA
ATOM      2  C   UNL     1       2.368   7.736  18.820  0.00  0.00    +0.000 A 
ATOM      3  C   UNL     1       1.604   8.880  19.297  0.00  0.00    +0.000 A 
ATOM      4  N   UNL     1       1.497  10.051  18.646  0.00  0.00    +0.000 NA
ATOM      5  C   UNL     1       0.814  10.983  19.335  0.00  0.00    +0.000 A 
ATOM      6  C   UNL     1       0.290  10.799  20.626  0.00  0.00    +0.000 A 
ATOM      7  C   UNL     1      -0.369  11.848  21.282  0.00  0.00    +0.000 A 
ATOM      8  C   UNL     1      -0.856  11.674  22.576  0.00  0.00    +0.000 A 
ATOM      9  C   UNL     1      -0.703  10.446  23.217  0.00  0.00    +0.000 A 
ATOM     10  C   UNL     1      -0.072   9.377  22.567  0.00  0.00    +0.000 A 
ATOM     11  C   UNL     1       0.441   9.534  21.262  0.00  0.00    +0.000 A 
ATOM     12  C   UNL     1       1.110   8.536  20.546  0.00  0.00    +0.000 A 
ATOM     13  N   UNL     1       1.381   7.183  20.893  0.00  0.00    +0.000 N 
ATOM     14  N   UNL     1       2.247   6.760  19.816  0.00  0.00    +0.000 N 
ATOM     15  H   UNL     1       1.862   7.140  21.792  0.00  0.00    +0.000 HD
ENDROOT
BRANCH  14  16
ATOM     16  C   UNL     1       2.733   5.432  19.731  0.00  0.00    +0.000 A 
ATOM     17  C   UNL     1       4.089   5.197  19.440  0.00  0.00    +0.000 A 
ATOM     18  C   UNL     1       4.583   3.907  19.238  0.00  0.00    +0.000 A 
ATOM     19  C   UNL     1       3.722   2.825  19.330  0.00  0.00    +0.000 A 
ATOM     20 CL   UNL     1       4.312   1.240  19.015  0.00  0.00    +0.000 Cl
ATOM     21  C   UNL     1       2.383   3.024  19.665  0.00  0.00    +0.000 A 
ATOM     22  C   UNL     1       1.891   4.322  19.881  0.00  0.00    +0.000 A 
ENDBRANCH  14  16
TORSDOF 1
ENDMDL
MODEL 8
REMARK VINA RESULT:      -7.6      2.161      3.433
REMARK  Name = 
REMARK  1 active torsions:
REMARK  status: ('A' for Active; 'I' for Inactive)
REMARK    1  A    between atoms: N_14  and  C_15
REMARK                            x       y       z     vdW  Elec       q    Type
REMARK                         _______ _______ _______ _____ _____    ______ ____
ROOT
ATOM      1  O   UNL     1       1.918   9.412  18.435  0.00  0.00    +0.000 OA
ATOM      2  C   UNL     1       1.856   8.470  19.207  0.00  0.00    +0.000 A 
ATOM      3  C   UNL     1       2.542   7.201  19.001  0.00  0.00    +0.000 A 
ATOM      4  N   UNL     1       3.280   6.901  17.919  0.00  0.00    +0.000 NA
ATOM      5  C   UNL     1       3.734   5.634  17.919  0.00  0.00    +0.000 A 
ATOM      6  C   UNL     1       3.447   4.682  18.912  0.00  0.00    +0.000 A 
ATOM      7  C   UNL     1       3.930   3.371  18.801  0.00  0.00    +0.000 A 
ATOM      8  C   UNL     1       3.614   2.419  19.768  0.00  0.00    +0.000 A 
ATOM      9  C   UNL     1       2.827   2.775  20.862  0.00  0.00    +0.000 A 
ATOM     10  C   UNL     1       2.359   4.088  21.005  0.00  0.00    +0.000 A 
ATOM     11  C   UNL     1       2.655   5.064  20.032  0.00  0.00    +0.000 A 
ATOM     12  C   UNL     1       2.208   6.389  20.074  0.00  0.00    +0.000 A 
ATOM     13  N   UNL     1       1.444   7.069  21.063  0.00  0.00    +0.000 N 
ATOM     14  N   UNL     1       1.178   8.338  20.424  0.00  0.00    +0.000 N 
ATOM     15  H   UNL     1       0.578   6.560  21.249  0.00  0.00    +0.000 HD
ENDROOT
BRANCH  14  16
ATOM     16  C   UNL     1       0.467   9.369  21.087  0.00  0.00    +0.000 A 
ATOM     17  C   UNL     1       0.296  10.617  20.463  0.00  0.00    +0.000 A 
ATOM     18  C   UNL     1      -0.299  11.693  21.124  0.00  0.00    +0.000 A 
ATOM     19  C   UNL     1      -0.742  11.531  22.429  0.00  0.00    +0.000 A 
ATOM     20 CL   UNL     1      -1.414  12.872  23.271  0.00  0.00    +0.000 Cl
ATOM     21  C   UNL     1      -0.630  10.290  23.056  0.00  0.00    +0.000 A 
ATOM     22  C   UNL     1      -0.041   9.206  22.382  0.00  0.00    +0.000 A 
ENDBRANCH  14  16
TORSDOF 1
ENDMDL
MODEL 9
REMARK VINA RESULT:      -7.6      3.029      7.020
REMARK  Name = 
REMARK  1 active torsions:
REMARK  status: ('A' for Active; 'I' for Inactive)
REMARK    1  A    between atoms: N_14  and  C_15
REMARK                            x       y       z     vdW  Elec       q    Type
REMARK                         _______ _______ _______ _____ _____    ______ ____
ROOT
ATOM      1  O   UNL     1       2.766   5.372  20.261  0.00  0.00    +0.000 OA
ATOM      2  C   UNL     1       2.552   6.397  19.635  0.00  0.00    +0.000 A 
ATOM      3  C   UNL     1       1.791   7.524  20.155  0.00  0.00    +0.000 A 
ATOM      4  N   UNL     1       1.194   7.551  21.359  0.00  0.00    +0.000 NA
ATOM      5  C   UNL     1       0.474   8.668  21.571  0.00  0.00    +0.000 A 
ATOM      6  C   UNL     1       0.305   9.701  20.634  0.00  0.00    +0.000 A 
ATOM      7  C   UNL     1      -0.503  10.807  20.931  0.00  0.00    +0.000 A 
ATOM      8  C   UNL     1      -0.698  11.812  19.986  0.00  0.00    +0.000 A 
ATOM      9  C   UNL     1      -0.073  11.729  18.744  0.00  0.00    +0.000 A 
ATOM     10  C   UNL     1       0.762  10.645  18.438  0.00  0.00    +0.000 A 
ATOM     11  C   UNL     1       0.962   9.609  19.374  0.00  0.00    +0.000 A 
ATOM     12  C   UNL     1       1.752   8.477  19.147  0.00  0.00    +0.000 A 
ATOM     13  N   UNL     1       2.548   8.122  18.023  0.00  0.00    +0.000 N 
ATOM     14  N   UNL     1       2.951   6.772  18.347  0.00  0.00    +0.000 N 
ATOM     15  H   UNL     1       1.985   8.146  17.172  0.00  0.00    +0.000 HD
ENDROOT
BRANCH  14  16
ATOM     16  C   UNL     1       3.814   6.032  17.503  0.00  0.00    +0.000 A 
ATOM     17  C   UNL     1       4.747   6.701  16.692  0.00  0.00    +0.000 A 
ATOM     18  C   UNL     1       5.537   6.018  15.765  0.00  0.00    +0.000 A 
ATOM     19  C   UNL     1       5.407   4.643  15.640  0.00  0.00    +0.000 A 
ATOM     20 CL   UNL     1       6.330   3.806  14.453  0.00  0.00    +0.000 Cl
ATOM     21  C   UNL     1       4.524   3.947  16.465  0.00  0.00    +0.000 A 
ATOM     22  C   UNL     1       3.740   4.636  17.406  0.00  0.00    +0.000 A 
ENDBRANCH  14  16
TORSDOF 1
ENDMDL
