MODEL 1
REMARK VINA RESULT:      -7.5      0.000      0.000
REMARK  Name = 
REMARK  3 active torsions:
REMARK  status: ('A' for Active; 'I' for Inactive)
REMARK    1  A    between atoms: C_10  and  C_11
REMARK    2  A    between atoms: C_12  and  C_13
REMARK    3  A    between atoms: C_24  and  C_25
REMARK                            x       y       z     vdW  Elec       q    Type
REMARK                         _______ _______ _______ _____ _____    ______ ____
ROOT
ATOM      1  O   UNL     1      -0.477  15.107  20.953  0.00  0.00    +0.000 OA
ATOM      2  C   UNL     1      -0.642  13.938  21.303  0.00  0.00    +0.000 A 
ATOM      3  C   UNL     1      -1.769  13.611  22.185  0.00  0.00    +0.000 A 
ATOM      4  C   UNL     1      -2.714  14.587  22.530  0.00  0.00    +0.000 A 
ATOM      5  C   UNL     1      -3.780  14.246  23.357  0.00  0.00    +0.000 A 
ATOM      6  C   UNL     1      -3.888  12.945  23.845  0.00  0.00    +0.000 A 
ATOM      7  C   UNL     1      -2.934  11.981  23.498  0.00  0.00    +0.000 A 
ATOM      8  C   UNL     1      -1.868  12.303  22.657  0.00  0.00    +0.000 A 
ATOM      9  N   UNL     1      -0.962  11.297  22.290  0.00  0.00    +0.000 NA
ATOM     10  C   UNL     1      -0.004  11.588  21.458  0.00  0.00    +0.000 A 
ATOM     11  N   UNL     1       0.177  12.868  20.963  0.00  0.00    +0.000 N 
ATOM     12  C   UNL     1       1.204  13.181  20.102  0.00  0.00    +0.000 A 
ATOM     13  N   UNL     1       1.178  13.157  18.790  0.00  0.00    +0.000 NA
ATOM     14  N   UNL     1       2.311  13.747  18.259  0.00  0.00    +0.000 NA
ATOM     15  C   UNL     1       3.129  14.213  19.189  0.00  0.00    +0.000 A 
ATOM     16  S   UNL     1       2.639  13.789  20.790  0.00  0.00    +0.000 S 
ENDROOT
BRANCH  15  17
ATOM     17  C   UNL     1       4.340  15.008  18.930  0.00  0.00    +0.000 A 
ATOM     18  C   UNL     1       5.376  14.557  18.094  0.00  0.00    +0.000 A 
ATOM     19  C   UNL     1       6.536  15.315  17.908  0.00  0.00    +0.000 A 
ATOM     20  C   UNL     1       6.681  16.537  18.556  0.00  0.00    +0.000 A 
ATOM     21  C   UNL     1       5.666  17.004  19.387  0.00  0.00    +0.000 A 
ATOM     22  C   UNL     1       4.507  16.245  19.576  0.00  0.00    +0.000 A 
ENDBRANCH  15  17
BRANCH  10  23
ATOM     23  C   UNL     1       0.930  10.509  21.002  0.00  0.00    +0.000 C 
ATOM     24  C   UNL     1       0.603   9.726  19.957  0.00  0.00    +0.000 C 
BRANCH  24  25
ATOM     25  C   UNL     1       1.477   8.688  19.386  0.00  0.00    +0.000 A 
ATOM     26  C   UNL     1       2.050   8.800  18.111  0.00  0.00    +0.000 A 
ATOM     27  C   UNL     1       2.882   7.792  17.610  0.00  0.00    +0.000 A 
ATOM     28  C   UNL     1       3.158   6.669  18.385  0.00  0.00    +0.000 A 
ATOM     29 CL   UNL     1       4.168   5.424  17.762  0.00  0.00    +0.000 Cl
ATOM     30  C   UNL     1       2.620   6.552  19.664  0.00  0.00    +0.000 A 
ATOM     31  C   UNL     1       1.789   7.561  20.163  0.00  0.00    +0.000 A 
ENDBRANCH  24  25
ENDBRANCH  10  23
TORSDOF 3
ENDMDL
MODEL 2
REMARK VINA RESULT:      -7.4      2.957      6.974
REMARK  Name = 
REMARK  3 active torsions:
REMARK  status: ('A' for Active; 'I' for Inactive)
REMARK    1  A    between atoms: C_10  and  C_11
REMARK    2  A    between atoms: C_12  and  C_13
REMARK    3  A    between atoms: C_24  and  C_25
REMARK                            x       y       z     vdW  Elec       q    Type
REMARK                         _______ _______ _______ _____ _____    ______ ____
ROOT
ATOM      1  O   UNL     1      -0.397  15.190  18.941  0.00  0.00    +0.000 OA
ATOM      2  C   UNL     1       0.547  14.402  18.868  0.00  0.00    +0.000 A 
ATOM      3  C   UNL     1       1.863  14.904  18.453  0.00  0.00    +0.000 A 
ATOM      4  C   UNL     1       2.075  16.275  18.256  0.00  0.00    +0.000 A 
ATOM      5  C   UNL     1       3.336  16.725  17.876  0.00  0.00    +0.000 A 
ATOM      6  C   UNL     1       4.368  15.808  17.679  0.00  0.00    +0.000 A 
ATOM      7  C   UNL     1       4.140  14.441  17.873  0.00  0.00    +0.000 A 
ATOM      8  C   UNL     1       2.885  13.975  18.271  0.00  0.00    +0.000 A 
ATOM      9  N   UNL     1       2.711  12.603  18.505  0.00  0.00    +0.000 NA
ATOM     10  C   UNL     1       1.556  12.181  18.932  0.00  0.00    +0.000 A 
ATOM     11  N   UNL     1       0.483  13.036  19.116  0.00  0.00    +0.000 N 
ATOM     12  C   UNL     1      -0.745  12.587  19.545  0.00  0.00    +0.000 A 
ATOM     13  N   UNL     1      -1.174  12.502  20.783  0.00  0.00    +0.000 NA
ATOM     14  N   UNL     1      -2.529  12.223  20.823  0.00  0.00    +0.000 NA
ATOM     15  C   UNL     1      -3.068  12.137  19.618  0.00  0.00    +0.000 A 
ATOM     16  S   UNL     1      -1.899  12.211  18.349  0.00  0.00    +0.000 S 
ENDROOT
BRANCH  15  17
ATOM     17  C   UNL     1      -4.507  11.987  19.344  0.00  0.00    +0.000 A 
ATOM     18  C   UNL     1      -5.000  11.592  18.089  0.00  0.00    +0.000 A 
ATOM     19  C   UNL     1      -6.374  11.507  17.846  0.00  0.00    +0.000 A 
ATOM     20  C   UNL     1      -7.280  11.819  18.855  0.00  0.00    +0.000 A 
ATOM     21  C   UNL     1      -6.813  12.212  20.107  0.00  0.00    +0.000 A 
ATOM     22  C   UNL     1      -5.439  12.299  20.348  0.00  0.00    +0.000 A 
ENDBRANCH  15  17
BRANCH  10  23
ATOM     23  C   UNL     1       1.373  10.729  19.254  0.00  0.00    +0.000 C 
ATOM     24  C   UNL     1       2.102   9.796  18.616  0.00  0.00    +0.000 C 
BRANCH  24  25
ATOM     25  C   UNL     1       2.051   8.353  18.906  0.00  0.00    +0.000 A 
ATOM     26  C   UNL     1       2.413   7.380  17.964  0.00  0.00    +0.000 A 
ATOM     27  C   UNL     1       2.356   6.019  18.285  0.00  0.00    +0.000 A 
ATOM     28  C   UNL     1       1.950   5.620  19.555  0.00  0.00    +0.000 A 
ATOM     29 CL   UNL     1       1.866   3.946  19.944  0.00  0.00    +0.000 Cl
ATOM     30  C   UNL     1       1.612   6.572  20.513  0.00  0.00    +0.000 A 
ATOM     31  C   UNL     1       1.669   7.933  20.190  0.00  0.00    +0.000 A 
ENDBRANCH  24  25
ENDBRANCH  10  23
TORSDOF 3
ENDMDL
MODEL 3
REMARK VINA RESULT:      -7.4      0.550      1.022
REMARK  Name = 
REMARK  3 active torsions:
REMARK  status: ('A' for Active; 'I' for Inactive)
REMARK    1  A    between atoms: C_10  and  C_11
REMARK    2  A    between atoms: C_12  and  C_13
REMARK    3  A    between atoms: C_24  and  C_25
REMARK                            x       y       z     vdW  Elec       q    Type
REMARK                         _______ _______ _______ _____ _____    ______ ____
ROOT
ATOM      1  O   UNL     1       0.057  15.361  21.433  0.00  0.00    +0.000 OA
ATOM      2  C   UNL     1      -0.261  14.172  21.467  0.00  0.00    +0.000 A 
ATOM      3  C   UNL     1      -1.363  13.755  22.343  0.00  0.00    +0.000 A 
ATOM      4  C   UNL     1      -2.121  14.705  23.040  0.00  0.00    +0.000 A 
ATOM      5  C   UNL     1      -3.169  14.282  23.853  0.00  0.00    +0.000 A 
ATOM      6  C   UNL     1      -3.442  12.921  23.977  0.00  0.00    +0.000 A 
ATOM      7  C   UNL     1      -2.673  11.982  23.281  0.00  0.00    +0.000 A 
ATOM      8  C   UNL     1      -1.629  12.391  22.449  0.00  0.00    +0.000 A 
ATOM      9  N   UNL     1      -0.914  11.423  21.727  0.00  0.00    +0.000 NA
ATOM     10  C   UNL     1       0.019  11.813  20.908  0.00  0.00    +0.000 A 
ATOM     11  N   UNL     1       0.360  13.148  20.763  0.00  0.00    +0.000 N 
ATOM     12  C   UNL     1       1.362  13.558  19.914  0.00  0.00    +0.000 A 
ATOM     13  N   UNL     1       1.245  13.913  18.656  0.00  0.00    +0.000 NA
ATOM     14  N   UNL     1       2.417  14.479  18.187  0.00  0.00    +0.000 NA
ATOM     15  C   UNL     1       3.357  14.552  19.115  0.00  0.00    +0.000 A 
ATOM     16  S   UNL     1       2.917  13.756  20.583  0.00  0.00    +0.000 S 
ENDROOT
BRANCH  15  17
ATOM     17  C   UNL     1       4.655  15.227  18.953  0.00  0.00    +0.000 A 
ATOM     18  C   UNL     1       4.919  16.499  19.491  0.00  0.00    +0.000 A 
ATOM     19  C   UNL     1       6.146  17.133  19.277  0.00  0.00    +0.000 A 
ATOM     20  C   UNL     1       7.131  16.507  18.520  0.00  0.00    +0.000 A 
ATOM     21  C   UNL     1       6.892  15.247  17.980  0.00  0.00    +0.000 A 
ATOM     22  C   UNL     1       5.663  14.613  18.191  0.00  0.00    +0.000 A 
ENDBRANCH  15  17
BRANCH  10  23
ATOM     23  C   UNL     1       0.744  10.799  20.077  0.00  0.00    +0.000 C 
ATOM     24  C   UNL     1       0.990   9.571  20.568  0.00  0.00    +0.000 C 
BRANCH  24  25
ATOM     25  C   UNL     1       1.630   8.482  19.812  0.00  0.00    +0.000 A 
ATOM     26  C   UNL     1       2.089   8.644  18.497  0.00  0.00    +0.000 A 
ATOM     27  C   UNL     1       2.699   7.584  17.817  0.00  0.00    +0.000 A 
ATOM     28  C   UNL     1       2.867   6.356  18.451  0.00  0.00    +0.000 A 
ATOM     29 CL   UNL     1       3.603   5.049  17.608  0.00  0.00    +0.000 Cl
ATOM     30  C   UNL     1       2.442   6.183  19.764  0.00  0.00    +0.000 A 
ATOM     31  C   UNL     1       1.833   7.244  20.443  0.00  0.00    +0.000 A 
ENDBRANCH  24  25
ENDBRANCH  10  23
TORSDOF 3
ENDMDL
MODEL 4
REMARK VINA RESULT:      -7.4      6.439     10.088
REMARK  Name = 
REMARK  3 active torsions:
REMARK  status: ('A' for Active; 'I' for Inactive)
REMARK    1  A    between atoms: C_10  and  C_11
REMARK    2  A    between atoms: C_12  and  C_13
REMARK    3  A    between atoms: C_24  and  C_25
REMARK                            x       y       z     vdW  Elec       q    Type
REMARK                         _______ _______ _______ _____ _____    ______ ____
ROOT
ATOM      1  O   UNL     1       8.375   5.874  14.839  0.00  0.00    +0.000 OA
ATOM      2  C   UNL     1       7.237   5.431  14.999  0.00  0.00    +0.000 A 
ATOM      3  C   UNL     1       6.657   4.567  13.964  0.00  0.00    +0.000 A 
ATOM      4  C   UNL     1       7.424   4.153  12.866  0.00  0.00    +0.000 A 
ATOM      5  C   UNL     1       6.852   3.323  11.906  0.00  0.00    +0.000 A 
ATOM      6  C   UNL     1       5.523   2.927  12.038  0.00  0.00    +0.000 A 
ATOM      7  C   UNL     1       4.766   3.352  13.136  0.00  0.00    +0.000 A 
ATOM      8  C   UNL     1       5.330   4.172  14.115  0.00  0.00    +0.000 A 
ATOM      9  N   UNL     1       4.555   4.535  15.227  0.00  0.00    +0.000 NA
ATOM     10  C   UNL     1       5.102   5.250  16.167  0.00  0.00    +0.000 A 
ATOM     11  N   UNL     1       6.408   5.702  16.081  0.00  0.00    +0.000 N 
ATOM     12  C   UNL     1       6.980   6.478  17.064  0.00  0.00    +0.000 A 
ATOM     13  N   UNL     1       7.662   6.066  18.106  0.00  0.00    +0.000 NA
ATOM     14  N   UNL     1       8.274   7.127  18.751  0.00  0.00    +0.000 NA
ATOM     15  C   UNL     1       8.050   8.286  18.154  0.00  0.00    +0.000 A 
ATOM     16  S   UNL     1       6.914   8.168  16.859  0.00  0.00    +0.000 S 
ENDROOT
BRANCH  15  17
ATOM     17  C   UNL     1       8.677   9.565  18.526  0.00  0.00    +0.000 A 
ATOM     18  C   UNL     1       9.308   9.765  19.767  0.00  0.00    +0.000 A 
ATOM     19  C   UNL     1       9.851  11.006  20.109  0.00  0.00    +0.000 A 
ATOM     20  C   UNL     1       9.771  12.071  19.217  0.00  0.00    +0.000 A 
ATOM     21  C   UNL     1       9.152  11.895  17.983  0.00  0.00    +0.000 A 
ATOM     22  C   UNL     1       8.606  10.654  17.642  0.00  0.00    +0.000 A 
ENDBRANCH  15  17
BRANCH  10  23
ATOM     23  C   UNL     1       4.311   5.587  17.394  0.00  0.00    +0.000 C 
ATOM     24  C   UNL     1       3.611   6.734  17.456  0.00  0.00    +0.000 C 
BRANCH  24  25
ATOM     25  C   UNL     1       2.748   7.126  18.582  0.00  0.00    +0.000 A 
ATOM     26  C   UNL     1       2.520   6.290  19.685  0.00  0.00    +0.000 A 
ATOM     27  C   UNL     1       1.698   6.706  20.739  0.00  0.00    +0.000 A 
ATOM     28  C   UNL     1       1.107   7.966  20.705  0.00  0.00    +0.000 A 
ATOM     29 CL   UNL     1       0.085   8.469  21.994  0.00  0.00    +0.000 Cl
ATOM     30  C   UNL     1       1.343   8.820  19.632  0.00  0.00    +0.000 A 
ATOM     31  C   UNL     1       2.166   8.404  18.580  0.00  0.00    +0.000 A 
ENDBRANCH  24  25
ENDBRANCH  10  23
TORSDOF 3
ENDMDL
MODEL 5
REMARK VINA RESULT:      -7.3      0.177      1.236
REMARK  Name = 
REMARK  3 active torsions:
REMARK  status: ('A' for Active; 'I' for Inactive)
REMARK    1  A    between atoms: C_10  and  C_11
REMARK    2  A    between atoms: C_12  and  C_13
REMARK    3  A    between atoms: C_24  and  C_25
REMARK                            x       y       z     vdW  Elec       q    Type
REMARK                         _______ _______ _______ _____ _____    ______ ____
ROOT
ATOM      1  O   UNL     1      -0.429  15.276  20.962  0.00  0.00    +0.000 OA
ATOM      2  C   UNL     1      -0.617  14.105  21.295  0.00  0.00    +0.000 A 
ATOM      3  C   UNL     1      -1.774  13.782  22.138  0.00  0.00    +0.000 A 
ATOM      4  C   UNL     1      -2.719  14.765  22.463  0.00  0.00    +0.000 A 
ATOM      5  C   UNL     1      -3.814  14.427  23.253  0.00  0.00    +0.000 A 
ATOM      6  C   UNL     1      -3.951  13.123  23.725  0.00  0.00    +0.000 A 
ATOM      7  C   UNL     1      -2.997  12.152  23.398  0.00  0.00    +0.000 A 
ATOM      8  C   UNL     1      -1.901  12.471  22.594  0.00  0.00    +0.000 A 
ATOM      9  N   UNL     1      -0.994  11.459  22.246  0.00  0.00    +0.000 NA
ATOM     10  C   UNL     1      -0.007  11.747  21.448  0.00  0.00    +0.000 A 
ATOM     11  N   UNL     1       0.202  13.030  20.970  0.00  0.00    +0.000 N 
ATOM     12  C   UNL     1       1.258  13.340  20.145  0.00  0.00    +0.000 A 
ATOM     13  N   UNL     1       1.273  13.329  18.832  0.00  0.00    +0.000 NA
ATOM     14  N   UNL     1       2.429  13.912  18.343  0.00  0.00    +0.000 NA
ATOM     15  C   UNL     1       3.221  14.360  19.303  0.00  0.00    +0.000 A 
ATOM     16  S   UNL     1       2.677  13.926  20.883  0.00  0.00    +0.000 S 
ENDROOT
BRANCH  15  17
ATOM     17  C   UNL     1       4.448  15.146  19.089  0.00  0.00    +0.000 A 
ATOM     18  C   UNL     1       4.657  16.399  19.689  0.00  0.00    +0.000 A 
ATOM     19  C   UNL     1       5.812  17.142  19.427  0.00  0.00    +0.000 A 
ATOM     20  C   UNL     1       6.777  16.645  18.557  0.00  0.00    +0.000 A 
ATOM     21  C   UNL     1       6.591  15.406  17.952  0.00  0.00    +0.000 A 
ATOM     22  C   UNL     1       5.434  14.663  18.213  0.00  0.00    +0.000 A 
ENDBRANCH  15  17
BRANCH  10  23
ATOM     23  C   UNL     1       0.929  10.663  21.010  0.00  0.00    +0.000 C 
ATOM     24  C   UNL     1       0.562   9.796  20.049  0.00  0.00    +0.000 C 
BRANCH  24  25
ATOM     25  C   UNL     1       1.430   8.742  19.499  0.00  0.00    +0.000 A 
ATOM     26  C   UNL     1       1.749   7.578  20.213  0.00  0.00    +0.000 A 
ATOM     27  C   UNL     1       2.573   6.597  19.649  0.00  0.00    +0.000 A 
ATOM     28  C   UNL     1       3.073   6.765  18.361  0.00  0.00    +0.000 A 
ATOM     29 CL   UNL     1       4.097   5.565  17.674  0.00  0.00    +0.000 Cl
ATOM     30  C   UNL     1       2.745   7.901  17.626  0.00  0.00    +0.000 A 
ATOM     31  C   UNL     1       1.922   8.880  18.191  0.00  0.00    +0.000 A 
ENDBRANCH  24  25
ENDBRANCH  10  23
TORSDOF 3
ENDMDL
MODEL 6
REMARK VINA RESULT:      -7.1      1.000      1.152
REMARK  Name = 
REMARK  3 active torsions:
REMARK  status: ('A' for Active; 'I' for Inactive)
REMARK    1  A    between atoms: C_10  and  C_11
REMARK    2  A    between atoms: C_12  and  C_13
REMARK    3  A    between atoms: C_24  and  C_25
REMARK                            x       y       z     vdW  Elec       q    Type
REMARK                         _______ _______ _______ _____ _____    ______ ____
ROOT
ATOM      1  O   UNL     1      -0.957  15.775  21.830  0.00  0.00    +0.000 OA
ATOM      2  C   UNL     1      -1.093  14.560  21.976  0.00  0.00    +0.000 A 
ATOM      3  C   UNL     1      -2.221  14.060  22.772  0.00  0.00    +0.000 A 
ATOM      4  C   UNL     1      -3.197  14.940  23.261  0.00  0.00    +0.000 A 
ATOM      5  C   UNL     1      -4.263  14.437  24.002  0.00  0.00    +0.000 A 
ATOM      6  C   UNL     1      -4.340  13.070  24.263  0.00  0.00    +0.000 A 
ATOM      7  C   UNL     1      -3.355  12.203  23.774  0.00  0.00    +0.000 A 
ATOM      8  C   UNL     1      -2.289  12.690  23.016  0.00  0.00    +0.000 A 
ATOM      9  N   UNL     1      -1.350  11.783  22.501  0.00  0.00    +0.000 NA
ATOM     10  C   UNL     1      -0.391  12.234  21.745  0.00  0.00    +0.000 A 
ATOM     11  N   UNL     1      -0.241  13.584  21.475  0.00  0.00    +0.000 N 
ATOM     12  C   UNL     1       0.787  14.063  20.695  0.00  0.00    +0.000 A 
ATOM     13  N   UNL     1       0.777  14.260  19.398  0.00  0.00    +0.000 NA
ATOM     14  N   UNL     1       1.900  14.960  18.992  0.00  0.00    +0.000 NA
ATOM     15  C   UNL     1       2.693  15.284  20.000  0.00  0.00    +0.000 A 
ATOM     16  S   UNL     1       2.197  14.583  21.499  0.00  0.00    +0.000 S 
ENDROOT
BRANCH  15  17
ATOM     17  C   UNL     1       3.884  16.142  19.898  0.00  0.00    +0.000 A 
ATOM     18  C   UNL     1       4.834  15.999  18.872  0.00  0.00    +0.000 A 
ATOM     19  C   UNL     1       5.980  16.798  18.831  0.00  0.00    +0.000 A 
ATOM     20  C   UNL     1       6.198  17.754  19.818  0.00  0.00    +0.000 A 
ATOM     21  C   UNL     1       5.270  17.914  20.843  0.00  0.00    +0.000 A 
ATOM     22  C   UNL     1       4.125  17.112  20.885  0.00  0.00    +0.000 A 
ENDBRANCH  15  17
BRANCH  10  23
ATOM     23  C   UNL     1       0.578  11.272  21.129  0.00  0.00    +0.000 C 
ATOM     24  C   UNL     1       0.132  10.244  20.385  0.00  0.00    +0.000 C 
BRANCH  24  25
ATOM     25  C   UNL     1       1.000   9.286  19.680  0.00  0.00    +0.000 A 
ATOM     26  C   UNL     1       1.412   9.475  18.352  0.00  0.00    +0.000 A 
ATOM     27  C   UNL     1       2.244   8.542  17.723  0.00  0.00    +0.000 A 
ATOM     28  C   UNL     1       2.682   7.419  18.418  0.00  0.00    +0.000 A 
ATOM     29 CL   UNL     1       3.692   6.266  17.638  0.00  0.00    +0.000 Cl
ATOM     30  C   UNL     1       2.306   7.227  19.745  0.00  0.00    +0.000 A 
ATOM     31  C   UNL     1       1.474   8.161  20.373  0.00  0.00    +0.000 A 
ENDBRANCH  24  25
ENDBRANCH  10  23
TORSDOF 3
ENDMDL
MODEL 7
REMARK VINA RESULT:      -7.0      1.901      6.857
REMARK  Name = 
REMARK  3 active torsions:
REMARK  status: ('A' for Active; 'I' for Inactive)
REMARK    1  A    between atoms: C_10  and  C_11
REMARK    2  A    between atoms: C_12  and  C_13
REMARK    3  A    between atoms: C_24  and  C_25
REMARK                            x       y       z     vdW  Elec       q    Type
REMARK                         _______ _______ _______ _____ _____    ______ ____
ROOT
ATOM      1  O   UNL     1       0.067  15.543  20.690  0.00  0.00    +0.000 OA
ATOM      2  C   UNL     1       0.731  14.701  20.085  0.00  0.00    +0.000 A 
ATOM      3  C   UNL     1       1.705  15.149  19.082  0.00  0.00    +0.000 A 
ATOM      4  C   UNL     1       1.965  16.514  18.897  0.00  0.00    +0.000 A 
ATOM      5  C   UNL     1       2.904  16.910  17.949  0.00  0.00    +0.000 A 
ATOM      6  C   UNL     1       3.562  15.948  17.184  0.00  0.00    +0.000 A 
ATOM      7  C   UNL     1       3.289  14.589  17.375  0.00  0.00    +0.000 A 
ATOM      8  C   UNL     1       2.362  14.175  18.333  0.00  0.00    +0.000 A 
ATOM      9  N   UNL     1       2.153  12.801  18.530  0.00  0.00    +0.000 NA
ATOM     10  C   UNL     1       1.332  12.419  19.465  0.00  0.00    +0.000 A 
ATOM     11  N   UNL     1       0.624  13.324  20.237  0.00  0.00    +0.000 N 
ATOM     12  C   UNL     1      -0.262  12.920  21.209  0.00  0.00    +0.000 A 
ATOM     13  N   UNL     1      -0.009  12.713  22.480  0.00  0.00    +0.000 NA
ATOM     14  N   UNL     1      -1.179  12.537  23.199  0.00  0.00    +0.000 NA
ATOM     15  C   UNL     1      -2.261  12.643  22.446  0.00  0.00    +0.000 A 
ATOM     16  S   UNL     1      -1.901  12.787  20.763  0.00  0.00    +0.000 S 
ENDROOT
BRANCH  15  17
ATOM     17  C   UNL     1      -3.645  12.640  22.949  0.00  0.00    +0.000 A 
ATOM     18  C   UNL     1      -3.960  12.372  24.293  0.00  0.00    +0.000 A 
ATOM     19  C   UNL     1      -5.288  12.328  24.728  0.00  0.00    +0.000 A 
ATOM     20  C   UNL     1      -6.324  12.549  23.827  0.00  0.00    +0.000 A 
ATOM     21  C   UNL     1      -6.035  12.817  22.492  0.00  0.00    +0.000 A 
ATOM     22  C   UNL     1      -4.707  12.859  22.056  0.00  0.00    +0.000 A 
ENDBRANCH  15  17
BRANCH  10  23
ATOM     23  C   UNL     1       1.151  10.956  19.735  0.00  0.00    +0.000 C 
ATOM     24  C   UNL     1       1.919  10.050  19.104  0.00  0.00    +0.000 C 
BRANCH  24  25
ATOM     25  C   UNL     1       1.870   8.599  19.350  0.00  0.00    +0.000 A 
ATOM     26  C   UNL     1       2.303   7.658  18.404  0.00  0.00    +0.000 A 
ATOM     27  C   UNL     1       2.246   6.287  18.682  0.00  0.00    +0.000 A 
ATOM     28  C   UNL     1       1.768   5.847  19.913  0.00  0.00    +0.000 A 
ATOM     29 CL   UNL     1       1.685   4.161  20.247  0.00  0.00    +0.000 Cl
ATOM     30  C   UNL     1       1.360   6.766  20.875  0.00  0.00    +0.000 A 
ATOM     31  C   UNL     1       1.418   8.136  20.595  0.00  0.00    +0.000 A 
ENDBRANCH  24  25
ENDBRANCH  10  23
TORSDOF 3
ENDMDL
MODEL 8
REMARK VINA RESULT:      -7.0      0.934      1.385
REMARK  Name = 
REMARK  3 active torsions:
REMARK  status: ('A' for Active; 'I' for Inactive)
REMARK    1  A    between atoms: C_10  and  C_11
REMARK    2  A    between atoms: C_12  and  C_13
REMARK    3  A    between atoms: C_24  and  C_25
REMARK                            x       y       z     vdW  Elec       q    Type
REMARK                         _______ _______ _______ _____ _____    ______ ____
ROOT
ATOM      1  O   UNL     1       0.278  16.116  20.475  0.00  0.00    +0.000 OA
ATOM      2  C   UNL     1      -0.050  14.997  20.869  0.00  0.00    +0.000 A 
ATOM      3  C   UNL     1      -1.243  14.861  21.714  0.00  0.00    +0.000 A 
ATOM      4  C   UNL     1      -2.066  15.966  21.973  0.00  0.00    +0.000 A 
ATOM      5  C   UNL     1      -3.198  15.805  22.767  0.00  0.00    +0.000 A 
ATOM      6  C   UNL     1      -3.492  14.555  23.308  0.00  0.00    +0.000 A 
ATOM      7  C   UNL     1      -2.659  13.461  23.046  0.00  0.00    +0.000 A 
ATOM      8  C   UNL     1      -1.529  13.602  22.239  0.00  0.00    +0.000 A 
ATOM      9  N   UNL     1      -0.747  12.471  21.958  0.00  0.00    +0.000 NA
ATOM     10  C   UNL     1       0.272  12.595  21.157  0.00  0.00    +0.000 A 
ATOM     11  N   UNL     1       0.635  13.815  20.613  0.00  0.00    +0.000 N 
ATOM     12  C   UNL     1       1.726  13.951  19.785  0.00  0.00    +0.000 A 
ATOM     13  N   UNL     1       1.747  13.865  18.476  0.00  0.00    +0.000 NA
ATOM     14  N   UNL     1       2.967  14.278  17.969  0.00  0.00    +0.000 NA
ATOM     15  C   UNL     1       3.802  14.682  18.913  0.00  0.00    +0.000 A 
ATOM     16  S   UNL     1       3.201  14.404  20.508  0.00  0.00    +0.000 S 
ENDROOT
BRANCH  15  17
ATOM     17  C   UNL     1       5.115  15.302  18.672  0.00  0.00    +0.000 A 
ATOM     18  C   UNL     1       6.145  14.646  17.976  0.00  0.00    +0.000 A 
ATOM     19  C   UNL     1       7.397  15.243  17.807  0.00  0.00    +0.000 A 
ATOM     20  C   UNL     1       7.642  16.508  18.333  0.00  0.00    +0.000 A 
ATOM     21  C   UNL     1       6.637  17.176  19.025  0.00  0.00    +0.000 A 
ATOM     22  C   UNL     1       5.384  16.577  19.196  0.00  0.00    +0.000 A 
ENDBRANCH  15  17
BRANCH  10  23
ATOM     23  C   UNL     1       1.074  11.384  20.791  0.00  0.00    +0.000 C 
ATOM     24  C   UNL     1       0.529  10.411  20.039  0.00  0.00    +0.000 C 
BRANCH  24  25
ATOM     25  C   UNL     1       1.251   9.218  19.566  0.00  0.00    +0.000 A 
ATOM     26  C   UNL     1       1.519   8.120  20.396  0.00  0.00    +0.000 A 
ATOM     27  C   UNL     1       2.202   7.002  19.903  0.00  0.00    +0.000 A 
ATOM     28  C   UNL     1       2.610   6.967  18.573  0.00  0.00    +0.000 A 
ATOM     29 CL   UNL     1       3.462   5.598  17.972  0.00  0.00    +0.000 Cl
ATOM     30  C   UNL     1       2.329   8.035  17.726  0.00  0.00    +0.000 A 
ATOM     31  C   UNL     1       1.646   9.152  18.221  0.00  0.00    +0.000 A 
ENDBRANCH  24  25
ENDBRANCH  10  23
TORSDOF 3
ENDMDL
MODEL 9
REMARK VINA RESULT:      -6.9      6.685      9.497
REMARK  Name = 
REMARK  3 active torsions:
REMARK  status: ('A' for Active; 'I' for Inactive)
REMARK    1  A    between atoms: C_10  and  C_11
REMARK    2  A    between atoms: C_12  and  C_13
REMARK    3  A    between atoms: C_24  and  C_25
REMARK                            x       y       z     vdW  Elec       q    Type
REMARK                         _______ _______ _______ _____ _____    ______ ____
ROOT
ATOM      1  O   UNL     1       8.336  15.432  17.895  0.00  0.00    +0.000 OA
ATOM      2  C   UNL     1       8.693  14.606  18.736  0.00  0.00    +0.000 A 
ATOM      3  C   UNL     1       9.799  13.695  18.416  0.00  0.00    +0.000 A 
ATOM      4  C   UNL     1      10.519  13.838  17.222  0.00  0.00    +0.000 A 
ATOM      5  C   UNL     1      11.572  12.969  16.950  0.00  0.00    +0.000 A 
ATOM      6  C   UNL     1      11.888  11.959  17.858  0.00  0.00    +0.000 A 
ATOM      7  C   UNL     1      11.157  11.825  19.043  0.00  0.00    +0.000 A 
ATOM      8  C   UNL     1      10.109  12.698  19.338  0.00  0.00    +0.000 A 
ATOM      9  N   UNL     1       9.433  12.563  20.561  0.00  0.00    +0.000 NA
ATOM     10  C   UNL     1       8.496  13.416  20.858  0.00  0.00    +0.000 A 
ATOM     11  N   UNL     1       8.113  14.421  19.986  0.00  0.00    +0.000 N 
ATOM     12  C   UNL     1       7.106  15.308  20.290  0.00  0.00    +0.000 A 
ATOM     13  N   UNL     1       7.225  16.476  20.878  0.00  0.00    +0.000 NA
ATOM     14  N   UNL     1       6.039  17.187  20.816  0.00  0.00    +0.000 NA
ATOM     15  C   UNL     1       5.088  16.540  20.162  0.00  0.00    +0.000 A 
ATOM     16  S   UNL     1       5.539  14.927  19.740  0.00  0.00    +0.000 S 
ENDROOT
BRANCH  15  17
ATOM     17  C   UNL     1       3.770  17.096  19.816  0.00  0.00    +0.000 A 
ATOM     18  C   UNL     1       3.083  17.990  20.655  0.00  0.00    +0.000 A 
ATOM     19  C   UNL     1       1.810  18.462  20.321  0.00  0.00    +0.000 A 
ATOM     20  C   UNL     1       1.201  18.045  19.142  0.00  0.00    +0.000 A 
ATOM     21  C   UNL     1       1.864  17.161  18.295  0.00  0.00    +0.000 A 
ATOM     22  C   UNL     1       3.136  16.687  18.631  0.00  0.00    +0.000 A 
ENDBRANCH  15  17
BRANCH  10  23
ATOM     23  C   UNL     1       7.813  13.329  22.189  0.00  0.00    +0.000 C 
ATOM     24  C   UNL     1       7.907  12.208  22.927  0.00  0.00    +0.000 C 
BRANCH  24  25
ATOM     25  C   UNL     1       7.335  12.046  24.274  0.00  0.00    +0.000 A 
ATOM     26  C   UNL     1       6.136  11.358  24.507  0.00  0.00    +0.000 A 
ATOM     27  C   UNL     1       5.632  11.221  25.806  0.00  0.00    +0.000 A 
ATOM     28  C   UNL     1       6.329  11.758  26.883  0.00  0.00    +0.000 A 
ATOM     29 CL   UNL     1       5.701  11.601  28.477  0.00  0.00    +0.000 Cl
ATOM     30  C   UNL     1       7.535  12.421  26.676  0.00  0.00    +0.000 A 
ATOM     31  C   UNL     1       8.038  12.557  25.377  0.00  0.00    +0.000 A 
ENDBRANCH  24  25
ENDBRANCH  10  23
TORSDOF 3
ENDMDL
