MODEL 1
REMARK VINA RESULT:      -5.6      0.000      0.000
REMARK  Name = 
REMARK  3 active torsions:
REMARK  status: ('A' for Active; 'I' for Inactive)
REMARK    1  A    between atoms: C_2  and  C_3
REMARK    2  A    between atoms: C_3  and  C_4
REMARK    3  A    between atoms: C_4  and  C_6
REMARK                            x       y       z     vdW  Elec       q    Type
REMARK                         _______ _______ _______ _____ _____    ______ ____
ROOT
ATOM      1  C   UNL     1       2.300   3.779  18.242  0.00  0.00    +0.000 A 
ATOM      2  C   UNL     1       3.315   3.044  17.614  0.00  0.00    +0.000 A 
ATOM      3  C   UNL     1       4.382   3.707  17.002  0.00  0.00    +0.000 A 
ATOM      4  C   UNL     1       4.440   5.100  17.011  0.00  0.00    +0.000 A 
ATOM      5  C   UNL     1       3.429   5.833  17.631  0.00  0.00    +0.000 A 
ATOM      6 CL   UNL     1       3.502   7.550  17.640  0.00  0.00    +0.000 Cl
ATOM      7  C   UNL     1       2.362   5.181  18.246  0.00  0.00    +0.000 A 
ENDROOT
BRANCH   1   8
ATOM      8  C   UNL     1       1.140   3.127  18.916  0.00  0.00    +0.000 C 
ATOM      9  O   UNL     1       0.555   2.223  18.325  0.00  0.00    +0.000 OA
BRANCH   8  10
ATOM     10  C   UNL     1       0.742   3.604  20.296  0.00  0.00    +0.000 C 
BRANCH  10  12
ATOM     11  N   UNL     1       2.491   2.579  22.201  0.00  0.00    +0.000 NA
ATOM     12  C   UNL     1       1.698   3.044  21.337  0.00  0.00    +0.000 C 
ENDBRANCH  10  12
ENDBRANCH   8  10
ENDBRANCH   1   8
TORSDOF 3
ENDMDL
MODEL 2
REMARK VINA RESULT:      -5.6      1.539      2.098
REMARK  Name = 
REMARK  3 active torsions:
REMARK  status: ('A' for Active; 'I' for Inactive)
REMARK    1  A    between atoms: C_2  and  C_3
REMARK    2  A    between atoms: C_3  and  C_4
REMARK    3  A    between atoms: C_4  and  C_6
REMARK                            x       y       z     vdW  Elec       q    Type
REMARK                         _______ _______ _______ _____ _____    ______ ____
ROOT
ATOM      1  C   UNL     1       2.558   4.643  18.155  0.00  0.00    +0.000 A 
ATOM      2  C   UNL     1       2.660   6.029  18.339  0.00  0.00    +0.000 A 
ATOM      3  C   UNL     1       3.692   6.742  17.724  0.00  0.00    +0.000 A 
ATOM      4  C   UNL     1       4.624   6.079  16.928  0.00  0.00    +0.000 A 
ATOM      5  C   UNL     1       4.527   4.701  16.746  0.00  0.00    +0.000 A 
ATOM      6 CL   UNL     1       5.678   3.885  15.765  0.00  0.00    +0.000 Cl
ATOM      7  C   UNL     1       3.501   3.981  17.354  0.00  0.00    +0.000 A 
ENDROOT
BRANCH   1   8
ATOM      8  C   UNL     1       1.475   3.830  18.780  0.00  0.00    +0.000 C 
ATOM      9  O   UNL     1       1.042   2.861  18.160  0.00  0.00    +0.000 OA
BRANCH   8  10
ATOM     10  C   UNL     1       0.964   4.231  20.147  0.00  0.00    +0.000 C 
BRANCH  10  12
ATOM     11  N   UNL     1       1.786   2.379  22.053  0.00  0.00    +0.000 NA
ATOM     12  C   UNL     1       1.413   3.219  21.188  0.00  0.00    +0.000 C 
ENDBRANCH  10  12
ENDBRANCH   8  10
ENDBRANCH   1   8
TORSDOF 3
ENDMDL
MODEL 3
REMARK VINA RESULT:      -5.5      3.780      5.113
REMARK  Name = 
REMARK  3 active torsions:
REMARK  status: ('A' for Active; 'I' for Inactive)
REMARK    1  A    between atoms: C_2  and  C_3
REMARK    2  A    between atoms: C_3  and  C_4
REMARK    3  A    between atoms: C_4  and  C_6
REMARK                            x       y       z     vdW  Elec       q    Type
REMARK                         _______ _______ _______ _____ _____    ______ ____
ROOT
ATOM      1  C   UNL     1       3.839   3.993  18.534  0.00  0.00    +0.000 A 
ATOM      2  C   UNL     1       2.824   4.253  17.602  0.00  0.00    +0.000 A 
ATOM      3  C   UNL     1       1.489   4.016  17.938  0.00  0.00    +0.000 A 
ATOM      4  C   UNL     1       1.161   3.518  19.198  0.00  0.00    +0.000 A 
ATOM      5  C   UNL     1       2.168   3.256  20.125  0.00  0.00    +0.000 A 
ATOM      6 CL   UNL     1       1.761   2.641  21.677  0.00  0.00    +0.000 Cl
ATOM      7  C   UNL     1       3.502   3.491  19.800  0.00  0.00    +0.000 A 
ENDROOT
BRANCH   1   8
ATOM      8  C   UNL     1       5.280   4.233  18.236  0.00  0.00    +0.000 C 
ATOM      9  O   UNL     1       6.062   4.333  19.179  0.00  0.00    +0.000 OA
BRANCH   8  10
ATOM     10  C   UNL     1       5.714   4.335  16.790  0.00  0.00    +0.000 C 
BRANCH  10  12
ATOM     11  N   UNL     1       7.457   6.479  16.467  0.00  0.00    +0.000 NA
ATOM     12  C   UNL     1       6.666   5.507  16.613  0.00  0.00    +0.000 C 
ENDBRANCH  10  12
ENDBRANCH   8  10
ENDBRANCH   1   8
TORSDOF 3
ENDMDL
MODEL 4
REMARK VINA RESULT:      -5.5      3.642      5.206
REMARK  Name = 
REMARK  3 active torsions:
REMARK  status: ('A' for Active; 'I' for Inactive)
REMARK    1  A    between atoms: C_2  and  C_3
REMARK    2  A    between atoms: C_3  and  C_4
REMARK    3  A    between atoms: C_4  and  C_6
REMARK                            x       y       z     vdW  Elec       q    Type
REMARK                         _______ _______ _______ _____ _____    ______ ____
ROOT
ATOM      1  C   UNL     1       5.022   5.749  17.169  0.00  0.00    +0.000 A 
ATOM      2  C   UNL     1       4.128   6.735  17.611  0.00  0.00    +0.000 A 
ATOM      3  C   UNL     1       2.854   6.374  18.056  0.00  0.00    +0.000 A 
ATOM      4  C   UNL     1       2.466   5.036  18.060  0.00  0.00    +0.000 A 
ATOM      5  C   UNL     1       3.351   4.054  17.618  0.00  0.00    +0.000 A 
ATOM      6 CL   UNL     1       2.870   2.404  17.623  0.00  0.00    +0.000 Cl
ATOM      7  C   UNL     1       4.624   4.403  17.173  0.00  0.00    +0.000 A 
ENDROOT
BRANCH   1   8
ATOM      8  C   UNL     1       6.396   6.072  16.688  0.00  0.00    +0.000 C 
ATOM      9  O   UNL     1       6.696   5.769  15.535  0.00  0.00    +0.000 OA
BRANCH   8  10
ATOM     10  C   UNL     1       7.353   6.761  17.636  0.00  0.00    +0.000 C 
BRANCH  10  12
ATOM     11  N   UNL     1       7.584   5.296  19.989  0.00  0.00    +0.000 NA
ATOM     12  C   UNL     1       7.479   5.960  18.922  0.00  0.00    +0.000 C 
ENDBRANCH  10  12
ENDBRANCH   8  10
ENDBRANCH   1   8
TORSDOF 3
ENDMDL
MODEL 5
REMARK VINA RESULT:      -5.5      3.804      5.038
REMARK  Name = 
REMARK  3 active torsions:
REMARK  status: ('A' for Active; 'I' for Inactive)
REMARK    1  A    between atoms: C_2  and  C_3
REMARK    2  A    between atoms: C_3  and  C_4
REMARK    3  A    between atoms: C_4  and  C_6
REMARK                            x       y       z     vdW  Elec       q    Type
REMARK                         _______ _______ _______ _____ _____    ______ ____
ROOT
ATOM      1  C   UNL     1       3.977   3.849  18.719  0.00  0.00    +0.000 A 
ATOM      2  C   UNL     1       3.514   3.148  17.597  0.00  0.00    +0.000 A 
ATOM      3  C   UNL     1       2.401   2.311  17.707  0.00  0.00    +0.000 A 
ATOM      4  C   UNL     1       1.747   2.169  18.930  0.00  0.00    +0.000 A 
ATOM      5  C   UNL     1       2.208   2.864  20.047  0.00  0.00    +0.000 A 
ATOM      6 CL   UNL     1       1.401   2.687  21.555  0.00  0.00    +0.000 Cl
ATOM      7  C   UNL     1       3.316   3.702  19.948  0.00  0.00    +0.000 A 
ENDROOT
BRANCH   1   8
ATOM      8  C   UNL     1       5.156   4.761  18.662  0.00  0.00    +0.000 C 
ATOM      9  O   UNL     1       6.131   4.496  19.362  0.00  0.00    +0.000 OA
BRANCH   8  10
ATOM     10  C   UNL     1       5.100   5.963  17.745  0.00  0.00    +0.000 C 
BRANCH  10  12
ATOM     11  N   UNL     1       7.349   6.020  16.109  0.00  0.00    +0.000 NA
ATOM     12  C   UNL     1       6.329   5.994  16.851  0.00  0.00    +0.000 C 
ENDBRANCH  10  12
ENDBRANCH   8  10
ENDBRANCH   1   8
TORSDOF 3
ENDMDL
MODEL 6
REMARK VINA RESULT:      -5.4      4.302      5.545
REMARK  Name = 
REMARK  3 active torsions:
REMARK  status: ('A' for Active; 'I' for Inactive)
REMARK    1  A    between atoms: C_2  and  C_3
REMARK    2  A    between atoms: C_3  and  C_4
REMARK    3  A    between atoms: C_4  and  C_6
REMARK                            x       y       z     vdW  Elec       q    Type
REMARK                         _______ _______ _______ _____ _____    ______ ____
ROOT
ATOM      1  C   UNL     1       5.983   4.642  18.014  0.00  0.00    +0.000 A 
ATOM      2  C   UNL     1       5.415   4.179  16.819  0.00  0.00    +0.000 A 
ATOM      3  C   UNL     1       4.038   3.955  16.741  0.00  0.00    +0.000 A 
ATOM      4  C   UNL     1       3.225   4.188  17.849  0.00  0.00    +0.000 A 
ATOM      5  C   UNL     1       3.789   4.646  19.039  0.00  0.00    +0.000 A 
ATOM      6 CL   UNL     1       2.785   4.932  20.404  0.00  0.00    +0.000 Cl
ATOM      7  C   UNL     1       5.160   4.873  19.127  0.00  0.00    +0.000 A 
ENDROOT
BRANCH   1   8
ATOM      8  C   UNL     1       7.444   4.904  18.156  0.00  0.00    +0.000 C 
ATOM      9  O   UNL     1       8.231   4.119  17.633  0.00  0.00    +0.000 OA
BRANCH   8  10
ATOM     10  C   UNL     1       7.890   6.125  18.932  0.00  0.00    +0.000 C 
BRANCH  10  12
ATOM     11  N   UNL     1       7.744   8.385  17.317  0.00  0.00    +0.000 NA
ATOM     12  C   UNL     1       7.811   7.360  18.049  0.00  0.00    +0.000 C 
ENDBRANCH  10  12
ENDBRANCH   8  10
ENDBRANCH   1   8
TORSDOF 3
ENDMDL
MODEL 7
REMARK VINA RESULT:      -5.4      2.347      2.927
REMARK  Name = 
REMARK  3 active torsions:
REMARK  status: ('A' for Active; 'I' for Inactive)
REMARK    1  A    between atoms: C_2  and  C_3
REMARK    2  A    between atoms: C_3  and  C_4
REMARK    3  A    between atoms: C_4  and  C_6
REMARK                            x       y       z     vdW  Elec       q    Type
REMARK                         _______ _______ _______ _____ _____    ______ ____
ROOT
ATOM      1  C   UNL     1       3.508   4.369  17.307  0.00  0.00    +0.000 A 
ATOM      2  C   UNL     1       3.347   5.665  17.816  0.00  0.00    +0.000 A 
ATOM      3  C   UNL     1       4.230   6.679  17.438  0.00  0.00    +0.000 A 
ATOM      4  C   UNL     1       5.276   6.407  16.557  0.00  0.00    +0.000 A 
ATOM      5  C   UNL     1       5.440   5.118  16.053  0.00  0.00    +0.000 A 
ATOM      6 CL   UNL     1       6.730   4.783  14.968  0.00  0.00    +0.000 Cl
ATOM      7  C   UNL     1       4.563   4.100  16.422  0.00  0.00    +0.000 A 
ENDROOT
BRANCH   1   8
ATOM      8  C   UNL     1       2.594   3.248  17.669  0.00  0.00    +0.000 C 
ATOM      9  O   UNL     1       1.383   3.459  17.662  0.00  0.00    +0.000 OA
BRANCH   8  10
ATOM     10  C   UNL     1       3.196   1.905  18.021  0.00  0.00    +0.000 C 
BRANCH  10  12
ATOM     11  N   UNL     1       4.736   2.125  20.326  0.00  0.00    +0.000 NA
ATOM     12  C   UNL     1       4.037   2.025  19.280  0.00  0.00    +0.000 C 
ENDBRANCH  10  12
ENDBRANCH   8  10
ENDBRANCH   1   8
TORSDOF 3
ENDMDL
MODEL 8
REMARK VINA RESULT:      -5.4      1.618      2.756
REMARK  Name = 
REMARK  3 active torsions:
REMARK  status: ('A' for Active; 'I' for Inactive)
REMARK    1  A    between atoms: C_2  and  C_3
REMARK    2  A    between atoms: C_3  and  C_4
REMARK    3  A    between atoms: C_4  and  C_6
REMARK                            x       y       z     vdW  Elec       q    Type
REMARK                         _______ _______ _______ _____ _____    ______ ____
ROOT
ATOM      1  C   UNL     1       1.868   4.177  19.020  0.00  0.00    +0.000 A 
ATOM      2  C   UNL     1       1.467   4.539  20.313  0.00  0.00    +0.000 A 
ATOM      3  C   UNL     1       1.637   5.854  20.755  0.00  0.00    +0.000 A 
ATOM      4  C   UNL     1       2.206   6.808  19.913  0.00  0.00    +0.000 A 
ATOM      5  C   UNL     1       2.608   6.449  18.627  0.00  0.00    +0.000 A 
ATOM      6 CL   UNL     1       3.310   7.626  17.591  0.00  0.00    +0.000 Cl
ATOM      7  C   UNL     1       2.441   5.141  18.177  0.00  0.00    +0.000 A 
ENDROOT
BRANCH   1   8
ATOM      8  C   UNL     1       1.706   2.791  18.491  0.00  0.00    +0.000 C 
ATOM      9  O   UNL     1       0.568   2.341  18.375  0.00  0.00    +0.000 OA
BRANCH   8  10
ATOM     10  C   UNL     1       2.946   2.008  18.117  0.00  0.00    +0.000 C 
BRANCH  10  12
ATOM     11  N   UNL     1       4.780   2.071  20.207  0.00  0.00    +0.000 NA
ATOM     12  C   UNL     1       3.948   2.043  19.259  0.00  0.00    +0.000 C 
ENDBRANCH  10  12
ENDBRANCH   8  10
ENDBRANCH   1   8
TORSDOF 3
ENDMDL
MODEL 9
REMARK VINA RESULT:      -5.4      3.928      5.370
REMARK  Name = 
REMARK  3 active torsions:
REMARK  status: ('A' for Active; 'I' for Inactive)
REMARK    1  A    between atoms: C_2  and  C_3
REMARK    2  A    between atoms: C_3  and  C_4
REMARK    3  A    between atoms: C_4  and  C_6
REMARK                            x       y       z     vdW  Elec       q    Type
REMARK                         _______ _______ _______ _____ _____    ______ ____
ROOT
ATOM      1  C   UNL     1       4.542   4.582  17.063  0.00  0.00    +0.000 A 
ATOM      2  C   UNL     1       3.570   3.580  17.193  0.00  0.00    +0.000 A 
ATOM      3  C   UNL     1       2.308   3.894  17.703  0.00  0.00    +0.000 A 
ATOM      4  C   UNL     1       2.011   5.201  18.085  0.00  0.00    +0.000 A 
ATOM      5  C   UNL     1       2.977   6.198  17.959  0.00  0.00    +0.000 A 
ATOM      6 CL   UNL     1       2.609   7.809  18.431  0.00  0.00    +0.000 Cl
ATOM      7  C   UNL     1       4.238   5.895  17.450  0.00  0.00    +0.000 A 
ENDROOT
BRANCH   1   8
ATOM      8  C   UNL     1       5.905   4.309  16.520  0.00  0.00    +0.000 C 
ATOM      9  O   UNL     1       6.867   4.426  17.275  0.00  0.00    +0.000 OA
BRANCH   8  10
ATOM     10  C   UNL     1       6.039   3.895  15.071  0.00  0.00    +0.000 C 
BRANCH  10  12
ATOM     11  N   UNL     1       7.875   5.536  13.778  0.00  0.00    +0.000 NA
ATOM     12  C   UNL     1       7.042   4.791  14.364  0.00  0.00    +0.000 C 
ENDBRANCH  10  12
ENDBRANCH   8  10
ENDBRANCH   1   8
TORSDOF 3
ENDMDL
