MODEL 1
REMARK VINA RESULT:      -5.8      0.000      0.000
REMARK  Name = 
REMARK  11 active torsions:
REMARK  status: ('A' for Active; 'I' for Inactive)
REMARK    1  A    between atoms: C_1  and  C_2
REMARK    2  A    between atoms: C_2  and  C_3
REMARK    3  A    between atoms: C_2  and  C_4
REMARK    4  A    between atoms: C_4  and  C_5
REMARK    5  A    between atoms: C_5  and  C_6
REMARK    6  A    between atoms: C_6  and  O_8
REMARK    7  A    between atoms: C_10  and  C_11
REMARK    8  A    between atoms: C_11  and  O_13
REMARK    9  A    between atoms: C_14  and  C_15
REMARK   10  A    between atoms: C_22  and  C_24
REMARK   11  A    between atoms: C_27  and  C_28
REMARK                            x       y       z     vdW  Elec       q    Type
REMARK                         _______ _______ _______ _____ _____    ______ ____
ROOT
ATOM      1  C   UNL     1      -0.000  11.524  19.677  0.00  0.00    +0.000 C 
ATOM      2  C   UNL     1      -1.356  11.999  20.257  0.00  0.00    +0.000 C 
ATOM      3  C   UNL     1      -1.059  13.242  21.082  0.00  0.00    +0.000 C 
ATOM      4  C   UNL     1       0.186  13.856  20.422  0.00  0.00    +0.000 C 
ATOM      5  N   UNL     1       0.718  12.838  19.481  0.00  0.00    +0.000 N 
ATOM      6  C   UNL     1       1.978  12.880  18.867  0.00  0.00    +0.000 C 
ATOM      7  O   UNL     1       2.381  11.948  18.170  0.00  0.00    +0.000 OA
ENDROOT
BRANCH   4   8
ATOM      8  C   UNL     1       0.103  15.274  19.909  0.00  0.00    +0.000 A 
ATOM      9  C   UNL     1       0.568  16.317  20.735  0.00  0.00    +0.000 A 
ATOM     10  C   UNL     1       0.516  17.650  20.327  0.00  0.00    +0.000 A 
ATOM     11  C   UNL     1      -0.016  17.958  19.078  0.00  0.00    +0.000 A 
ATOM     12  C   UNL     1      -0.486  16.941  18.248  0.00  0.00    +0.000 A 
ATOM     13  C   UNL     1      -0.427  15.603  18.656  0.00  0.00    +0.000 A 
ENDBRANCH   4   8
BRANCH   6  14
ATOM     14  C   UNL     1       2.919  14.017  19.057  0.00  0.00    +0.000 A 
ATOM     15  C   UNL     1       3.618  14.147  20.257  0.00  0.00    +0.000 A 
ATOM     16  C   UNL     1       4.512  15.198  20.457  0.00  0.00    +0.000 A 
ATOM     17  C   UNL     1       4.828  16.066  19.414  0.00  0.00    +0.000 A 
ATOM     18  C   UNL     1       4.195  15.893  18.172  0.00  0.00    +0.000 A 
ATOM     19  C   UNL     1       3.235  14.876  17.995  0.00  0.00    +0.000 A 
BRANCH  17  20
ATOM     20  C   UNL     1       5.902  17.114  19.626  0.00  0.00    +0.000 C 
ATOM     21  F   UNL     1       6.897  16.697  20.465  0.00  0.00    +0.000 F 
ATOM     22  F   UNL     1       6.525  17.453  18.465  0.00  0.00    +0.000 F 
ATOM     23  F   UNL     1       5.433  18.273  20.159  0.00  0.00    +0.000 F 
ENDBRANCH  17  20
ENDBRANCH   6  14
BRANCH   1  24
ATOM     24  C   UNL     1      -0.348  10.702  18.391  0.00  0.00    +0.000 C 
ATOM     25  O   UNL     1      -1.467  10.671  17.887  0.00  0.00    +0.000 OA
BRANCH  24  26
ATOM     26  O   UNL     1       0.623   9.896  17.919  0.00  0.00    +0.000 OA
ATOM     27  H   UNL     1       1.191   9.514  18.634  0.00  0.00    +0.000 HD
ENDBRANCH  24  26
ENDBRANCH   1  24
BRANCH   3  28
ATOM     28  C   UNL     1      -2.279  14.132  21.175  0.00  0.00    +0.000 C 
ATOM     29  O   UNL     1      -2.469  14.972  22.040  0.00  0.00    +0.000 OA
BRANCH  28  30
ATOM     30  O   UNL     1      -3.146  13.968  20.149  0.00  0.00    +0.000 OA
ATOM     31  H   UNL     1      -3.369  14.766  19.636  0.00  0.00    +0.000 HD
ENDBRANCH  28  30
ENDBRANCH   3  28
BRANCH   1  32
ATOM     32  C   UNL     1       0.825  10.665  20.704  0.00  0.00    +0.000 C 
BRANCH  32  34
ATOM     33  C   UNL     1       1.048   8.139  21.206  0.00  0.00    +0.000 C 
ATOM     34  C   UNL     1       0.198   9.399  21.344  0.00  0.00    +0.000 C 
ATOM     35  C   UNL     1      -0.048   9.637  22.843  0.00  0.00    +0.000 C 
ENDBRANCH  32  34
ENDBRANCH   1  32
TORSDOF 9
ENDMDL
MODEL 2
REMARK VINA RESULT:      -5.7      0.266      1.093
REMARK  Name = 
REMARK  11 active torsions:
REMARK  status: ('A' for Active; 'I' for Inactive)
REMARK    1  A    between atoms: C_1  and  C_2
REMARK    2  A    between atoms: C_2  and  C_3
REMARK    3  A    between atoms: C_2  and  C_4
REMARK    4  A    between atoms: C_4  and  C_5
REMARK    5  A    between atoms: C_5  and  C_6
REMARK    6  A    between atoms: C_6  and  O_8
REMARK    7  A    between atoms: C_10  and  C_11
REMARK    8  A    between atoms: C_11  and  O_13
REMARK    9  A    between atoms: C_14  and  C_15
REMARK   10  A    between atoms: C_22  and  C_24
REMARK   11  A    between atoms: C_27  and  C_28
REMARK                            x       y       z     vdW  Elec       q    Type
REMARK                         _______ _______ _______ _____ _____    ______ ____
ROOT
ATOM      1  C   UNL     1      -0.123  11.789  19.730  0.00  0.00    +0.000 C 
ATOM      2  C   UNL     1      -1.457  12.321  20.311  0.00  0.00    +0.000 C 
ATOM      3  C   UNL     1      -1.107  13.554  21.130  0.00  0.00    +0.000 C 
ATOM      4  C   UNL     1       0.160  14.115  20.463  0.00  0.00    +0.000 C 
ATOM      5  N   UNL     1       0.648  13.071  19.526  0.00  0.00    +0.000 N 
ATOM      6  C   UNL     1       1.906  13.058  18.908  0.00  0.00    +0.000 C 
ATOM      7  O   UNL     1       2.269  12.108  18.215  0.00  0.00    +0.000 OA
ENDROOT
BRANCH   4   8
ATOM      8  C   UNL     1       0.133  15.532  19.944  0.00  0.00    +0.000 A 
ATOM      9  C   UNL     1      -0.421  15.772  18.670  0.00  0.00    +0.000 A 
ATOM     10  C   UNL     1      -0.472  17.057  18.128  0.00  0.00    +0.000 A 
ATOM     11  C   UNL     1       0.043  18.124  18.857  0.00  0.00    +0.000 A 
ATOM     12  C   UNL     1       0.600  17.906  20.117  0.00  0.00    +0.000 A 
ATOM     13  C   UNL     1       0.645  16.619  20.663  0.00  0.00    +0.000 A 
ENDBRANCH   4   8
BRANCH   6  14
ATOM     14  C   UNL     1       2.894  14.157  19.090  0.00  0.00    +0.000 A 
ATOM     15  C   UNL     1       3.644  14.230  20.265  0.00  0.00    +0.000 A 
ATOM     16  C   UNL     1       4.581  15.243  20.456  0.00  0.00    +0.000 A 
ATOM     17  C   UNL     1       4.886  16.129  19.425  0.00  0.00    +0.000 A 
ATOM     18  C   UNL     1       4.198  16.013  18.206  0.00  0.00    +0.000 A 
ATOM     19  C   UNL     1       3.197  15.035  18.041  0.00  0.00    +0.000 A 
BRANCH  17  20
ATOM     20  C   UNL     1       6.004  17.134  19.621  0.00  0.00    +0.000 C 
ATOM     21  F   UNL     1       6.656  17.438  18.459  0.00  0.00    +0.000 F 
ATOM     22  F   UNL     1       5.548  18.322  20.104  0.00  0.00    +0.000 F 
ATOM     23  F   UNL     1       6.967  16.715  20.484  0.00  0.00    +0.000 F 
ENDBRANCH  17  20
ENDBRANCH   6  14
BRANCH   1  24
ATOM     24  C   UNL     1      -0.508  10.975  18.449  0.00  0.00    +0.000 C 
ATOM     25  O   UNL     1      -1.615  11.023  17.922  0.00  0.00    +0.000 OA
BRANCH  24  26
ATOM     26  O   UNL     1       0.407  10.089  18.009  0.00  0.00    +0.000 OA
ATOM     27  H   UNL     1       0.007   9.236  17.708  0.00  0.00    +0.000 HD
ENDBRANCH  24  26
ENDBRANCH   1  24
BRANCH   3  28
ATOM     28  C   UNL     1      -2.290  14.494  21.221  0.00  0.00    +0.000 C 
ATOM     29  O   UNL     1      -2.424  15.372  22.058  0.00  0.00    +0.000 OA
BRANCH  28  30
ATOM     30  O   UNL     1      -3.190  14.327  20.225  0.00  0.00    +0.000 OA
ATOM     31  H   UNL     1      -2.831  14.118  19.344  0.00  0.00    +0.000 HD
ENDBRANCH  28  30
ENDBRANCH   3  28
BRANCH   1  32
ATOM     32  C   UNL     1       0.670  10.901  20.759  0.00  0.00    +0.000 C 
BRANCH  32  34
ATOM     33  C   UNL     1       0.795   8.377  21.302  0.00  0.00    +0.000 C 
ATOM     34  C   UNL     1      -0.010   9.669  21.412  0.00  0.00    +0.000 C 
ATOM     35  C   UNL     1      -0.261   9.940  22.905  0.00  0.00    +0.000 C 
ENDBRANCH  32  34
ENDBRANCH   1  32
TORSDOF 9
ENDMDL
MODEL 3
REMARK VINA RESULT:      -5.7      0.238      1.094
REMARK  Name = 
REMARK  11 active torsions:
REMARK  status: ('A' for Active; 'I' for Inactive)
REMARK    1  A    between atoms: C_1  and  C_2
REMARK    2  A    between atoms: C_2  and  C_3
REMARK    3  A    between atoms: C_2  and  C_4
REMARK    4  A    between atoms: C_4  and  C_5
REMARK    5  A    between atoms: C_5  and  C_6
REMARK    6  A    between atoms: C_6  and  O_8
REMARK    7  A    between atoms: C_10  and  C_11
REMARK    8  A    between atoms: C_11  and  O_13
REMARK    9  A    between atoms: C_14  and  C_15
REMARK   10  A    between atoms: C_22  and  C_24
REMARK   11  A    between atoms: C_27  and  C_28
REMARK                            x       y       z     vdW  Elec       q    Type
REMARK                         _______ _______ _______ _____ _____    ______ ____
ROOT
ATOM      1  C   UNL     1      -0.149  11.528  19.714  0.00  0.00    +0.000 C 
ATOM      2  C   UNL     1      -1.479  12.093  20.275  0.00  0.00    +0.000 C 
ATOM      3  C   UNL     1      -1.111  13.314  21.104  0.00  0.00    +0.000 C 
ATOM      4  C   UNL     1       0.181  13.843  20.461  0.00  0.00    +0.000 C 
ATOM      5  N   UNL     1       0.658  12.791  19.529  0.00  0.00    +0.000 N 
ATOM      6  C   UNL     1       1.926  12.748  18.933  0.00  0.00    +0.000 C 
ATOM      7  O   UNL     1       2.276  11.791  18.242  0.00  0.00    +0.000 OA
ENDROOT
BRANCH   4   8
ATOM      8  C   UNL     1       0.200  15.263  19.948  0.00  0.00    +0.000 A 
ATOM      9  C   UNL     1       0.751  16.268  20.768  0.00  0.00    +0.000 A 
ATOM     10  C   UNL     1       0.795  17.601  20.358  0.00  0.00    +0.000 A 
ATOM     11  C   UNL     1       0.276  17.948  19.115  0.00  0.00    +0.000 A 
ATOM     12  C   UNL     1      -0.278  16.968  18.290  0.00  0.00    +0.000 A 
ATOM     13  C   UNL     1      -0.316  15.630  18.699  0.00  0.00    +0.000 A 
ENDBRANCH   4   8
BRANCH   6  14
ATOM     14  C   UNL     1       2.938  13.820  19.136  0.00  0.00    +0.000 A 
ATOM     15  C   UNL     1       3.183  14.746  18.120  0.00  0.00    +0.000 A 
ATOM     16  C   UNL     1       4.119  15.764  18.288  0.00  0.00    +0.000 A 
ATOM     17  C   UNL     1       4.736  15.962  19.521  0.00  0.00    +0.000 A 
ATOM     18  C   UNL     1       4.434  15.088  20.579  0.00  0.00    +0.000 A 
ATOM     19  C   UNL     1       3.543  14.013  20.385  0.00  0.00    +0.000 A 
BRANCH  17  20
ATOM     20  C   UNL     1       5.648  17.159  19.708  0.00  0.00    +0.000 C 
ATOM     21  F   UNL     1       4.989  18.265  20.166  0.00  0.00    +0.000 F 
ATOM     22  F   UNL     1       6.631  16.919  20.617  0.00  0.00    +0.000 F 
ATOM     23  F   UNL     1       6.272  17.550  18.566  0.00  0.00    +0.000 F 
ENDBRANCH  17  20
ENDBRANCH   6  14
BRANCH   1  24
ATOM     24  C   UNL     1      -0.533  10.730  18.423  0.00  0.00    +0.000 C 
ATOM     25  O   UNL     1      -1.646  10.767  17.908  0.00  0.00    +0.000 OA
BRANCH  24  26
ATOM     26  O   UNL     1       0.392   9.867  17.960  0.00  0.00    +0.000 OA
ATOM     27  H   UNL     1       1.097   9.662  18.624  0.00  0.00    +0.000 HD
ENDBRANCH  24  26
ENDBRANCH   1  24
BRANCH   3  28
ATOM     28  C   UNL     1      -2.271  14.284  21.179  0.00  0.00    +0.000 C 
ATOM     29  O   UNL     1      -2.399  15.158  22.021  0.00  0.00    +0.000 OA
BRANCH  28  30
ATOM     30  O   UNL     1      -3.155  14.147  20.164  0.00  0.00    +0.000 OA
ATOM     31  H   UNL     1      -2.826  13.714  19.356  0.00  0.00    +0.000 HD
ENDBRANCH  28  30
ENDBRANCH   3  28
BRANCH   1  32
ATOM     32  C   UNL     1       0.602  10.616  20.753  0.00  0.00    +0.000 C 
BRANCH  32  34
ATOM     33  C   UNL     1       0.601   8.099  21.335  0.00  0.00    +0.000 C 
ATOM     34  C   UNL     1      -0.136   9.432  21.428  0.00  0.00    +0.000 C 
ATOM     35  C   UNL     1      -0.365   9.738  22.918  0.00  0.00    +0.000 C 
ENDBRANCH  32  34
ENDBRANCH   1  32
TORSDOF 9
ENDMDL
MODEL 4
REMARK VINA RESULT:      -5.6      4.355      7.275
REMARK  Name = 
REMARK  11 active torsions:
REMARK  status: ('A' for Active; 'I' for Inactive)
REMARK    1  A    between atoms: C_1  and  C_2
REMARK    2  A    between atoms: C_2  and  C_3
REMARK    3  A    between atoms: C_2  and  C_4
REMARK    4  A    between atoms: C_4  and  C_5
REMARK    5  A    between atoms: C_5  and  C_6
REMARK    6  A    between atoms: C_6  and  O_8
REMARK    7  A    between atoms: C_10  and  C_11
REMARK    8  A    between atoms: C_11  and  O_13
REMARK    9  A    between atoms: C_14  and  C_15
REMARK   10  A    between atoms: C_22  and  C_24
REMARK   11  A    between atoms: C_27  and  C_28
REMARK                            x       y       z     vdW  Elec       q    Type
REMARK                         _______ _______ _______ _____ _____    ______ ____
ROOT
ATOM      1  C   UNL     1      -6.104  11.339  18.985  0.00  0.00    +0.000 C 
ATOM      2  C   UNL     1      -5.436  10.773  17.707  0.00  0.00    +0.000 C 
ATOM      3  C   UNL     1      -4.244  11.670  17.413  0.00  0.00    +0.000 C 
ATOM      4  C   UNL     1      -3.818  12.211  18.787  0.00  0.00    +0.000 C 
ATOM      5  N   UNL     1      -4.908  11.873  19.737  0.00  0.00    +0.000 N 
ATOM      6  C   UNL     1      -5.052  12.397  21.029  0.00  0.00    +0.000 C 
ATOM      7  O   UNL     1      -6.036  12.135  21.721  0.00  0.00    +0.000 OA
ENDROOT
BRANCH   4   8
ATOM      8  C   UNL     1      -2.407  11.953  19.257  0.00  0.00    +0.000 A 
ATOM      9  C   UNL     1      -1.485  13.019  19.238  0.00  0.00    +0.000 A 
ATOM     10  C   UNL     1      -0.164  12.849  19.652  0.00  0.00    +0.000 A 
ATOM     11  C   UNL     1       0.257  11.596  20.087  0.00  0.00    +0.000 A 
ATOM     12  C   UNL     1      -0.639  10.526  20.109  0.00  0.00    +0.000 A 
ATOM     13  C   UNL     1      -1.966  10.700  19.699  0.00  0.00    +0.000 A 
ENDBRANCH   4   8
BRANCH   6  14
ATOM     14  C   UNL     1      -4.060  13.335  21.623  0.00  0.00    +0.000 A 
ATOM     15  C   UNL     1      -4.137  14.699  21.339  0.00  0.00    +0.000 A 
ATOM     16  C   UNL     1      -3.226  15.599  21.888  0.00  0.00    +0.000 A 
ATOM     17  C   UNL     1      -2.300  15.177  22.839  0.00  0.00    +0.000 A 
ATOM     18  C   UNL     1      -2.268  13.818  23.198  0.00  0.00    +0.000 A 
ATOM     19  C   UNL     1      -3.140  12.897  22.585  0.00  0.00    +0.000 A 
BRANCH  17  20
ATOM     20  C   UNL     1      -1.413  16.204  23.515  0.00  0.00    +0.000 C 
ATOM     21  F   UNL     1      -0.218  15.687  23.929  0.00  0.00    +0.000 F 
ATOM     22  F   UNL     1      -1.095  17.234  22.685  0.00  0.00    +0.000 F 
ATOM     23  F   UNL     1      -1.974  16.763  24.619  0.00  0.00    +0.000 F 
ENDBRANCH  17  20
ENDBRANCH   6  14
BRANCH   1  24
ATOM     24  C   UNL     1      -6.877  10.140  19.632  0.00  0.00    +0.000 C 
ATOM     25  O   UNL     1      -6.660   8.965  19.355  0.00  0.00    +0.000 OA
BRANCH  24  26
ATOM     26  O   UNL     1      -7.915  10.462  20.429  0.00  0.00    +0.000 OA
ATOM     27  H   UNL     1      -8.384   9.670  20.792  0.00  0.00    +0.000 HD
ENDBRANCH  24  26
ENDBRANCH   1  24
BRANCH   3  28
ATOM     28  C   UNL     1      -3.187  10.921  16.629  0.00  0.00    +0.000 C 
ATOM     29  O   UNL     1      -3.099   9.706  16.556  0.00  0.00    +0.000 OA
BRANCH  28  30
ATOM     30  O   UNL     1      -2.355  11.731  15.935  0.00  0.00    +0.000 OA
ATOM     31  H   UNL     1      -1.406  11.514  15.971  0.00  0.00    +0.000 HD
ENDBRANCH  28  30
ENDBRANCH   3  28
BRANCH   1  32
ATOM     32  C   UNL     1      -7.067  12.545  18.678  0.00  0.00    +0.000 C 
BRANCH  32  34
ATOM     33  C   UNL     1      -6.997  14.146  16.651  0.00  0.00    +0.000 C 
ATOM     34  C   UNL     1      -6.505  13.854  18.066  0.00  0.00    +0.000 C 
ATOM     35  C   UNL     1      -6.887  15.052  18.951  0.00  0.00    +0.000 C 
ENDBRANCH  32  34
ENDBRANCH   1  32
TORSDOF 9
ENDMDL
MODEL 5
REMARK VINA RESULT:      -5.6      4.548      7.122
REMARK  Name = 
REMARK  11 active torsions:
REMARK  status: ('A' for Active; 'I' for Inactive)
REMARK    1  A    between atoms: C_1  and  C_2
REMARK    2  A    between atoms: C_2  and  C_3
REMARK    3  A    between atoms: C_2  and  C_4
REMARK    4  A    between atoms: C_4  and  C_5
REMARK    5  A    between atoms: C_5  and  C_6
REMARK    6  A    between atoms: C_6  and  O_8
REMARK    7  A    between atoms: C_10  and  C_11
REMARK    8  A    between atoms: C_11  and  O_13
REMARK    9  A    between atoms: C_14  and  C_15
REMARK   10  A    between atoms: C_22  and  C_24
REMARK   11  A    between atoms: C_27  and  C_28
REMARK                            x       y       z     vdW  Elec       q    Type
REMARK                         _______ _______ _______ _____ _____    ______ ____
ROOT
ATOM      1  C   UNL     1       4.004  15.557  19.687  0.00  0.00    +0.000 C 
ATOM      2  C   UNL     1       3.777  15.422  21.213  0.00  0.00    +0.000 C 
ATOM      3  C   UNL     1       4.748  14.359  21.701  0.00  0.00    +0.000 C 
ATOM      4  C   UNL     1       5.928  14.433  20.718  0.00  0.00    +0.000 C 
ATOM      5  N   UNL     1       5.484  15.275  19.579  0.00  0.00    +0.000 N 
ATOM      6  C   UNL     1       6.147  15.393  18.349  0.00  0.00    +0.000 C 
ATOM      7  O   UNL     1       5.663  16.042  17.421  0.00  0.00    +0.000 OA
ENDROOT
BRANCH   4   8
ATOM      8  C   UNL     1       7.306  14.709  21.268  0.00  0.00    +0.000 A 
ATOM      9  C   UNL     1       8.186  13.624  21.456  0.00  0.00    +0.000 A 
ATOM     10  C   UNL     1       9.472  13.807  21.965  0.00  0.00    +0.000 A 
ATOM     11  C   UNL     1       9.893  15.089  22.305  0.00  0.00    +0.000 A 
ATOM     12  C   UNL     1       9.036  16.175  22.131  0.00  0.00    +0.000 A 
ATOM     13  C   UNL     1       7.749  15.992  21.613  0.00  0.00    +0.000 A 
ENDBRANCH   4   8
BRANCH   6  14
ATOM     14  C   UNL     1       7.437  14.706  18.071  0.00  0.00    +0.000 A 
ATOM     15  C   UNL     1       8.641  15.386  18.258  0.00  0.00    +0.000 A 
ATOM     16  C   UNL     1       9.863  14.764  18.012  0.00  0.00    +0.000 A 
ATOM     17  C   UNL     1       9.917  13.406  17.705  0.00  0.00    +0.000 A 
ATOM     18  C   UNL     1       8.714  12.687  17.598  0.00  0.00    +0.000 A 
ATOM     19  C   UNL     1       7.476  13.337  17.771  0.00  0.00    +0.000 A 
BRANCH  17  20
ATOM     20  C   UNL     1      11.267  12.730  17.575  0.00  0.00    +0.000 C 
ATOM     21  F   UNL     1      12.100  12.998  18.625  0.00  0.00    +0.000 F 
ATOM     22  F   UNL     1      11.161  11.374  17.532  0.00  0.00    +0.000 F 
ATOM     23  F   UNL     1      11.953  13.095  16.460  0.00  0.00    +0.000 F 
ENDBRANCH  17  20
ENDBRANCH   6  14
BRANCH   1  24
ATOM     24  C   UNL     1       3.522  16.997  19.306  0.00  0.00    +0.000 C 
ATOM     25  O   UNL     1       3.447  17.922  20.108  0.00  0.00    +0.000 OA
BRANCH  24  26
ATOM     26  O   UNL     1       3.048  17.154  18.054  0.00  0.00    +0.000 OA
ATOM     27  H   UNL     1       3.190  18.066  17.698  0.00  0.00    +0.000 HD
ENDBRANCH  24  26
ENDBRANCH   1  24
BRANCH   3  28
ATOM     28  C   UNL     1       5.079  14.561  23.164  0.00  0.00    +0.000 C 
ATOM     29  O   UNL     1       5.068  15.636  23.742  0.00  0.00    +0.000 OA
BRANCH  28  30
ATOM     30  O   UNL     1       5.332  13.407  23.824  0.00  0.00    +0.000 OA
ATOM     31  H   UNL     1       4.575  12.810  23.962  0.00  0.00    +0.000 HD
ENDBRANCH  28  30
ENDBRANCH   3  28
BRANCH   1  32
ATOM     32  C   UNL     1       3.237  14.457  18.865  0.00  0.00    +0.000 C 
BRANCH  32  34
ATOM     33  C   UNL     1       0.659  14.614  18.960  0.00  0.00    +0.000 C 
ATOM     34  C   UNL     1       1.911  13.862  19.406  0.00  0.00    +0.000 C 
ATOM     35  C   UNL     1       1.767  12.400  18.950  0.00  0.00    +0.000 C 
ENDBRANCH  32  34
ENDBRANCH   1  32
TORSDOF 9
ENDMDL
MODEL 6
REMARK VINA RESULT:      -5.6      4.495      7.000
REMARK  Name = 
REMARK  11 active torsions:
REMARK  status: ('A' for Active; 'I' for Inactive)
REMARK    1  A    between atoms: C_1  and  C_2
REMARK    2  A    between atoms: C_2  and  C_3
REMARK    3  A    between atoms: C_2  and  C_4
REMARK    4  A    between atoms: C_4  and  C_5
REMARK    5  A    between atoms: C_5  and  C_6
REMARK    6  A    between atoms: C_6  and  O_8
REMARK    7  A    between atoms: C_10  and  C_11
REMARK    8  A    between atoms: C_11  and  O_13
REMARK    9  A    between atoms: C_14  and  C_15
REMARK   10  A    between atoms: C_22  and  C_24
REMARK   11  A    between atoms: C_27  and  C_28
REMARK                            x       y       z     vdW  Elec       q    Type
REMARK                         _______ _______ _______ _____ _____    ______ ____
ROOT
ATOM      1  C   UNL     1       3.891  15.626  19.751  0.00  0.00    +0.000 C 
ATOM      2  C   UNL     1       3.572  15.468  21.259  0.00  0.00    +0.000 C 
ATOM      3  C   UNL     1       4.516  14.400  21.788  0.00  0.00    +0.000 C 
ATOM      4  C   UNL     1       5.753  14.491  20.880  0.00  0.00    +0.000 C 
ATOM      5  N   UNL     1       5.375  15.350  19.729  0.00  0.00    +0.000 N 
ATOM      6  C   UNL     1       6.110  15.487  18.544  0.00  0.00    +0.000 C 
ATOM      7  O   UNL     1       5.682  16.150  17.598  0.00  0.00    +0.000 OA
ENDROOT
BRANCH   4   8
ATOM      8  C   UNL     1       7.094  14.762  21.517  0.00  0.00    +0.000 A 
ATOM      9  C   UNL     1       7.415  16.088  21.872  0.00  0.00    +0.000 A 
ATOM     10  C   UNL     1       8.640  16.410  22.458  0.00  0.00    +0.000 A 
ATOM     11  C   UNL     1       9.569  15.400  22.690  0.00  0.00    +0.000 A 
ATOM     12  C   UNL     1       9.272  14.083  22.341  0.00  0.00    +0.000 A 
ATOM     13  C   UNL     1       8.041  13.760  21.759  0.00  0.00    +0.000 A 
ENDBRANCH   4   8
BRANCH   6  14
ATOM     14  C   UNL     1       7.418  14.808  18.334  0.00  0.00    +0.000 A 
ATOM     15  C   UNL     1       7.452  13.509  17.823  0.00  0.00    +0.000 A 
ATOM     16  C   UNL     1       8.663  12.854  17.609  0.00  0.00    +0.000 A 
ATOM     17  C   UNL     1       9.871  13.528  17.774  0.00  0.00    +0.000 A 
ATOM     18  C   UNL     1       9.849  14.865  18.206  0.00  0.00    +0.000 A 
ATOM     19  C   UNL     1       8.625  15.501  18.495  0.00  0.00    +0.000 A 
BRANCH  17  20
ATOM     20  C   UNL     1      11.164  12.828  17.405  0.00  0.00    +0.000 C 
ATOM     21  F   UNL     1      11.059  11.466  17.432  0.00  0.00    +0.000 F 
ATOM     22  F   UNL     1      11.574  13.136  16.145  0.00  0.00    +0.000 F 
ATOM     23  F   UNL     1      12.201  13.132  18.229  0.00  0.00    +0.000 F 
ENDBRANCH  17  20
ENDBRANCH   6  14
BRANCH   1  24
ATOM     24  C   UNL     1       3.427  17.070  19.364  0.00  0.00    +0.000 C 
ATOM     25  O   UNL     1       3.339  17.993  20.167  0.00  0.00    +0.000 OA
BRANCH  24  26
ATOM     26  O   UNL     1       2.984  17.234  18.101  0.00  0.00    +0.000 OA
ATOM     27  H   UNL     1       2.860  18.184  17.854  0.00  0.00    +0.000 HD
ENDBRANCH  24  26
ENDBRANCH   1  24
BRANCH   3  28
ATOM     28  C   UNL     1       4.757  14.580  23.272  0.00  0.00    +0.000 C 
ATOM     29  O   UNL     1       4.610  15.627  23.883  0.00  0.00    +0.000 OA
BRANCH  28  30
ATOM     30  O   UNL     1       5.096  13.435  23.907  0.00  0.00    +0.000 OA
ATOM     31  H   UNL     1       5.063  13.451  24.881  0.00  0.00    +0.000 HD
ENDBRANCH  28  30
ENDBRANCH   3  28
BRANCH   1  32
ATOM     32  C   UNL     1       3.178  14.536  18.868  0.00  0.00    +0.000 C 
BRANCH  32  34
ATOM     33  C   UNL     1       0.597  14.621  18.958  0.00  0.00    +0.000 C 
ATOM     34  C   UNL     1       1.865  13.872  19.358  0.00  0.00    +0.000 C 
ATOM     35  C   UNL     1       1.761  12.443  18.800  0.00  0.00    +0.000 C 
ENDBRANCH  32  34
ENDBRANCH   1  32
TORSDOF 9
ENDMDL
MODEL 7
REMARK VINA RESULT:      -5.6      0.538      1.522
REMARK  Name = 
REMARK  11 active torsions:
REMARK  status: ('A' for Active; 'I' for Inactive)
REMARK    1  A    between atoms: C_1  and  C_2
REMARK    2  A    between atoms: C_2  and  C_3
REMARK    3  A    between atoms: C_2  and  C_4
REMARK    4  A    between atoms: C_4  and  C_5
REMARK    5  A    between atoms: C_5  and  C_6
REMARK    6  A    between atoms: C_6  and  O_8
REMARK    7  A    between atoms: C_10  and  C_11
REMARK    8  A    between atoms: C_11  and  O_13
REMARK    9  A    between atoms: C_14  and  C_15
REMARK   10  A    between atoms: C_22  and  C_24
REMARK   11  A    between atoms: C_27  and  C_28
REMARK                            x       y       z     vdW  Elec       q    Type
REMARK                         _______ _______ _______ _____ _____    ______ ____
ROOT
ATOM      1  C   UNL     1      -0.271  11.890  19.698  0.00  0.00    +0.000 C 
ATOM      2  C   UNL     1      -1.567  12.529  20.257  0.00  0.00    +0.000 C 
ATOM      3  C   UNL     1      -1.131  13.724  21.091  0.00  0.00    +0.000 C 
ATOM      4  C   UNL     1       0.191  14.180  20.453  0.00  0.00    +0.000 C 
ATOM      5  N   UNL     1       0.609  13.104  19.519  0.00  0.00    +0.000 N 
ATOM      6  C   UNL     1       1.874  12.989  18.926  0.00  0.00    +0.000 C 
ATOM      7  O   UNL     1       2.170  12.015  18.233  0.00  0.00    +0.000 OA
ENDROOT
BRANCH   4   8
ATOM      8  C   UNL     1       0.294  15.597  19.944  0.00  0.00    +0.000 A 
ATOM      9  C   UNL     1      -0.255  15.901  18.682  0.00  0.00    +0.000 A 
ATOM     10  C   UNL     1      -0.189  17.189  18.149  0.00  0.00    +0.000 A 
ATOM     11  C   UNL     1       0.439  18.195  18.876  0.00  0.00    +0.000 A 
ATOM     12  C   UNL     1       0.993  17.913  20.125  0.00  0.00    +0.000 A 
ATOM     13  C   UNL     1       0.921  16.623  20.662  0.00  0.00    +0.000 A 
ENDBRANCH   4   8
BRANCH   6  14
ATOM     14  C   UNL     1       2.946  14.000  19.135  0.00  0.00    +0.000 A 
ATOM     15  C   UNL     1       3.214  14.945  18.143  0.00  0.00    +0.000 A 
ATOM     16  C   UNL     1       4.206  15.907  18.318  0.00  0.00    +0.000 A 
ATOM     17  C   UNL     1       4.864  16.032  19.539  0.00  0.00    +0.000 A 
ATOM     18  C   UNL     1       4.543  15.140  20.577  0.00  0.00    +0.000 A 
ATOM     19  C   UNL     1       3.593  14.120  20.373  0.00  0.00    +0.000 A 
BRANCH  17  20
ATOM     20  C   UNL     1       5.842  17.173  19.739  0.00  0.00    +0.000 C 
ATOM     21  F   UNL     1       6.491  17.525  18.589  0.00  0.00    +0.000 F 
ATOM     22  F   UNL     1       5.227  18.307  20.171  0.00  0.00    +0.000 F 
ATOM     23  F   UNL     1       6.819  16.899  20.643  0.00  0.00    +0.000 F 
ENDBRANCH  17  20
ENDBRANCH   6  14
BRANCH   1  24
ATOM     24  C   UNL     1      -0.697  11.119  18.403  0.00  0.00    +0.000 C 
ATOM     25  O   UNL     1      -0.381   9.957  18.170  0.00  0.00    +0.000 OA
BRANCH  24  26
ATOM     26  O   UNL     1      -1.330  11.845  17.460  0.00  0.00    +0.000 OA
ATOM     27  H   UNL     1      -1.012  12.780  17.413  0.00  0.00    +0.000 HD
ENDBRANCH  24  26
ENDBRANCH   1  24
BRANCH   3  28
ATOM     28  C   UNL     1      -2.233  14.760  21.165  0.00  0.00    +0.000 C 
ATOM     29  O   UNL     1      -2.289  15.665  21.982  0.00  0.00    +0.000 OA
BRANCH  28  30
ATOM     30  O   UNL     1      -3.151  14.643  20.179  0.00  0.00    +0.000 OA
ATOM     31  H   UNL     1      -4.004  15.092  20.322  0.00  0.00    +0.000 HD
ENDBRANCH  28  30
ENDBRANCH   3  28
BRANCH   1  32
ATOM     32  C   UNL     1       0.423  10.933  20.735  0.00  0.00    +0.000 C 
BRANCH  32  34
ATOM     33  C   UNL     1       0.141   8.477  21.489  0.00  0.00    +0.000 C 
ATOM     34  C   UNL     1      -0.418   9.896  21.525  0.00  0.00    +0.000 C 
ATOM     35  C   UNL     1      -0.524  10.322  22.999  0.00  0.00    +0.000 C 
ENDBRANCH  32  34
ENDBRANCH   1  32
TORSDOF 9
ENDMDL
MODEL 8
REMARK VINA RESULT:      -5.5      4.537      7.088
REMARK  Name = 
REMARK  11 active torsions:
REMARK  status: ('A' for Active; 'I' for Inactive)
REMARK    1  A    between atoms: C_1  and  C_2
REMARK    2  A    between atoms: C_2  and  C_3
REMARK    3  A    between atoms: C_2  and  C_4
REMARK    4  A    between atoms: C_4  and  C_5
REMARK    5  A    between atoms: C_5  and  C_6
REMARK    6  A    between atoms: C_6  and  O_8
REMARK    7  A    between atoms: C_10  and  C_11
REMARK    8  A    between atoms: C_11  and  O_13
REMARK    9  A    between atoms: C_14  and  C_15
REMARK   10  A    between atoms: C_22  and  C_24
REMARK   11  A    between atoms: C_27  and  C_28
REMARK                            x       y       z     vdW  Elec       q    Type
REMARK                         _______ _______ _______ _____ _____    ______ ____
ROOT
ATOM      1  C   UNL     1       3.888  15.797  20.029  0.00  0.00    +0.000 C 
ATOM      2  C   UNL     1       3.648  15.648  21.552  0.00  0.00    +0.000 C 
ATOM      3  C   UNL     1       4.604  14.568  22.034  0.00  0.00    +0.000 C 
ATOM      4  C   UNL     1       5.791  14.639  21.060  0.00  0.00    +0.000 C 
ATOM      5  N   UNL     1       5.365  15.500  19.928  0.00  0.00    +0.000 N 
ATOM      6  C   UNL     1       6.037  15.623  18.704  0.00  0.00    +0.000 C 
ATOM      7  O   UNL     1       5.567  16.289  17.780  0.00  0.00    +0.000 OA
ENDROOT
BRANCH   4   8
ATOM      8  C   UNL     1       7.169  14.893  21.622  0.00  0.00    +0.000 A 
ATOM      9  C   UNL     1       8.038  13.796  21.796  0.00  0.00    +0.000 A 
ATOM     10  C   UNL     1       9.322  13.959  22.315  0.00  0.00    +0.000 A 
ATOM     11  C   UNL     1       9.753  15.231  22.679  0.00  0.00    +0.000 A 
ATOM     12  C   UNL     1       8.907  16.328  22.519  0.00  0.00    +0.000 A 
ATOM     13  C   UNL     1       7.621  16.165  21.991  0.00  0.00    +0.000 A 
ENDBRANCH   4   8
BRANCH   6  14
ATOM     14  C   UNL     1       7.322  14.925  18.426  0.00  0.00    +0.000 A 
ATOM     15  C   UNL     1       7.310  13.634  17.895  0.00  0.00    +0.000 A 
ATOM     16  C   UNL     1       8.498  12.961  17.619  0.00  0.00    +0.000 A 
ATOM     17  C   UNL     1       9.724  13.611  17.739  0.00  0.00    +0.000 A 
ATOM     18  C   UNL     1       9.745  14.942  18.191  0.00  0.00    +0.000 A 
ATOM     19  C   UNL     1       8.547  15.595  18.543  0.00  0.00    +0.000 A 
BRANCH  17  20
ATOM     20  C   UNL     1      10.987  12.895  17.303  0.00  0.00    +0.000 C 
ATOM     21  F   UNL     1      12.055  13.158  18.113  0.00  0.00    +0.000 F 
ATOM     22  F   UNL     1      10.842  11.542  17.320  0.00  0.00    +0.000 F 
ATOM     23  F   UNL     1      11.390  13.219  16.046  0.00  0.00    +0.000 F 
ENDBRANCH  17  20
ENDBRANCH   6  14
BRANCH   1  24
ATOM     24  C   UNL     1       3.424  17.247  19.661  0.00  0.00    +0.000 C 
ATOM     25  O   UNL     1       2.640  17.499  18.752  0.00  0.00    +0.000 OA
BRANCH  24  26
ATOM     26  O   UNL     1       4.041  18.252  20.314  0.00  0.00    +0.000 OA
ATOM     27  H   UNL     1       4.353  18.971  19.710  0.00  0.00    +0.000 HD
ENDBRANCH  24  26
ENDBRANCH   1  24
BRANCH   3  28
ATOM     28  C   UNL     1       4.928  14.749  23.501  0.00  0.00    +0.000 C 
ATOM     29  O   UNL     1       4.929  15.818  24.091  0.00  0.00    +0.000 OA
BRANCH  28  30
ATOM     30  O   UNL     1       5.158  13.585  24.151  0.00  0.00    +0.000 OA
ATOM     31  H   UNL     1       4.837  13.528  25.069  0.00  0.00    +0.000 HD
ENDBRANCH  28  30
ENDBRANCH   3  28
BRANCH   1  32
ATOM     32  C   UNL     1       3.113  14.715  19.189  0.00  0.00    +0.000 C 
BRANCH  32  34
ATOM     33  C   UNL     1       0.537  14.708  18.994  0.00  0.00    +0.000 C 
ATOM     34  C   UNL     1       1.765  14.147  19.704  0.00  0.00    +0.000 C 
ATOM     35  C   UNL     1       1.744  12.618  19.538  0.00  0.00    +0.000 C 
ENDBRANCH  32  34
ENDBRANCH   1  32
TORSDOF 9
ENDMDL
MODEL 9
REMARK VINA RESULT:      -5.4      3.659      6.128
REMARK  Name = 
REMARK  11 active torsions:
REMARK  status: ('A' for Active; 'I' for Inactive)
REMARK    1  A    between atoms: C_1  and  C_2
REMARK    2  A    between atoms: C_2  and  C_3
REMARK    3  A    between atoms: C_2  and  C_4
REMARK    4  A    between atoms: C_4  and  C_5
REMARK    5  A    between atoms: C_5  and  C_6
REMARK    6  A    between atoms: C_6  and  O_8
REMARK    7  A    between atoms: C_10  and  C_11
REMARK    8  A    between atoms: C_11  and  O_13
REMARK    9  A    between atoms: C_14  and  C_15
REMARK   10  A    between atoms: C_22  and  C_24
REMARK   11  A    between atoms: C_27  and  C_28
REMARK                            x       y       z     vdW  Elec       q    Type
REMARK                         _______ _______ _______ _____ _____    ______ ____
ROOT
ATOM      1  C   UNL     1      -3.620  14.022  21.475  0.00  0.00    +0.000 C 
ATOM      2  C   UNL     1      -2.928  15.201  22.206  0.00  0.00    +0.000 C 
ATOM      3  C   UNL     1      -1.529  14.724  22.561  0.00  0.00    +0.000 C 
ATOM      4  C   UNL     1      -1.188  13.684  21.482  0.00  0.00    +0.000 C 
ATOM      5  N   UNL     1      -2.451  13.386  20.761  0.00  0.00    +0.000 N 
ATOM      6  C   UNL     1      -2.650  12.315  19.879  0.00  0.00    +0.000 C 
ATOM      7  O   UNL     1      -3.757  12.084  19.391  0.00  0.00    +0.000 OA
ENDROOT
BRANCH   4   8
ATOM      8  C   UNL     1       0.041  13.904  20.633  0.00  0.00    +0.000 A 
ATOM      9  C   UNL     1       1.239  13.261  21.004  0.00  0.00    +0.000 A 
ATOM     10  C   UNL     1       2.413  13.424  20.268  0.00  0.00    +0.000 A 
ATOM     11  C   UNL     1       2.404  14.248  19.147  0.00  0.00    +0.000 A 
ATOM     12  C   UNL     1       1.229  14.897  18.766  0.00  0.00    +0.000 A 
ATOM     13  C   UNL     1       0.050  14.727  19.501  0.00  0.00    +0.000 A 
ENDBRANCH   4   8
BRANCH   6  14
ATOM     14  C   UNL     1      -1.560  11.367  19.519  0.00  0.00    +0.000 A 
ATOM     15  C   UNL     1      -1.008  11.397  18.238  0.00  0.00    +0.000 A 
ATOM     16  C   UNL     1       0.019  10.526  17.879  0.00  0.00    +0.000 A 
ATOM     17  C   UNL     1       0.609   9.697  18.829  0.00  0.00    +0.000 A 
ATOM     18  C   UNL     1       0.118   9.719  20.146  0.00  0.00    +0.000 A 
ATOM     19  C   UNL     1      -0.970  10.545  20.489  0.00  0.00    +0.000 A 
BRANCH  17  20
ATOM     20  C   UNL     1       1.810   8.860  18.437  0.00  0.00    +0.000 C 
ATOM     21  F   UNL     1       2.868   9.613  18.011  0.00  0.00    +0.000 F 
ATOM     22  F   UNL     1       2.285   8.122  19.477  0.00  0.00    +0.000 F 
ATOM     23  F   UNL     1       1.556   7.983  17.431  0.00  0.00    +0.000 F 
ENDBRANCH  17  20
ENDBRANCH   6  14
BRANCH   1  24
ATOM     24  C   UNL     1      -4.737  14.665  20.586  0.00  0.00    +0.000 C 
ATOM     25  O   UNL     1      -4.776  15.858  20.302  0.00  0.00    +0.000 OA
BRANCH  24  26
ATOM     26  O   UNL     1      -5.762  13.859  20.245  0.00  0.00    +0.000 OA
ATOM     27  H   UNL     1      -6.606  14.090  20.707  0.00  0.00    +0.000 HD
ENDBRANCH  24  26
ENDBRANCH   1  24
BRANCH   3  28
ATOM     28  C   UNL     1      -0.577  15.895  22.690  0.00  0.00    +0.000 C 
ATOM     29  O   UNL     1      -0.713  16.972  22.133  0.00  0.00    +0.000 OA
BRANCH  28  30
ATOM     30  O   UNL     1       0.439  15.671  23.555  0.00  0.00    +0.000 OA
ATOM     31  H   UNL     1       1.146  16.341  23.578  0.00  0.00    +0.000 HD
ENDBRANCH  28  30
ENDBRANCH   3  28
BRANCH   1  32
ATOM     32  C   UNL     1      -4.217  12.963  22.474  0.00  0.00    +0.000 C 
BRANCH  32  34
ATOM     33  C   UNL     1      -6.328  13.706  23.765  0.00  0.00    +0.000 C 
ATOM     34  C   UNL     1      -4.830  13.422  23.822  0.00  0.00    +0.000 C 
ATOM     35  C   UNL     1      -4.597  12.346  24.896  0.00  0.00    +0.000 C 
ENDBRANCH  32  34
ENDBRANCH   1  32
TORSDOF 9
ENDMDL
