MODEL 1
REMARK VINA RESULT:      -6.8      0.000      0.000
REMARK  Name = 
REMARK  1 active torsions:
REMARK  status: ('A' for Active; 'I' for Inactive)
REMARK    1  A    between atoms: C_1  and  N_2
REMARK                            x       y       z     vdW  Elec       q    Type
REMARK                         _______ _______ _______ _____ _____    ______ ____
ROOT
ATOM      1  C   UNL     1       7.703   4.981  12.826  0.00  0.00    +0.000 C 
ATOM      2  N   UNL     1       7.196   4.510  14.114  0.00  0.00    +0.000 NA
ATOM      3  C   UNL     1       5.751   4.203  14.003  0.00  0.00    +0.000 C 
ATOM      4  C   UNL     1       5.097   3.829  15.353  0.00  0.00    +0.000 C 
ATOM      5  N   UNL     1       5.352   4.897  16.324  0.00  0.00    +0.000 N 
ATOM      6  C   UNL     1       4.543   4.910  17.445  0.00  0.00    +0.000 A 
ATOM      7  N   UNL     1       4.970   5.526  18.560  0.00  0.00    +0.000 NA
ATOM      8  C   UNL     1       4.137   5.553  19.615  0.00  0.00    +0.000 A 
ATOM      9  C   UNL     1       2.881   4.990  19.617  0.00  0.00    +0.000 A 
ATOM     10  C   UNL     1       2.509   4.396  18.429  0.00  0.00    +0.000 A 
ATOM     11  N   UNL     1       3.325   4.351  17.357  0.00  0.00    +0.000 NA
ATOM     12  C   UNL     1       1.183   3.704  18.284  0.00  0.00    +0.000 C 
ATOM     13  C   UNL     1       1.097   2.476  19.195  0.00  0.00    +0.000 C 
ATOM     14  N   UNL     1       0.752   2.775  20.593  0.00  0.00    +0.000 NA
ATOM     15  C   UNL     1       1.795   3.511  21.321  0.00  0.00    +0.000 C 
ATOM     16  C   UNL     1       2.017   4.951  20.837  0.00  0.00    +0.000 C 
ATOM     17  C   UNL     1       6.772   5.189  16.520  0.00  0.00    +0.000 C 
ATOM     18  C   UNL     1       7.407   5.547  15.155  0.00  0.00    +0.000 C 
ATOM     19  H   UNL     1       0.599   1.887  21.072  0.00  0.00    +0.000 HD
ENDROOT
TORSDOF 0
ENDMDL
MODEL 2
REMARK VINA RESULT:      -6.7      4.312      7.283
REMARK  Name = 
REMARK  1 active torsions:
REMARK  status: ('A' for Active; 'I' for Inactive)
REMARK    1  A    between atoms: C_1  and  N_2
REMARK                            x       y       z     vdW  Elec       q    Type
REMARK                         _______ _______ _______ _____ _____    ______ ____
ROOT
ATOM      1  C   UNL     1      -0.800  12.142  22.688  0.00  0.00    +0.000 C 
ATOM      2  N   UNL     1      -0.683  10.997  21.786  0.00  0.00    +0.000 NA
ATOM      3  C   UNL     1      -0.457   9.760  22.570  0.00  0.00    +0.000 C 
ATOM      4  C   UNL     1      -0.182   8.518  21.692  0.00  0.00    +0.000 C 
ATOM      5  N   UNL     1       0.939   8.802  20.792  0.00  0.00    +0.000 N 
ATOM      6  C   UNL     1       1.553   7.705  20.215  0.00  0.00    +0.000 A 
ATOM      7  N   UNL     1       2.248   7.862  19.077  0.00  0.00    +0.000 NA
ATOM      8  C   UNL     1       2.865   6.780  18.570  0.00  0.00    +0.000 A 
ATOM      9  C   UNL     1       2.823   5.531  19.146  0.00  0.00    +0.000 A 
ATOM     10  C   UNL     1       2.108   5.458  20.323  0.00  0.00    +0.000 A 
ATOM     11  N   UNL     1       1.477   6.525  20.852  0.00  0.00    +0.000 NA
ATOM     12  C   UNL     1       1.937   4.156  21.053  0.00  0.00    +0.000 C 
ATOM     13  C   UNL     1       1.124   3.158  20.224  0.00  0.00    +0.000 C 
ATOM     14  N   UNL     1       1.898   2.444  19.197  0.00  0.00    +0.000 NA
ATOM     15  C   UNL     1       2.369   3.301  18.101  0.00  0.00    +0.000 C 
ATOM     16  C   UNL     1       3.438   4.327  18.505  0.00  0.00    +0.000 C 
ATOM     17  C   UNL     1       0.733   9.976  19.946  0.00  0.00    +0.000 C 
ATOM     18  C   UNL     1       0.447  11.202  20.845  0.00  0.00    +0.000 C 
ATOM     19  H   UNL     1       1.294   1.725  18.797  0.00  0.00    +0.000 HD
ENDROOT
TORSDOF 0
ENDMDL
MODEL 3
REMARK VINA RESULT:      -6.5      4.035      6.260
REMARK  Name = 
REMARK  1 active torsions:
REMARK  status: ('A' for Active; 'I' for Inactive)
REMARK    1  A    between atoms: C_1  and  N_2
REMARK                            x       y       z     vdW  Elec       q    Type
REMARK                         _______ _______ _______ _____ _____    ______ ____
ROOT
ATOM      1  C   UNL     1       0.714  12.825  20.034  0.00  0.00    +0.000 C 
ATOM      2  N   UNL     1       0.584  11.438  19.590  0.00  0.00    +0.000 NA
ATOM      3  C   UNL     1       0.746  10.524  20.745  0.00  0.00    +0.000 C 
ATOM      4  C   UNL     1       0.762   9.030  20.348  0.00  0.00    +0.000 C 
ATOM      5  N   UNL     1       1.797   8.812  19.333  0.00  0.00    +0.000 N 
ATOM      6  C   UNL     1       2.200   7.503  19.142  0.00  0.00    +0.000 A 
ATOM      7  N   UNL     1       2.771   7.151  17.979  0.00  0.00    +0.000 NA
ATOM      8  C   UNL     1       3.187   5.880  17.848  0.00  0.00    +0.000 A 
ATOM      9  C   UNL     1       3.061   4.925  18.831  0.00  0.00    +0.000 A 
ATOM     10  C   UNL     1       2.484   5.370  20.002  0.00  0.00    +0.000 A 
ATOM     11  N   UNL     1       2.055   6.638  20.160  0.00  0.00    +0.000 NA
ATOM     12  C   UNL     1       2.242   4.438  21.156  0.00  0.00    +0.000 C 
ATOM     13  C   UNL     1       1.222   3.357  20.791  0.00  0.00    +0.000 C 
ATOM     14  N   UNL     1       1.776   2.224  20.034  0.00  0.00    +0.000 NA
ATOM     15  C   UNL     1       2.218   2.572  18.677  0.00  0.00    +0.000 C 
ATOM     16  C   UNL     1       3.444   3.495  18.619  0.00  0.00    +0.000 C 
ATOM     17  C   UNL     1       1.638   9.644  18.141  0.00  0.00    +0.000 C 
ATOM     18  C   UNL     1       1.612  11.132  18.565  0.00  0.00    +0.000 C 
ATOM     19  H   UNL     1       1.047   1.515  19.957  0.00  0.00    +0.000 HD
ENDROOT
TORSDOF 0
ENDMDL
MODEL 4
REMARK VINA RESULT:      -6.4      5.059      7.942
REMARK  Name = 
REMARK  1 active torsions:
REMARK  status: ('A' for Active; 'I' for Inactive)
REMARK    1  A    between atoms: C_1  and  N_2
REMARK                            x       y       z     vdW  Elec       q    Type
REMARK                         _______ _______ _______ _____ _____    ______ ____
ROOT
ATOM      1  C   UNL     1      -1.175  12.873  23.111  0.00  0.00    +0.000 C 
ATOM      2  N   UNL     1      -1.081  11.760  22.168  0.00  0.00    +0.000 NA
ATOM      3  C   UNL     1      -0.570  10.555  22.861  0.00  0.00    +0.000 C 
ATOM      4  C   UNL     1      -0.306   9.364  21.911  0.00  0.00    +0.000 C 
ATOM      5  N   UNL     1       0.593   9.795  20.837  0.00  0.00    +0.000 N 
ATOM      6  C   UNL     1       1.224   8.790  20.127  0.00  0.00    +0.000 A 
ATOM      7  N   UNL     1       1.681   9.043  18.890  0.00  0.00    +0.000 NA
ATOM      8  C   UNL     1       2.325   8.052  18.249  0.00  0.00    +0.000 A 
ATOM      9  C   UNL     1       2.540   6.803  18.784  0.00  0.00    +0.000 A 
ATOM     10  C   UNL     1       2.059   6.630  20.066  0.00  0.00    +0.000 A 
ATOM     11  N   UNL     1       1.407   7.604  20.730  0.00  0.00    +0.000 NA
ATOM     12  C   UNL     1       2.182   5.310  20.773  0.00  0.00    +0.000 C 
ATOM     13  C   UNL     1       1.363   4.225  20.070  0.00  0.00    +0.000 C 
ATOM     14  N   UNL     1       2.022   3.623  18.901  0.00  0.00    +0.000 NA
ATOM     15  C   UNL     1       2.183   4.543  17.766  0.00  0.00    +0.000 C 
ATOM     16  C   UNL     1       3.173   5.691  18.009  0.00  0.00    +0.000 C 
ATOM     17  C   UNL     1       0.097  10.942  20.077  0.00  0.00    +0.000 C 
ATOM     18  C   UNL     1      -0.171  12.114  21.050  0.00  0.00    +0.000 C 
ATOM     19  H   UNL     1       1.450   2.837  18.592  0.00  0.00    +0.000 HD
ENDROOT
TORSDOF 0
ENDMDL
MODEL 5
REMARK VINA RESULT:      -6.3      3.971      4.901
REMARK  Name = 
REMARK  1 active torsions:
REMARK  status: ('A' for Active; 'I' for Inactive)
REMARK    1  A    between atoms: C_1  and  N_2
REMARK                            x       y       z     vdW  Elec       q    Type
REMARK                         _______ _______ _______ _____ _____    ______ ____
ROOT
ATOM      1  C   UNL     1       6.249   3.811  16.114  0.00  0.00    +0.000 C 
ATOM      2  N   UNL     1       5.858   5.037  16.807  0.00  0.00    +0.000 NA
ATOM      3  C   UNL     1       4.989   4.707  17.962  0.00  0.00    +0.000 C 
ATOM      4  C   UNL     1       4.413   5.953  18.672  0.00  0.00    +0.000 C 
ATOM      5  N   UNL     1       3.716   6.789  17.691  0.00  0.00    +0.000 N 
ATOM      6  C   UNL     1       2.838   7.727  18.200  0.00  0.00    +0.000 A 
ATOM      7  N   UNL     1       2.515   8.800  17.460  0.00  0.00    +0.000 NA
ATOM      8  C   UNL     1       1.626   9.667  17.974  0.00  0.00    +0.000 A 
ATOM      9  C   UNL     1       1.032   9.519  19.206  0.00  0.00    +0.000 A 
ATOM     10  C   UNL     1       1.399   8.382  19.895  0.00  0.00    +0.000 A 
ATOM     11  N   UNL     1       2.290   7.497  19.406  0.00  0.00    +0.000 NA
ATOM     12  C   UNL     1       0.866   8.097  21.271  0.00  0.00    +0.000 C 
ATOM     13  C   UNL     1       1.347   9.143  22.279  0.00  0.00    +0.000 C 
ATOM     14  N   UNL     1       0.575  10.395  22.275  0.00  0.00    +0.000 NA
ATOM     15  C   UNL     1       0.731  11.189  21.048  0.00  0.00    +0.000 C 
ATOM     16  C   UNL     1       0.121  10.551  19.791  0.00  0.00    +0.000 C 
ATOM     17  C   UNL     1       4.555   7.199  16.565  0.00  0.00    +0.000 C 
ATOM     18  C   UNL     1       5.130   5.938  15.878  0.00  0.00    +0.000 C 
ATOM     19  H   UNL     1       0.896  10.962  23.060  0.00  0.00    +0.000 HD
ENDROOT
TORSDOF 0
ENDMDL
MODEL 6
REMARK VINA RESULT:      -6.2      3.783      6.885
REMARK  Name = 
REMARK  1 active torsions:
REMARK  status: ('A' for Active; 'I' for Inactive)
REMARK    1  A    between atoms: C_1  and  N_2
REMARK                            x       y       z     vdW  Elec       q    Type
REMARK                         _______ _______ _______ _____ _____    ______ ____
ROOT
ATOM      1  C   UNL     1      -1.167  11.371  19.711  0.00  0.00    +0.000 C 
ATOM      2  N   UNL     1       0.122  10.688  19.816  0.00  0.00    +0.000 NA
ATOM      3  C   UNL     1       0.680  10.456  18.464  0.00  0.00    +0.000 C 
ATOM      4  C   UNL     1       1.977   9.615  18.470  0.00  0.00    +0.000 C 
ATOM      5  N   UNL     1       1.731   8.356  19.179  0.00  0.00    +0.000 N 
ATOM      6  C   UNL     1       2.646   7.343  18.960  0.00  0.00    +0.000 A 
ATOM      7  N   UNL     1       2.773   6.361  19.867  0.00  0.00    +0.000 NA
ATOM      8  C   UNL     1       3.643   5.372  19.598  0.00  0.00    +0.000 A 
ATOM      9  C   UNL     1       4.406   5.310  18.455  0.00  0.00    +0.000 A 
ATOM     10  C   UNL     1       4.202   6.343  17.564  0.00  0.00    +0.000 A 
ATOM     11  N   UNL     1       3.340   7.349  17.809  0.00  0.00    +0.000 NA
ATOM     12  C   UNL     1       4.988   6.439  16.287  0.00  0.00    +0.000 C 
ATOM     13  C   UNL     1       6.476   6.662  16.567  0.00  0.00    +0.000 C 
ATOM     14  N   UNL     1       7.226   5.441  16.899  0.00  0.00    +0.000 NA
ATOM     15  C   UNL     1       6.852   4.843  18.187  0.00  0.00    +0.000 C 
ATOM     16  C   UNL     1       5.436   4.249  18.230  0.00  0.00    +0.000 C 
ATOM     17  C   UNL     1       1.244   8.534  20.546  0.00  0.00    +0.000 C 
ATOM     18  C   UNL     1      -0.045   9.389  20.515  0.00  0.00    +0.000 C 
ATOM     19  H   UNL     1       8.216   5.686  16.940  0.00  0.00    +0.000 HD
ENDROOT
TORSDOF 0
ENDMDL
MODEL 7
REMARK VINA RESULT:      -6.1      3.847      6.953
REMARK  Name = 
REMARK  1 active torsions:
REMARK  status: ('A' for Active; 'I' for Inactive)
REMARK    1  A    between atoms: C_1  and  N_2
REMARK                            x       y       z     vdW  Elec       q    Type
REMARK                         _______ _______ _______ _____ _____    ______ ____
ROOT
ATOM      1  C   UNL     1      -0.724  11.217  22.376  0.00  0.00    +0.000 C 
ATOM      2  N   UNL     1      -0.432  10.176  21.393  0.00  0.00    +0.000 NA
ATOM      3  C   UNL     1       0.230   9.029  22.057  0.00  0.00    +0.000 C 
ATOM      4  C   UNL     1       0.703   7.937  21.070  0.00  0.00    +0.000 C 
ATOM      5  N   UNL     1       1.564   8.546  20.053  0.00  0.00    +0.000 N 
ATOM      6  C   UNL     1       2.363   7.680  19.329  0.00  0.00    +0.000 A 
ATOM      7  N   UNL     1       2.820   8.055  18.124  0.00  0.00    +0.000 NA
ATOM      8  C   UNL     1       3.627   7.201  17.470  0.00  0.00    +0.000 A 
ATOM      9  C   UNL     1       4.009   5.975  17.962  0.00  0.00    +0.000 A 
ATOM     10  C   UNL     1       3.516   5.673  19.215  0.00  0.00    +0.000 A 
ATOM     11  N   UNL     1       2.702   6.507  19.891  0.00  0.00    +0.000 NA
ATOM     12  C   UNL     1       3.810   4.354  19.873  0.00  0.00    +0.000 C 
ATOM     13  C   UNL     1       3.189   3.194  19.092  0.00  0.00    +0.000 C 
ATOM     14  N   UNL     1       3.972   2.752  17.928  0.00  0.00    +0.000 NA
ATOM     15  C   UNL     1       4.031   3.737  16.839  0.00  0.00    +0.000 C 
ATOM     16  C   UNL     1       4.829   5.007  17.169  0.00  0.00    +0.000 C 
ATOM     17  C   UNL     1       0.929   9.640  19.321  0.00  0.00    +0.000 C 
ATOM     18  C   UNL     1       0.453  10.713  20.329  0.00  0.00    +0.000 C 
ATOM     19  H   UNL     1       3.535   1.905  17.563  0.00  0.00    +0.000 HD
ENDROOT
TORSDOF 0
ENDMDL
MODEL 8
REMARK VINA RESULT:      -6.1      3.736      5.922
REMARK  Name = 
REMARK  1 active torsions:
REMARK  status: ('A' for Active; 'I' for Inactive)
REMARK    1  A    between atoms: C_1  and  N_2
REMARK                            x       y       z     vdW  Elec       q    Type
REMARK                         _______ _______ _______ _____ _____    ______ ____
ROOT
ATOM      1  C   UNL     1       0.554  12.080  18.924  0.00  0.00    +0.000 C 
ATOM      2  N   UNL     1       1.374  10.905  19.218  0.00  0.00    +0.000 NA
ATOM      3  C   UNL     1       1.412  10.011  18.037  0.00  0.00    +0.000 C 
ATOM      4  C   UNL     1       2.142   8.674  18.303  0.00  0.00    +0.000 C 
ATOM      5  N   UNL     1       1.536   8.016  19.463  0.00  0.00    +0.000 N 
ATOM      6  C   UNL     1       1.805   6.667  19.611  0.00  0.00    +0.000 A 
ATOM      7  N   UNL     1       1.691   6.101  20.823  0.00  0.00    +0.000 NA
ATOM      8  C   UNL     1       1.921   4.780  20.917  0.00  0.00    +0.000 A 
ATOM      9  C   UNL     1       2.263   3.981  19.851  0.00  0.00    +0.000 A 
ATOM     10  C   UNL     1       2.338   4.633  18.637  0.00  0.00    +0.000 A 
ATOM     11  N   UNL     1       2.116   5.957  18.514  0.00  0.00    +0.000 NA
ATOM     12  C   UNL     1       2.738   3.907  17.384  0.00  0.00    +0.000 C 
ATOM     13  C   UNL     1       4.182   3.408  17.470  0.00  0.00    +0.000 C 
ATOM     14  N   UNL     1       4.352   2.151  18.214  0.00  0.00    +0.000 NA
ATOM     15  C   UNL     1       4.078   2.267  19.653  0.00  0.00    +0.000 C 
ATOM     16  C   UNL     1       2.607   2.534  20.005  0.00  0.00    +0.000 C 
ATOM     17  C   UNL     1       1.537   8.835  20.674  0.00  0.00    +0.000 C 
ATOM     18  C   UNL     1       0.814  10.171  20.380  0.00  0.00    +0.000 C 
ATOM     19  H   UNL     1       5.320   1.850  18.100  0.00  0.00    +0.000 HD
ENDROOT
TORSDOF 0
ENDMDL
MODEL 9
REMARK VINA RESULT:      -5.9      4.640      6.028
REMARK  Name = 
REMARK  1 active torsions:
REMARK  status: ('A' for Active; 'I' for Inactive)
REMARK    1  A    between atoms: C_1  and  N_2
REMARK                            x       y       z     vdW  Elec       q    Type
REMARK                         _______ _______ _______ _____ _____    ______ ____
ROOT
ATOM      1  C   UNL     1       4.702   3.515  17.710  0.00  0.00    +0.000 C 
ATOM      2  N   UNL     1       4.438   4.801  18.352  0.00  0.00    +0.000 NA
ATOM      3  C   UNL     1       3.378   4.643  19.376  0.00  0.00    +0.000 C 
ATOM      4  C   UNL     1       2.934   5.981  20.012  0.00  0.00    +0.000 C 
ATOM      5  N   UNL     1       2.530   6.908  18.951  0.00  0.00    +0.000 N 
ATOM      6  C   UNL     1       1.766   7.991  19.344  0.00  0.00    +0.000 A 
ATOM      7  N   UNL     1       1.735   9.091  18.574  0.00  0.00    +0.000 NA
ATOM      8  C   UNL     1       0.947  10.106  18.969  0.00  0.00    +0.000 A 
ATOM      9  C   UNL     1       0.176  10.082  20.108  0.00  0.00    +0.000 A 
ATOM     10  C   UNL     1       0.246   8.910  20.832  0.00  0.00    +0.000 A 
ATOM     11  N   UNL     1       1.030   7.878  20.462  0.00  0.00    +0.000 NA
ATOM     12  C   UNL     1      -0.507   8.743  22.122  0.00  0.00    +0.000 C 
ATOM     13  C   UNL     1       0.006   9.708  23.193  0.00  0.00    +0.000 C 
ATOM     14  N   UNL     1      -0.532  11.073  23.093  0.00  0.00    +0.000 NA
ATOM     15  C   UNL     1      -0.078  11.809  21.905  0.00  0.00    +0.000 C 
ATOM     16  C   UNL     1      -0.614  11.264  20.572  0.00  0.00    +0.000 C 
ATOM     17  C   UNL     1       3.570   7.150  17.952  0.00  0.00    +0.000 C 
ATOM     18  C   UNL     1       4.007   5.798  17.340  0.00  0.00    +0.000 C 
ATOM     19  H   UNL     1      -0.226  11.589  23.919  0.00  0.00    +0.000 HD
ENDROOT
TORSDOF 0
ENDMDL
