MODEL 1
REMARK VINA RESULT:      -8.0      0.000      0.000
REMARK  Name = 
REMARK  8 active torsions:
REMARK  status: ('A' for Active; 'I' for Inactive)
REMARK    1  A    between atoms: C_1  and  C_2
REMARK    2  A    between atoms: C_2  and  C_3
REMARK    3  A    between atoms: C_2  and  C_4
REMARK    4  A    between atoms: C_4  and  C_5
REMARK    5  A    between atoms: N_7  and  C_8
REMARK    6  A    between atoms: C_12  and  C_13
REMARK    7  A    between atoms: C_18  and  C_19
REMARK    8  A    between atoms: C_19  and  C_21
REMARK                            x       y       z     vdW  Elec       q    Type
REMARK                         _______ _______ _______ _____ _____    ______ ____
ROOT
ATOM      1  C   UNL     1       0.949   9.331  19.655  0.00  0.00    +0.000 A 
ATOM      2  C   UNL     1       0.647   8.877  20.885  0.00  0.00    +0.000 A 
ATOM      3  C   UNL     1       1.292   7.600  21.274  0.00  0.00    +0.000 A 
ATOM      4  N   UNL     1       2.099   6.894  20.542  0.00  0.00    +0.000 NA
ATOM      5  C   UNL     1       2.363   7.374  19.287  0.00  0.00    +0.000 A 
ATOM      6  C   UNL     1       3.166   6.900  18.263  0.00  0.00    +0.000 A 
ATOM      7  C   UNL     1       3.047   7.880  17.253  0.00  0.00    +0.000 A 
ATOM      8  N   UNL     1       2.219   8.872  17.570  0.00  0.00    +0.000 NA
ATOM      9  N   UNL     1       1.807   8.584  18.831  0.00  0.00    +0.000 N 
ENDROOT
BRANCH   1  14
ATOM     10  C   UNL     1      -1.534  11.883  18.371  0.00  0.00    +0.000 A 
ATOM     11  C   UNL     1      -0.711  13.007  18.290  0.00  0.00    +0.000 A 
ATOM     12  C   UNL     1       0.636  12.938  18.650  0.00  0.00    +0.000 A 
ATOM     13  C   UNL     1       1.177  11.738  19.099  0.00  0.00    +0.000 A 
ATOM     14  C   UNL     1       0.365  10.606  19.214  0.00  0.00    +0.000 A 
ATOM     15  C   UNL     1      -0.995  10.685  18.863  0.00  0.00    +0.000 A 
BRANCH  10  18
ATOM     16  C   UNL     1      -3.409  11.401  16.805  0.00  0.00    +0.000 C 
ATOM     17  O   UNL     1      -2.788  10.758  15.964  0.00  0.00    +0.000 OA
ATOM     18  N   UNL     1      -2.897  11.902  17.992  0.00  0.00    +0.000 N 
ATOM     19  H   UNL     1      -3.561  12.218  18.685  0.00  0.00    +0.000 HD
BRANCH  16  20
ATOM     20  C   UNL     1      -4.885  11.675  16.598  0.00  0.00    +0.000 C 
BRANCH  20  22
ATOM     21  C   UNL     1      -6.513  13.298  17.678  0.00  0.00    +0.000 C 
ATOM     22  C   UNL     1      -5.622  12.071  17.885  0.00  0.00    +0.000 C 
ATOM     23  C   UNL     1      -6.471  10.895  18.375  0.00  0.00    +0.000 C 
ENDBRANCH  20  22
ENDBRANCH  16  20
ENDBRANCH  10  18
ENDBRANCH   1  14
BRANCH   6  24
ATOM     24  C   UNL     1       4.032   5.731  18.197  0.00  0.00    +0.000 C 
ATOM     25  O   UNL     1       5.238   5.892  18.024  0.00  0.00    +0.000 OA
BRANCH  24  26
ATOM     26  C   UNL     1       3.410   4.415  18.295  0.00  0.00    +0.000 A 
ATOM     27  C   UNL     1       2.364   3.852  17.584  0.00  0.00    +0.000 A 
ATOM     28  C   UNL     1       2.071   2.518  17.994  0.00  0.00    +0.000 A 
ATOM     29  C   UNL     1       2.922   2.086  18.984  0.00  0.00    +0.000 A 
ATOM     30  S   UNL     1       4.065   3.282  19.411  0.00  0.00    +0.000 S 
ENDBRANCH  24  26
ENDBRANCH   6  24
TORSDOF 6
ENDMDL
MODEL 2
REMARK VINA RESULT:      -7.8      3.338      4.570
REMARK  Name = 
REMARK  8 active torsions:
REMARK  status: ('A' for Active; 'I' for Inactive)
REMARK    1  A    between atoms: C_1  and  C_2
REMARK    2  A    between atoms: C_2  and  C_3
REMARK    3  A    between atoms: C_2  and  C_4
REMARK    4  A    between atoms: C_4  and  C_5
REMARK    5  A    between atoms: N_7  and  C_8
REMARK    6  A    between atoms: C_12  and  C_13
REMARK    7  A    between atoms: C_18  and  C_19
REMARK    8  A    between atoms: C_19  and  C_21
REMARK                            x       y       z     vdW  Elec       q    Type
REMARK                         _______ _______ _______ _____ _____    ______ ____
ROOT
ATOM      1  C   UNL     1       2.707   6.018  18.083  0.00  0.00    +0.000 A 
ATOM      2  C   UNL     1       2.065   4.838  18.037  0.00  0.00    +0.000 A 
ATOM      3  C   UNL     1       2.804   3.730  17.384  0.00  0.00    +0.000 A 
ATOM      4  N   UNL     1       3.988   3.802  16.858  0.00  0.00    +0.000 NA
ATOM      5  C   UNL     1       4.602   5.027  16.901  0.00  0.00    +0.000 A 
ATOM      6  C   UNL     1       5.840   5.459  16.458  0.00  0.00    +0.000 A 
ATOM      7  C   UNL     1       5.889   6.815  16.850  0.00  0.00    +0.000 A 
ATOM      8  N   UNL     1       4.779   7.235  17.451  0.00  0.00    +0.000 NA
ATOM      9  N   UNL     1       3.985   6.136  17.509  0.00  0.00    +0.000 N 
ENDROOT
BRANCH   1  14
ATOM     10  C   UNL     1       0.665   9.161  18.607  0.00  0.00    +0.000 A 
ATOM     11  C   UNL     1       0.865   9.358  19.975  0.00  0.00    +0.000 A 
ATOM     12  C   UNL     1       1.653   8.479  20.719  0.00  0.00    +0.000 A 
ATOM     13  C   UNL     1       2.252   7.386  20.102  0.00  0.00    +0.000 A 
ATOM     14  C   UNL     1       2.044   7.154  18.739  0.00  0.00    +0.000 A 
ATOM     15  C   UNL     1       1.237   8.036  17.997  0.00  0.00    +0.000 A 
BRANCH  10  18
ATOM     16  C   UNL     1      -1.192  10.781  18.249  0.00  0.00    +0.000 C 
ATOM     17  O   UNL     1      -1.578  10.881  19.410  0.00  0.00    +0.000 OA
ATOM     18  N   UNL     1      -0.104  10.042  17.811  0.00  0.00    +0.000 N 
ATOM     19  H   UNL     1       0.229  10.220  16.873  0.00  0.00    +0.000 HD
BRANCH  16  20
ATOM     20  C   UNL     1      -1.912  11.539  17.152  0.00  0.00    +0.000 C 
BRANCH  20  22
ATOM     21  C   UNL     1      -4.434  11.550  16.851  0.00  0.00    +0.000 C 
ATOM     22  C   UNL     1      -3.129  10.794  16.588  0.00  0.00    +0.000 C 
ATOM     23  C   UNL     1      -2.952  10.582  15.082  0.00  0.00    +0.000 C 
ENDBRANCH  20  22
ENDBRANCH  16  20
ENDBRANCH  10  18
ENDBRANCH   1  14
BRANCH   6  24
ATOM     24  C   UNL     1       6.928   4.733  15.818  0.00  0.00    +0.000 C 
ATOM     25  O   UNL     1       7.933   4.467  16.473  0.00  0.00    +0.000 OA
BRANCH  24  26
ATOM     26  C   UNL     1       6.785   4.395  14.406  0.00  0.00    +0.000 A 
ATOM     27  C   UNL     1       5.870   3.584  13.757  0.00  0.00    +0.000 A 
ATOM     28  C   UNL     1       6.079   3.533  12.347  0.00  0.00    +0.000 A 
ATOM     29  C   UNL     1       7.127   4.331  11.954  0.00  0.00    +0.000 A 
ATOM     30  S   UNL     1       7.849   5.137  13.276  0.00  0.00    +0.000 S 
ENDBRANCH  24  26
ENDBRANCH   6  24
TORSDOF 6
ENDMDL
MODEL 3
REMARK VINA RESULT:      -7.8      1.488      2.173
REMARK  Name = 
REMARK  8 active torsions:
REMARK  status: ('A' for Active; 'I' for Inactive)
REMARK    1  A    between atoms: C_1  and  C_2
REMARK    2  A    between atoms: C_2  and  C_3
REMARK    3  A    between atoms: C_2  and  C_4
REMARK    4  A    between atoms: C_4  and  C_5
REMARK    5  A    between atoms: N_7  and  C_8
REMARK    6  A    between atoms: C_12  and  C_13
REMARK    7  A    between atoms: C_18  and  C_19
REMARK    8  A    between atoms: C_19  and  C_21
REMARK                            x       y       z     vdW  Elec       q    Type
REMARK                         _______ _______ _______ _____ _____    ______ ____
ROOT
ATOM      1  C   UNL     1       0.971   9.427  19.591  0.00  0.00    +0.000 A 
ATOM      2  C   UNL     1       0.691   8.999  20.835  0.00  0.00    +0.000 A 
ATOM      3  C   UNL     1       1.304   7.705  21.221  0.00  0.00    +0.000 A 
ATOM      4  N   UNL     1       2.065   6.963  20.476  0.00  0.00    +0.000 NA
ATOM      5  C   UNL     1       2.307   7.419  19.207  0.00  0.00    +0.000 A 
ATOM      6  C   UNL     1       3.062   6.905  18.166  0.00  0.00    +0.000 A 
ATOM      7  C   UNL     1       2.946   7.876  17.147  0.00  0.00    +0.000 A 
ATOM      8  N   UNL     1       2.162   8.900  17.476  0.00  0.00    +0.000 NA
ATOM      9  N   UNL     1       1.778   8.641  18.752  0.00  0.00    +0.000 N 
ENDROOT
BRANCH   1  14
ATOM     10  C   UNL     1      -1.432  12.026  18.252  0.00  0.00    +0.000 A 
ATOM     11  C   UNL     1      -0.597  13.145  18.230  0.00  0.00    +0.000 A 
ATOM     12  C   UNL     1       0.732  13.057  18.647  0.00  0.00    +0.000 A 
ATOM     13  C   UNL     1       1.244  11.843  19.095  0.00  0.00    +0.000 A 
ATOM     14  C   UNL     1       0.418  10.716  19.151  0.00  0.00    +0.000 A 
ATOM     15  C   UNL     1      -0.925  10.815  18.743  0.00  0.00    +0.000 A 
BRANCH  10  18
ATOM     16  C   UNL     1      -3.314  11.293  16.796  0.00  0.00    +0.000 C 
ATOM     17  O   UNL     1      -2.747  10.377  16.208  0.00  0.00    +0.000 OA
ATOM     18  N   UNL     1      -2.777  12.066  17.814  0.00  0.00    +0.000 N 
ATOM     19  H   UNL     1      -3.417  12.632  18.352  0.00  0.00    +0.000 HD
BRANCH  16  20
ATOM     20  C   UNL     1      -4.748  11.635  16.444  0.00  0.00    +0.000 C 
BRANCH  20  22
ATOM     21  C   UNL     1      -6.554  13.242  17.223  0.00  0.00    +0.000 C 
ATOM     22  C   UNL     1      -5.566  12.148  17.637  0.00  0.00    +0.000 C 
ATOM     23  C   UNL     1      -6.326  10.985  18.279  0.00  0.00    +0.000 C 
ENDBRANCH  20  22
ENDBRANCH  16  20
ENDBRANCH  10  18
ENDBRANCH   1  14
BRANCH   6  24
ATOM     24  C   UNL     1       3.886   5.707  18.089  0.00  0.00    +0.000 C 
ATOM     25  O   UNL     1       3.346   4.625  17.869  0.00  0.00    +0.000 OA
BRANCH  24  26
ATOM     26  C   UNL     1       5.318   5.848  18.326  0.00  0.00    +0.000 A 
ATOM     27  C   UNL     1       6.131   5.308  19.308  0.00  0.00    +0.000 A 
ATOM     28  C   UNL     1       7.497   5.695  19.170  0.00  0.00    +0.000 A 
ATOM     29  C   UNL     1       7.696   6.493  18.068  0.00  0.00    +0.000 A 
ATOM     30  S   UNL     1       6.246   6.768  17.207  0.00  0.00    +0.000 S 
ENDBRANCH  24  26
ENDBRANCH   6  24
TORSDOF 6
ENDMDL
MODEL 4
REMARK VINA RESULT:      -7.7      3.770      9.437
REMARK  Name = 
REMARK  8 active torsions:
REMARK  status: ('A' for Active; 'I' for Inactive)
REMARK    1  A    between atoms: C_1  and  C_2
REMARK    2  A    between atoms: C_2  and  C_3
REMARK    3  A    between atoms: C_2  and  C_4
REMARK    4  A    between atoms: C_4  and  C_5
REMARK    5  A    between atoms: N_7  and  C_8
REMARK    6  A    between atoms: C_12  and  C_13
REMARK    7  A    between atoms: C_18  and  C_19
REMARK    8  A    between atoms: C_19  and  C_21
REMARK                            x       y       z     vdW  Elec       q    Type
REMARK                         _______ _______ _______ _____ _____    ______ ____
ROOT
ATOM      1  C   UNL     1       1.753   8.278  19.438  0.00  0.00    +0.000 A 
ATOM      2  C   UNL     1       1.837   8.780  18.193  0.00  0.00    +0.000 A 
ATOM      3  C   UNL     1       1.351  10.171  18.027  0.00  0.00    +0.000 A 
ATOM      4  N   UNL     1       0.856  10.927  18.959  0.00  0.00    +0.000 NA
ATOM      5  C   UNL     1       0.762  10.374  20.209  0.00  0.00    +0.000 A 
ATOM      6  C   UNL     1       0.305  10.878  21.415  0.00  0.00    +0.000 A 
ATOM      7  C   UNL     1       0.525   9.827  22.331  0.00  0.00    +0.000 A 
ATOM      8  N   UNL     1       1.035   8.733  21.772  0.00  0.00    +0.000 NA
ATOM      9  N   UNL     1       1.207   9.063  20.467  0.00  0.00    +0.000 N 
ENDROOT
BRANCH   1  14
ATOM     10  C   UNL     1       3.796   5.103  19.176  0.00  0.00    +0.000 A 
ATOM     11  C   UNL     1       3.105   4.291  20.077  0.00  0.00    +0.000 A 
ATOM     12  C   UNL     1       1.988   4.770  20.764  0.00  0.00    +0.000 A 
ATOM     13  C   UNL     1       1.548   6.073  20.558  0.00  0.00    +0.000 A 
ATOM     14  C   UNL     1       2.241   6.913  19.680  0.00  0.00    +0.000 A 
ATOM     15  C   UNL     1       3.375   6.429  19.002  0.00  0.00    +0.000 A 
BRANCH  10  18
ATOM     16  C   UNL     1       6.243   4.871  18.776  0.00  0.00    +0.000 C 
ATOM     17  O   UNL     1       6.651   5.381  19.815  0.00  0.00    +0.000 OA
ATOM     18  N   UNL     1       4.917   4.650  18.440  0.00  0.00    +0.000 N 
ATOM     19  H   UNL     1       4.733   4.031  17.662  0.00  0.00    +0.000 HD
BRANCH  16  20
ATOM     20  C   UNL     1       7.237   4.388  17.739  0.00  0.00    +0.000 C 
BRANCH  20  22
ATOM     21  C   UNL     1       6.430   4.982  15.405  0.00  0.00    +0.000 C 
ATOM     22  C   UNL     1       7.388   5.339  16.544  0.00  0.00    +0.000 C 
ATOM     23  C   UNL     1       7.136   6.780  16.997  0.00  0.00    +0.000 C 
ENDBRANCH  20  22
ENDBRANCH  16  20
ENDBRANCH  10  18
ENDBRANCH   1  14
BRANCH   6  24
ATOM     24  C   UNL     1      -0.205  12.198  21.761  0.00  0.00    +0.000 C 
ATOM     25  O   UNL     1       0.586  13.129  21.888  0.00  0.00    +0.000 OA
BRANCH  24  26
ATOM     26  C   UNL     1      -1.640  12.336  21.986  0.00  0.00    +0.000 A 
ATOM     27  C   UNL     1      -2.384  12.272  23.152  0.00  0.00    +0.000 A 
ATOM     28  C   UNL     1      -3.778  12.474  22.931  0.00  0.00    +0.000 A 
ATOM     29  C   UNL     1      -4.058  12.719  21.606  0.00  0.00    +0.000 A 
ATOM     30  S   UNL     1      -2.647  12.708  20.642  0.00  0.00    +0.000 S 
ENDBRANCH  24  26
ENDBRANCH   6  24
TORSDOF 6
ENDMDL
MODEL 5
REMARK VINA RESULT:      -7.6      0.971      1.084
REMARK  Name = 
REMARK  8 active torsions:
REMARK  status: ('A' for Active; 'I' for Inactive)
REMARK    1  A    between atoms: C_1  and  C_2
REMARK    2  A    between atoms: C_2  and  C_3
REMARK    3  A    between atoms: C_2  and  C_4
REMARK    4  A    between atoms: C_4  and  C_5
REMARK    5  A    between atoms: N_7  and  C_8
REMARK    6  A    between atoms: C_12  and  C_13
REMARK    7  A    between atoms: C_18  and  C_19
REMARK    8  A    between atoms: C_19  and  C_21
REMARK                            x       y       z     vdW  Elec       q    Type
REMARK                         _______ _______ _______ _____ _____    ______ ____
ROOT
ATOM      1  C   UNL     1       0.827   9.677  19.985  0.00  0.00    +0.000 A 
ATOM      2  C   UNL     1       0.574   9.488  21.292  0.00  0.00    +0.000 A 
ATOM      3  C   UNL     1       1.118   8.238  21.877  0.00  0.00    +0.000 A 
ATOM      4  N   UNL     1       1.795   7.328  21.247  0.00  0.00    +0.000 NA
ATOM      5  C   UNL     1       2.011   7.541  19.911  0.00  0.00    +0.000 A 
ATOM      6  C   UNL     1       2.684   6.805  18.951  0.00  0.00    +0.000 A 
ATOM      7  C   UNL     1       2.587   7.594  17.784  0.00  0.00    +0.000 A 
ATOM      8  N   UNL     1       1.887   8.712  17.955  0.00  0.00    +0.000 NA
ATOM      9  N   UNL     1       1.543   8.703  19.268  0.00  0.00    +0.000 N 
ENDROOT
BRANCH   1  14
ATOM     10  C   UNL     1      -1.436  12.151  18.230  0.00  0.00    +0.000 A 
ATOM     11  C   UNL     1      -0.548  13.213  18.052  0.00  0.00    +0.000 A 
ATOM     12  C   UNL     1       0.771  13.128  18.498  0.00  0.00    +0.000 A 
ATOM     13  C   UNL     1       1.220  11.974  19.133  0.00  0.00    +0.000 A 
ATOM     14  C   UNL     1       0.340  10.908  19.345  0.00  0.00    +0.000 A 
ATOM     15  C   UNL     1      -0.993  11.006  18.906  0.00  0.00    +0.000 A 
BRANCH  10  18
ATOM     16  C   UNL     1      -3.336  11.300  16.864  0.00  0.00    +0.000 C 
ATOM     17  O   UNL     1      -2.807  10.285  16.421  0.00  0.00    +0.000 OA
ATOM     18  N   UNL     1      -2.774  12.186  17.769  0.00  0.00    +0.000 N 
ATOM     19  H   UNL     1      -3.393  12.851  18.212  0.00  0.00    +0.000 HD
BRANCH  16  20
ATOM     20  C   UNL     1      -4.750  11.651  16.445  0.00  0.00    +0.000 C 
BRANCH  20  22
ATOM     21  C   UNL     1      -6.569  13.302  17.091  0.00  0.00    +0.000 C 
ATOM     22  C   UNL     1      -5.605  12.220  17.585  0.00  0.00    +0.000 C 
ATOM     23  C   UNL     1      -6.396  11.090  18.250  0.00  0.00    +0.000 C 
ENDBRANCH  20  22
ENDBRANCH  16  20
ENDBRANCH  10  18
ENDBRANCH   1  14
BRANCH   6  24
ATOM     24  C   UNL     1       3.423   5.555  19.057  0.00  0.00    +0.000 C 
ATOM     25  O   UNL     1       4.642   5.569  18.904  0.00  0.00    +0.000 OA
BRANCH  24  26
ATOM     26  C   UNL     1       2.665   4.332  19.297  0.00  0.00    +0.000 A 
ATOM     27  C   UNL     1       2.410   3.640  20.468  0.00  0.00    +0.000 A 
ATOM     28  C   UNL     1       1.605   2.481  20.262  0.00  0.00    +0.000 A 
ATOM     29  C   UNL     1       1.239   2.337  18.944  0.00  0.00    +0.000 A 
ATOM     30  S   UNL     1       1.861   3.594  17.967  0.00  0.00    +0.000 S 
ENDBRANCH  24  26
ENDBRANCH   6  24
TORSDOF 6
ENDMDL
MODEL 6
REMARK VINA RESULT:      -7.6      1.094      1.194
REMARK  Name = 
REMARK  8 active torsions:
REMARK  status: ('A' for Active; 'I' for Inactive)
REMARK    1  A    between atoms: C_1  and  C_2
REMARK    2  A    between atoms: C_2  and  C_3
REMARK    3  A    between atoms: C_2  and  C_4
REMARK    4  A    between atoms: C_4  and  C_5
REMARK    5  A    between atoms: N_7  and  C_8
REMARK    6  A    between atoms: C_12  and  C_13
REMARK    7  A    between atoms: C_18  and  C_19
REMARK    8  A    between atoms: C_19  and  C_21
REMARK                            x       y       z     vdW  Elec       q    Type
REMARK                         _______ _______ _______ _____ _____    ______ ____
ROOT
ATOM      1  C   UNL     1       0.971   9.385  19.627  0.00  0.00    +0.000 A 
ATOM      2  C   UNL     1       0.632   8.983  20.865  0.00  0.00    +0.000 A 
ATOM      3  C   UNL     1       1.237   7.705  21.313  0.00  0.00    +0.000 A 
ATOM      4  N   UNL     1       2.042   6.954  20.625  0.00  0.00    +0.000 NA
ATOM      5  C   UNL     1       2.345   7.383  19.360  0.00  0.00    +0.000 A 
ATOM      6  C   UNL     1       3.156   6.853  18.371  0.00  0.00    +0.000 A 
ATOM      7  C   UNL     1       3.083   7.799  17.325  0.00  0.00    +0.000 A 
ATOM      8  N   UNL     1       2.273   8.821  17.588  0.00  0.00    +0.000 NA
ATOM      9  N   UNL     1       1.827   8.588  18.849  0.00  0.00    +0.000 N 
ENDROOT
BRANCH   1  14
ATOM     10  C   UNL     1      -1.392  11.927  18.119  0.00  0.00    +0.000 A 
ATOM     11  C   UNL     1      -0.563  13.051  18.098  0.00  0.00    +0.000 A 
ATOM     12  C   UNL     1       0.748  12.984  18.571  0.00  0.00    +0.000 A 
ATOM     13  C   UNL     1       1.249  11.787  19.074  0.00  0.00    +0.000 A 
ATOM     14  C   UNL     1       0.428  10.656  19.128  0.00  0.00    +0.000 A 
ATOM     15  C   UNL     1      -0.898  10.734  18.664  0.00  0.00    +0.000 A 
BRANCH  10  18
ATOM     16  C   UNL     1      -3.864  12.028  18.401  0.00  0.00    +0.000 C 
ATOM     17  O   UNL     1      -3.905  12.222  19.612  0.00  0.00    +0.000 OA
ATOM     18  N   UNL     1      -2.718  11.945  17.625  0.00  0.00    +0.000 N 
ATOM     19  H   UNL     1      -2.832  12.000  16.623  0.00  0.00    +0.000 HD
BRANCH  16  20
ATOM     20  C   UNL     1      -5.156  11.891  17.620  0.00  0.00    +0.000 C 
BRANCH  20  22
ATOM     21  C   UNL     1      -7.490  12.853  17.898  0.00  0.00    +0.000 C 
ATOM     22  C   UNL     1      -6.413  11.946  18.499  0.00  0.00    +0.000 C 
ATOM     23  C   UNL     1      -6.974  10.534  18.684  0.00  0.00    +0.000 C 
ENDBRANCH  20  22
ENDBRANCH  16  20
ENDBRANCH  10  18
ENDBRANCH   1  14
BRANCH   6  24
ATOM     24  C   UNL     1       3.995   5.662  18.366  0.00  0.00    +0.000 C 
ATOM     25  O   UNL     1       5.213   5.791  18.266  0.00  0.00    +0.000 OA
BRANCH  24  26
ATOM     26  C   UNL     1       3.335   4.363  18.433  0.00  0.00    +0.000 A 
ATOM     27  C   UNL     1       3.763   3.156  18.958  0.00  0.00    +0.000 A 
ATOM     28  C   UNL     1       2.792   2.120  18.827  0.00  0.00    +0.000 A 
ATOM     29  C   UNL     1       1.635   2.572  18.236  0.00  0.00    +0.000 A 
ATOM     30  S   UNL     1       1.723   4.233  17.847  0.00  0.00    +0.000 S 
ENDBRANCH  24  26
ENDBRANCH   6  24
TORSDOF 6
ENDMDL
MODEL 7
REMARK VINA RESULT:      -7.5      3.437      5.190
REMARK  Name = 
REMARK  8 active torsions:
REMARK  status: ('A' for Active; 'I' for Inactive)
REMARK    1  A    between atoms: C_1  and  C_2
REMARK    2  A    between atoms: C_2  and  C_3
REMARK    3  A    between atoms: C_2  and  C_4
REMARK    4  A    between atoms: C_4  and  C_5
REMARK    5  A    between atoms: N_7  and  C_8
REMARK    6  A    between atoms: C_12  and  C_13
REMARK    7  A    between atoms: C_18  and  C_19
REMARK    8  A    between atoms: C_19  and  C_21
REMARK                            x       y       z     vdW  Elec       q    Type
REMARK                         _______ _______ _______ _____ _____    ______ ____
ROOT
ATOM      1  C   UNL     1       2.784   5.949  18.214  0.00  0.00    +0.000 A 
ATOM      2  C   UNL     1       2.104   4.795  18.093  0.00  0.00    +0.000 A 
ATOM      3  C   UNL     1       2.803   3.714  17.356  0.00  0.00    +0.000 A 
ATOM      4  N   UNL     1       3.984   3.788  16.822  0.00  0.00    +0.000 NA
ATOM      5  C   UNL     1       4.635   4.987  16.943  0.00  0.00    +0.000 A 
ATOM      6  C   UNL     1       5.881   5.413  16.516  0.00  0.00    +0.000 A 
ATOM      7  C   UNL     1       5.976   6.735  17.001  0.00  0.00    +0.000 A 
ATOM      8  N   UNL     1       4.885   7.145  17.644  0.00  0.00    +0.000 NA
ATOM      9  N   UNL     1       4.058   6.069  17.634  0.00  0.00    +0.000 N 
ENDROOT
BRANCH   1  14
ATOM     10  C   UNL     1       1.435   9.381  19.068  0.00  0.00    +0.000 A 
ATOM     11  C   UNL     1       1.067   9.175  20.399  0.00  0.00    +0.000 A 
ATOM     12  C   UNL     1       1.252   7.936  21.012  0.00  0.00    +0.000 A 
ATOM     13  C   UNL     1       1.810   6.880  20.298  0.00  0.00    +0.000 A 
ATOM     14  C   UNL     1       2.162   7.056  18.956  0.00  0.00    +0.000 A 
ATOM     15  C   UNL     1       1.959   8.304  18.339  0.00  0.00    +0.000 A 
BRANCH  10  18
ATOM     16  C   UNL     1       1.363  11.869  19.030  0.00  0.00    +0.000 C 
ATOM     17  O   UNL     1       1.687  12.083  20.194  0.00  0.00    +0.000 OA
ATOM     18  N   UNL     1       1.288  10.628  18.417  0.00  0.00    +0.000 N 
ATOM     19  H   UNL     1       1.222  10.613  17.408  0.00  0.00    +0.000 HD
BRANCH  16  20
ATOM     20  C   UNL     1       1.035  13.035  18.118  0.00  0.00    +0.000 C 
BRANCH  20  22
ATOM     21  C   UNL     1      -1.350  12.541  18.840  0.00  0.00    +0.000 C 
ATOM     22  C   UNL     1      -0.373  13.606  18.334  0.00  0.00    +0.000 C 
ATOM     23  C   UNL     1      -0.311  14.763  19.335  0.00  0.00    +0.000 C 
ENDBRANCH  20  22
ENDBRANCH  16  20
ENDBRANCH  10  18
ENDBRANCH   1  14
BRANCH   6  24
ATOM     24  C   UNL     1       6.940   4.701  15.814  0.00  0.00    +0.000 C 
ATOM     25  O   UNL     1       7.980   4.438  16.413  0.00  0.00    +0.000 OA
BRANCH  24  26
ATOM     26  C   UNL     1       6.726   4.374  14.409  0.00  0.00    +0.000 A 
ATOM     27  C   UNL     1       5.733   3.631  13.793  0.00  0.00    +0.000 A 
ATOM     28  C   UNL     1       5.891   3.564  12.377  0.00  0.00    +0.000 A 
ATOM     29  C   UNL     1       6.981   4.283  11.946  0.00  0.00    +0.000 A 
ATOM     30  S   UNL     1       7.803   5.036  13.242  0.00  0.00    +0.000 S 
ENDBRANCH  24  26
ENDBRANCH   6  24
TORSDOF 6
ENDMDL
MODEL 8
REMARK VINA RESULT:      -7.5      1.445      1.886
REMARK  Name = 
REMARK  8 active torsions:
REMARK  status: ('A' for Active; 'I' for Inactive)
REMARK    1  A    between atoms: C_1  and  C_2
REMARK    2  A    between atoms: C_2  and  C_3
REMARK    3  A    between atoms: C_2  and  C_4
REMARK    4  A    between atoms: C_4  and  C_5
REMARK    5  A    between atoms: N_7  and  C_8
REMARK    6  A    between atoms: C_12  and  C_13
REMARK    7  A    between atoms: C_18  and  C_19
REMARK    8  A    between atoms: C_19  and  C_21
REMARK                            x       y       z     vdW  Elec       q    Type
REMARK                         _______ _______ _______ _____ _____    ______ ____
ROOT
ATOM      1  C   UNL     1       0.915   9.443  19.679  0.00  0.00    +0.000 A 
ATOM      2  C   UNL     1       0.564   9.072  20.923  0.00  0.00    +0.000 A 
ATOM      3  C   UNL     1       1.123   7.779  21.388  0.00  0.00    +0.000 A 
ATOM      4  N   UNL     1       1.898   6.990  20.710  0.00  0.00    +0.000 NA
ATOM      5  C   UNL     1       2.214   7.389  19.438  0.00  0.00    +0.000 A 
ATOM      6  C   UNL     1       3.004   6.816  18.456  0.00  0.00    +0.000 A 
ATOM      7  C   UNL     1       2.963   7.748  17.396  0.00  0.00    +0.000 A 
ATOM      8  N   UNL     1       2.191   8.803  17.646  0.00  0.00    +0.000 NA
ATOM      9  N   UNL     1       1.740   8.605  18.911  0.00  0.00    +0.000 N 
ENDROOT
BRANCH   1  14
ATOM     10  C   UNL     1      -1.369  12.058  18.172  0.00  0.00    +0.000 A 
ATOM     11  C   UNL     1      -0.489  13.140  18.099  0.00  0.00    +0.000 A 
ATOM     12  C   UNL     1       0.830  13.022  18.537  0.00  0.00    +0.000 A 
ATOM     13  C   UNL     1       1.289  11.816  19.056  0.00  0.00    +0.000 A 
ATOM     14  C   UNL     1       0.418  10.727  19.163  0.00  0.00    +0.000 A 
ATOM     15  C   UNL     1      -0.915  10.856  18.733  0.00  0.00    +0.000 A 
BRANCH  10  18
ATOM     16  C   UNL     1      -3.454  11.055  17.251  0.00  0.00    +0.000 C 
ATOM     17  O   UNL     1      -3.120   9.875  17.280  0.00  0.00    +0.000 OA
ATOM     18  N   UNL     1      -2.706  12.127  17.715  0.00  0.00    +0.000 N 
ATOM     19  H   UNL     1      -3.184  13.010  17.830  0.00  0.00    +0.000 HD
BRANCH  16  20
ATOM     20  C   UNL     1      -4.813  11.437  16.699  0.00  0.00    +0.000 C 
BRANCH  20  22
ATOM     21  C   UNL     1      -6.719  13.050  17.160  0.00  0.00    +0.000 C 
ATOM     22  C   UNL     1      -5.765  12.012  17.756  0.00  0.00    +0.000 C 
ATOM     23  C   UNL     1      -6.572  10.879  18.395  0.00  0.00    +0.000 C 
ENDBRANCH  20  22
ENDBRANCH  16  20
ENDBRANCH  10  18
ENDBRANCH   1  14
BRANCH   6  24
ATOM     24  C   UNL     1       3.798   5.595  18.466  0.00  0.00    +0.000 C 
ATOM     25  O   UNL     1       3.613   4.771  19.359  0.00  0.00    +0.000 OA
BRANCH  24  26
ATOM     26  C   UNL     1       4.813   5.434  17.431  0.00  0.00    +0.000 A 
ATOM     27  C   UNL     1       4.771   4.771  16.216  0.00  0.00    +0.000 A 
ATOM     28  C   UNL     1       5.996   4.867  15.491  0.00  0.00    +0.000 A 
ATOM     29  C   UNL     1       6.929   5.628  16.157  0.00  0.00    +0.000 A 
ATOM     30  S   UNL     1       6.328   6.222  17.642  0.00  0.00    +0.000 S 
ENDBRANCH  24  26
ENDBRANCH   6  24
TORSDOF 6
ENDMDL
MODEL 9
REMARK VINA RESULT:      -7.4      0.799      1.056
REMARK  Name = 
REMARK  8 active torsions:
REMARK  status: ('A' for Active; 'I' for Inactive)
REMARK    1  A    between atoms: C_1  and  C_2
REMARK    2  A    between atoms: C_2  and  C_3
REMARK    3  A    between atoms: C_2  and  C_4
REMARK    4  A    between atoms: C_4  and  C_5
REMARK    5  A    between atoms: N_7  and  C_8
REMARK    6  A    between atoms: C_12  and  C_13
REMARK    7  A    between atoms: C_18  and  C_19
REMARK    8  A    between atoms: C_19  and  C_21
REMARK                            x       y       z     vdW  Elec       q    Type
REMARK                         _______ _______ _______ _____ _____    ______ ____
ROOT
ATOM      1  C   UNL     1       1.009   9.417  19.765  0.00  0.00    +0.000 A 
ATOM      2  C   UNL     1       0.718   8.908  20.975  0.00  0.00    +0.000 A 
ATOM      3  C   UNL     1       1.299   7.575  21.267  0.00  0.00    +0.000 A 
ATOM      4  N   UNL     1       2.041   6.870  20.469  0.00  0.00    +0.000 NA
ATOM      5  C   UNL     1       2.294   7.408  19.236  0.00  0.00    +0.000 A 
ATOM      6  C   UNL     1       3.036   6.951  18.159  0.00  0.00    +0.000 A 
ATOM      7  C   UNL     1       2.944   7.995  17.213  0.00  0.00    +0.000 A 
ATOM      8  N   UNL     1       2.186   9.011  17.615  0.00  0.00    +0.000 NA
ATOM      9  N   UNL     1       1.796   8.672  18.870  0.00  0.00    +0.000 N 
ENDROOT
BRANCH   1  14
ATOM     10  C   UNL     1      -1.390  12.280  19.158  0.00  0.00    +0.000 A 
ATOM     11  C   UNL     1      -0.505  13.243  18.670  0.00  0.00    +0.000 A 
ATOM     12  C   UNL     1       0.857  12.967  18.541  0.00  0.00    +0.000 A 
ATOM     13  C   UNL     1       1.352  11.718  18.902  0.00  0.00    +0.000 A 
ATOM     14  C   UNL     1       0.488  10.747  19.418  0.00  0.00    +0.000 A 
ATOM     15  C   UNL     1      -0.881  11.037  19.559  0.00  0.00    +0.000 A 
BRANCH  10  18
ATOM     16  C   UNL     1      -3.773  11.826  18.593  0.00  0.00    +0.000 C 
ATOM     17  O   UNL     1      -3.610  10.844  17.876  0.00  0.00    +0.000 OA
ATOM     18  N   UNL     1      -2.781  12.510  19.280  0.00  0.00    +0.000 N 
ATOM     19  H   UNL     1      -3.077  13.157  19.998  0.00  0.00    +0.000 HD
BRANCH  16  20
ATOM     20  C   UNL     1      -5.171  12.369  18.815  0.00  0.00    +0.000 C 
BRANCH  20  22
ATOM     21  C   UNL     1      -6.952  10.560  18.735  0.00  0.00    +0.000 C 
ATOM     22  C   UNL     1      -6.241  11.674  17.962  0.00  0.00    +0.000 C 
ATOM     23  C   UNL     1      -7.267  12.704  17.483  0.00  0.00    +0.000 C 
ENDBRANCH  20  22
ENDBRANCH  16  20
ENDBRANCH  10  18
ENDBRANCH   1  14
BRANCH   6  24
ATOM     24  C   UNL     1       3.829   5.741  17.997  0.00  0.00    +0.000 C 
ATOM     25  O   UNL     1       5.001   5.840  17.638  0.00  0.00    +0.000 OA
BRANCH  24  26
ATOM     26  C   UNL     1       3.173   4.459  18.226  0.00  0.00    +0.000 A 
ATOM     27  C   UNL     1       1.951   3.976  17.789  0.00  0.00    +0.000 A 
ATOM     28  C   UNL     1       1.688   2.648  18.239  0.00  0.00    +0.000 A 
ATOM     29  C   UNL     1       2.730   2.141  18.979  0.00  0.00    +0.000 A 
ATOM     30  S   UNL     1       4.014   3.258  19.126  0.00  0.00    +0.000 S 
ENDBRANCH  24  26
ENDBRANCH   6  24
TORSDOF 6
ENDMDL
