MODEL 1
REMARK VINA RESULT:      -8.1      0.000      0.000
REMARK  Name = 
REMARK  8 active torsions:
REMARK  status: ('A' for Active; 'I' for Inactive)
REMARK    1  A    between atoms: C_1  and  N_2
REMARK    2  A    between atoms: N_2  and  C_3
REMARK    3  A    between atoms: N_2  and  C_17
REMARK    4  A    between atoms: C_3  and  C_4
REMARK    5  A    between atoms: C_6  and  C_7
REMARK    6  A    between atoms: C_7  and  O_8
REMARK    7  A    between atoms: O_8  and  C_9
REMARK    8  A    between atoms: C_17  and  C_18
REMARK                            x       y       z     vdW  Elec       q    Type
REMARK                         _______ _______ _______ _____ _____    ______ ____
ROOT
ATOM      1  C   UNL     1       5.754   6.303  16.589  0.00  0.00    +0.000 C 
ENDROOT
BRANCH   1   2
ATOM      2  C   UNL     1       6.813   7.118  17.275  0.00  0.00    +0.000 A 
ATOM      3  N   UNL     1       7.178   8.361  17.038  0.00  0.00    +0.000 NA
ATOM      4  C   UNL     1       8.102   8.589  18.034  0.00  0.00    +0.000 A 
ATOM      5  N   UNL     1       8.332   7.537  18.833  0.00  0.00    +0.000 NA
ATOM      6  O   UNL     1       7.498   6.550  18.313  0.00  0.00    +0.000 OA
BRANCH   4   7
ATOM      7  C   UNL     1       8.799   9.895  18.220  0.00  0.00    +0.000 C 
BRANCH   7   8
ATOM      8  O   UNL     1       9.538   9.910  19.449  0.00  0.00    +0.000 OA
BRANCH   8   9
ATOM      9  C   UNL     1       9.818  11.141  19.972  0.00  0.00    +0.000 A 
ATOM     10  C   UNL     1       9.117  11.459  21.138  0.00  0.00    +0.000 A 
ATOM     11  C   UNL     1       9.332  12.676  21.786  0.00  0.00    +0.000 A 
ATOM     12  C   UNL     1      10.266  13.576  21.280  0.00  0.00    +0.000 A 
ATOM     13  C   UNL     1      10.983  13.257  20.128  0.00  0.00    +0.000 A 
ATOM     14  C   UNL     1      10.760  12.041  19.472  0.00  0.00    +0.000 A 
ENDBRANCH   8   9
ENDBRANCH   7   8
ENDBRANCH   4   7
ENDBRANCH   1   2
BRANCH   1  16
ATOM     15  C   UNL     1       7.044   4.340  16.062  0.00  0.00    +0.000 C 
ATOM     16  N   UNL     1       5.843   4.830  16.752  0.00  0.00    +0.000 NA
BRANCH  16  17
ATOM     17  C   UNL     1       4.637   4.141  16.231  0.00  0.00    +0.000 C 
BRANCH  17  18
ATOM     18  C   UNL     1       3.730   3.465  17.281  0.00  0.00    +0.000 C 
ATOM     19  C   UNL     1       2.449   4.247  17.615  0.00  0.00    +0.000 C 
ATOM     20  C   UNL     1       2.239   3.729  18.988  0.00  0.00    +0.000 A 
ATOM     21  C   UNL     1       1.120   3.798  19.798  0.00  0.00    +0.000 A 
ATOM     22  C   UNL     1       1.206   3.265  21.083  0.00  0.00    +0.000 A 
ATOM     23  C   UNL     1       2.403   2.693  21.546  0.00  0.00    +0.000 A 
ATOM     24  C   UNL     1       3.531   2.648  20.721  0.00  0.00    +0.000 A 
ATOM     25  C   UNL     1       3.423   3.161  19.448  0.00  0.00    +0.000 A 
ATOM     26  O   UNL     1       4.434   3.179  18.520  0.00  0.00    +0.000 OA
ENDBRANCH  17  18
ENDBRANCH  16  17
ENDBRANCH   1  16
TORSDOF 7
ENDMDL
MODEL 2
REMARK VINA RESULT:      -7.8      4.812      6.772
REMARK  Name = 
REMARK  8 active torsions:
REMARK  status: ('A' for Active; 'I' for Inactive)
REMARK    1  A    between atoms: C_1  and  N_2
REMARK    2  A    between atoms: N_2  and  C_3
REMARK    3  A    between atoms: N_2  and  C_17
REMARK    4  A    between atoms: C_3  and  C_4
REMARK    5  A    between atoms: C_6  and  C_7
REMARK    6  A    between atoms: C_7  and  O_8
REMARK    7  A    between atoms: O_8  and  C_9
REMARK    8  A    between atoms: C_17  and  C_18
REMARK                            x       y       z     vdW  Elec       q    Type
REMARK                         _______ _______ _______ _____ _____    ______ ____
ROOT
ATOM      1  C   UNL     1       4.739   6.379  16.491  0.00  0.00    +0.000 C 
ENDROOT
BRANCH   1   2
ATOM      2  C   UNL     1       3.808   7.087  17.433  0.00  0.00    +0.000 A 
ATOM      3  N   UNL     1       3.123   8.195  17.237  0.00  0.00    +0.000 NA
ATOM      4  C   UNL     1       2.385   8.291  18.395  0.00  0.00    +0.000 A 
ATOM      5  N   UNL     1       2.616   7.316  19.287  0.00  0.00    +0.000 NA
ATOM      6  O   UNL     1       3.582   6.531  18.661  0.00  0.00    +0.000 OA
BRANCH   4   7
ATOM      7  C   UNL     1       1.403   9.384  18.652  0.00  0.00    +0.000 C 
BRANCH   7   8
ATOM      8  O   UNL     1       0.374   9.394  17.653  0.00  0.00    +0.000 OA
BRANCH   8   9
ATOM      9  C   UNL     1      -0.742  10.129  17.939  0.00  0.00    +0.000 A 
ATOM     10  C   UNL     1      -1.848   9.859  17.131  0.00  0.00    +0.000 A 
ATOM     11  C   UNL     1      -3.058  10.523  17.338  0.00  0.00    +0.000 A 
ATOM     12  C   UNL     1      -3.172  11.450  18.370  0.00  0.00    +0.000 A 
ATOM     13  C   UNL     1      -2.078  11.711  19.193  0.00  0.00    +0.000 A 
ATOM     14  C   UNL     1      -0.862  11.052  18.979  0.00  0.00    +0.000 A 
ENDBRANCH   8   9
ENDBRANCH   7   8
ENDBRANCH   4   7
ENDBRANCH   1   2
BRANCH   1  16
ATOM     15  C   UNL     1       6.852   5.235  16.640  0.00  0.00    +0.000 C 
ATOM     16  N   UNL     1       5.435   5.181  17.024  0.00  0.00    +0.000 NA
BRANCH  16  17
ATOM     17  C   UNL     1       4.820   3.921  16.537  0.00  0.00    +0.000 C 
BRANCH  17  18
ATOM     18  C   UNL     1       3.915   3.171  17.537  0.00  0.00    +0.000 C 
ATOM     19  C   UNL     1       2.432   3.572  17.478  0.00  0.00    +0.000 C 
ATOM     20  C   UNL     1       2.067   3.232  18.874  0.00  0.00    +0.000 A 
ATOM     21  C   UNL     1       0.818   3.083  19.451  0.00  0.00    +0.000 A 
ATOM     22  C   UNL     1       0.754   2.804  20.815  0.00  0.00    +0.000 A 
ATOM     23  C   UNL     1       1.926   2.698  21.583  0.00  0.00    +0.000 A 
ATOM     24  C   UNL     1       3.179   2.870  20.988  0.00  0.00    +0.000 A 
ATOM     25  C   UNL     1       3.226   3.125  19.636  0.00  0.00    +0.000 A 
ATOM     26  O   UNL     1       4.376   3.305  18.910  0.00  0.00    +0.000 OA
ENDBRANCH  17  18
ENDBRANCH  16  17
ENDBRANCH   1  16
TORSDOF 7
ENDMDL
MODEL 3
REMARK VINA RESULT:      -7.8      3.662      8.360
REMARK  Name = 
REMARK  8 active torsions:
REMARK  status: ('A' for Active; 'I' for Inactive)
REMARK    1  A    between atoms: C_1  and  N_2
REMARK    2  A    between atoms: N_2  and  C_3
REMARK    3  A    between atoms: N_2  and  C_17
REMARK    4  A    between atoms: C_3  and  C_4
REMARK    5  A    between atoms: C_6  and  C_7
REMARK    6  A    between atoms: C_7  and  O_8
REMARK    7  A    between atoms: O_8  and  C_9
REMARK    8  A    between atoms: C_17  and  C_18
REMARK                            x       y       z     vdW  Elec       q    Type
REMARK                         _______ _______ _______ _____ _____    ______ ____
ROOT
ATOM      1  C   UNL     1       5.637   7.031  17.661  0.00  0.00    +0.000 C 
ENDROOT
BRANCH   1   2
ATOM      2  C   UNL     1       4.301   6.800  18.306  0.00  0.00    +0.000 A 
ATOM      3  N   UNL     1       3.991   5.985  19.293  0.00  0.00    +0.000 NA
ATOM      4  C   UNL     1       2.665   6.283  19.513  0.00  0.00    +0.000 A 
ATOM      5  N   UNL     1       2.156   7.210  18.688  0.00  0.00    +0.000 NA
ATOM      6  O   UNL     1       3.234   7.535  17.867  0.00  0.00    +0.000 OA
BRANCH   4   7
ATOM      7  C   UNL     1       1.846   5.635  20.579  0.00  0.00    +0.000 C 
BRANCH   7   8
ATOM      8  O   UNL     1       1.176   4.473  20.074  0.00  0.00    +0.000 OA
BRANCH   8   9
ATOM      9  C   UNL     1       1.969   3.510  19.517  0.00  0.00    +0.000 A 
ATOM     10  C   UNL     1       1.758   3.290  18.153  0.00  0.00    +0.000 A 
ATOM     11  C   UNL     1       2.522   2.351  17.459  0.00  0.00    +0.000 A 
ATOM     12  C   UNL     1       3.517   1.639  18.123  0.00  0.00    +0.000 A 
ATOM     13  C   UNL     1       3.746   1.868  19.479  0.00  0.00    +0.000 A 
ATOM     14  C   UNL     1       2.974   2.802  20.178  0.00  0.00    +0.000 A 
ENDBRANCH   8   9
ENDBRANCH   7   8
ENDBRANCH   4   7
ENDBRANCH   1   2
BRANCH   1  16
ATOM     15  C   UNL     1       7.956   7.147  18.296  0.00  0.00    +0.000 C 
ATOM     16  N   UNL     1       6.782   6.268  18.219  0.00  0.00    +0.000 NA
BRANCH  16  17
ATOM     17  C   UNL     1       7.095   5.066  17.407  0.00  0.00    +0.000 C 
BRANCH  17  18
ATOM     18  C   UNL     1       6.612   5.088  15.941  0.00  0.00    +0.000 C 
ATOM     19  C   UNL     1       5.926   3.792  15.477  0.00  0.00    +0.000 C 
ATOM     20  C   UNL     1       6.224   3.904  14.030  0.00  0.00    +0.000 A 
ATOM     21  C   UNL     1       5.677   3.219  12.959  0.00  0.00    +0.000 A 
ATOM     22  C   UNL     1       6.177   3.486  11.685  0.00  0.00    +0.000 A 
ATOM     23  C   UNL     1       7.220   4.409  11.501  0.00  0.00    +0.000 A 
ATOM     24  C   UNL     1       7.774   5.079  12.595  0.00  0.00    +0.000 A 
ATOM     25  C   UNL     1       7.255   4.819  13.844  0.00  0.00    +0.000 A 
ATOM     26  O   UNL     1       7.683   5.403  15.009  0.00  0.00    +0.000 OA
ENDBRANCH  17  18
ENDBRANCH  16  17
ENDBRANCH   1  16
TORSDOF 7
ENDMDL
MODEL 4
REMARK VINA RESULT:      -7.7      4.975      7.473
REMARK  Name = 
REMARK  8 active torsions:
REMARK  status: ('A' for Active; 'I' for Inactive)
REMARK    1  A    between atoms: C_1  and  N_2
REMARK    2  A    between atoms: N_2  and  C_3
REMARK    3  A    between atoms: N_2  and  C_17
REMARK    4  A    between atoms: C_3  and  C_4
REMARK    5  A    between atoms: C_6  and  C_7
REMARK    6  A    between atoms: C_7  and  O_8
REMARK    7  A    between atoms: O_8  and  C_9
REMARK    8  A    between atoms: C_17  and  C_18
REMARK                            x       y       z     vdW  Elec       q    Type
REMARK                         _______ _______ _______ _____ _____    ______ ____
ROOT
ATOM      1  C   UNL     1       3.530   4.093  19.505  0.00  0.00    +0.000 C 
ENDROOT
BRANCH   1   2
ATOM      2  C   UNL     1       4.889   4.392  18.939  0.00  0.00    +0.000 A 
ATOM      3  N   UNL     1       5.414   3.991  17.800  0.00  0.00    +0.000 NA
ATOM      4  C   UNL     1       6.618   4.658  17.782  0.00  0.00    +0.000 A 
ATOM      5  N   UNL     1       6.855   5.411  18.866  0.00  0.00    +0.000 NA
ATOM      6  O   UNL     1       5.720   5.213  19.649  0.00  0.00    +0.000 OA
BRANCH   4   7
ATOM      7  C   UNL     1       7.592   4.560  16.656  0.00  0.00    +0.000 C 
BRANCH   7   8
ATOM      8  O   UNL     1       7.233   5.449  15.590  0.00  0.00    +0.000 OA
BRANCH   8   9
ATOM      9  C   UNL     1       6.853   4.864  14.415  0.00  0.00    +0.000 A 
ATOM     10  C   UNL     1       7.718   5.085  13.340  0.00  0.00    +0.000 A 
ATOM     11  C   UNL     1       7.457   4.520  12.091  0.00  0.00    +0.000 A 
ATOM     12  C   UNL     1       6.335   3.714  11.915  0.00  0.00    +0.000 A 
ATOM     13  C   UNL     1       5.478   3.475  12.988  0.00  0.00    +0.000 A 
ATOM     14  C   UNL     1       5.735   4.049  14.238  0.00  0.00    +0.000 A 
ENDBRANCH   8   9
ENDBRANCH   7   8
ENDBRANCH   4   7
ENDBRANCH   1   2
BRANCH   1  16
ATOM     15  C   UNL     1       1.504   4.121  18.205  0.00  0.00    +0.000 C 
ATOM     16  N   UNL     1       2.410   4.939  19.022  0.00  0.00    +0.000 NA
BRANCH  16  17
ATOM     17  C   UNL     1       2.893   6.104  18.241  0.00  0.00    +0.000 C 
BRANCH  17  18
ATOM     18  C   UNL     1       2.625   7.495  18.852  0.00  0.00    +0.000 C 
ATOM     19  C   UNL     1       1.898   7.467  20.207  0.00  0.00    +0.000 C 
ATOM     20  C   UNL     1       1.257   8.800  20.130  0.00  0.00    +0.000 A 
ATOM     21  C   UNL     1       0.663   9.555  21.126  0.00  0.00    +0.000 A 
ATOM     22  C   UNL     1       0.084  10.773  20.770  0.00  0.00    +0.000 A 
ATOM     23  C   UNL     1       0.088  11.207  19.434  0.00  0.00    +0.000 A 
ATOM     24  C   UNL     1       0.676  10.423  18.436  0.00  0.00    +0.000 A 
ATOM     25  C   UNL     1       1.261   9.233  18.808  0.00  0.00    +0.000 A 
ATOM     26  O   UNL     1       1.886   8.364  17.950  0.00  0.00    +0.000 OA
ENDBRANCH  17  18
ENDBRANCH  16  17
ENDBRANCH   1  16
TORSDOF 7
ENDMDL
MODEL 5
REMARK VINA RESULT:      -7.6      1.751      2.012
REMARK  Name = 
REMARK  8 active torsions:
REMARK  status: ('A' for Active; 'I' for Inactive)
REMARK    1  A    between atoms: C_1  and  N_2
REMARK    2  A    between atoms: N_2  and  C_3
REMARK    3  A    between atoms: N_2  and  C_17
REMARK    4  A    between atoms: C_3  and  C_4
REMARK    5  A    between atoms: C_6  and  C_7
REMARK    6  A    between atoms: C_7  and  O_8
REMARK    7  A    between atoms: O_8  and  C_9
REMARK    8  A    between atoms: C_17  and  C_18
REMARK                            x       y       z     vdW  Elec       q    Type
REMARK                         _______ _______ _______ _____ _____    ______ ____
ROOT
ATOM      1  C   UNL     1       6.807   4.553  17.628  0.00  0.00    +0.000 C 
ENDROOT
BRANCH   1   2
ATOM      2  C   UNL     1       7.408   5.904  17.887  0.00  0.00    +0.000 A 
ATOM      3  N   UNL     1       7.250   7.021  17.206  0.00  0.00    +0.000 NA
ATOM      4  C   UNL     1       7.949   7.929  17.968  0.00  0.00    +0.000 A 
ATOM      5  N   UNL     1       8.544   7.409  19.051  0.00  0.00    +0.000 NA
ATOM      6  O   UNL     1       8.209   6.059  18.984  0.00  0.00    +0.000 OA
BRANCH   4   7
ATOM      7  C   UNL     1       8.047   9.379  17.628  0.00  0.00    +0.000 C 
BRANCH   7   8
ATOM      8  O   UNL     1       8.769  10.094  18.639  0.00  0.00    +0.000 OA
BRANCH   8   9
ATOM      9  C   UNL     1       9.363  11.262  18.249  0.00  0.00    +0.000 A 
ATOM     10  C   UNL     1      10.740  11.177  18.027  0.00  0.00    +0.000 A 
ATOM     11  C   UNL     1      11.460  12.293  17.599  0.00  0.00    +0.000 A 
ATOM     12  C   UNL     1      10.801  13.498  17.371  0.00  0.00    +0.000 A 
ATOM     13  C   UNL     1       9.424  13.585  17.572  0.00  0.00    +0.000 A 
ATOM     14  C   UNL     1       8.704  12.468  18.011  0.00  0.00    +0.000 A 
ENDBRANCH   8   9
ENDBRANCH   7   8
ENDBRANCH   4   7
ENDBRANCH   1   2
BRANCH   1  16
ATOM     15  C   UNL     1       6.863   4.616  15.222  0.00  0.00    +0.000 C 
ATOM     16  N   UNL     1       5.998   4.413  16.392  0.00  0.00    +0.000 NA
BRANCH  16  17
ATOM     17  C   UNL     1       4.863   5.368  16.361  0.00  0.00    +0.000 C 
BRANCH  17  18
ATOM     18  C   UNL     1       3.616   4.974  17.181  0.00  0.00    +0.000 C 
ATOM     19  C   UNL     1       3.456   5.740  18.505  0.00  0.00    +0.000 C 
ATOM     20  C   UNL     1       2.676   4.720  19.245  0.00  0.00    +0.000 A 
ATOM     21  C   UNL     1       1.950   4.839  20.416  0.00  0.00    +0.000 A 
ATOM     22  C   UNL     1       1.340   3.696  20.931  0.00  0.00    +0.000 A 
ATOM     23  C   UNL     1       1.478   2.455  20.285  0.00  0.00    +0.000 A 
ATOM     24  C   UNL     1       2.231   2.348  19.112  0.00  0.00    +0.000 A 
ATOM     25  C   UNL     1       2.810   3.491  18.607  0.00  0.00    +0.000 A 
ATOM     26  O   UNL     1       3.565   3.549  17.462  0.00  0.00    +0.000 OA
ENDBRANCH  17  18
ENDBRANCH  16  17
ENDBRANCH   1  16
TORSDOF 7
ENDMDL
MODEL 6
REMARK VINA RESULT:      -7.6      1.263      1.633
REMARK  Name = 
REMARK  8 active torsions:
REMARK  status: ('A' for Active; 'I' for Inactive)
REMARK    1  A    between atoms: C_1  and  N_2
REMARK    2  A    between atoms: N_2  and  C_3
REMARK    3  A    between atoms: N_2  and  C_17
REMARK    4  A    between atoms: C_3  and  C_4
REMARK    5  A    between atoms: C_6  and  C_7
REMARK    6  A    between atoms: C_7  and  O_8
REMARK    7  A    between atoms: O_8  and  C_9
REMARK    8  A    between atoms: C_17  and  C_18
REMARK                            x       y       z     vdW  Elec       q    Type
REMARK                         _______ _______ _______ _____ _____    ______ ____
ROOT
ATOM      1  C   UNL     1       6.472   5.287  17.240  0.00  0.00    +0.000 C 
ENDROOT
BRANCH   1   2
ATOM      2  C   UNL     1       7.228   6.522  17.636  0.00  0.00    +0.000 A 
ATOM      3  N   UNL     1       7.152   7.734  17.126  0.00  0.00    +0.000 NA
ATOM      4  C   UNL     1       7.988   8.451  17.952  0.00  0.00    +0.000 A 
ATOM      5  N   UNL     1       8.585   7.726  18.909  0.00  0.00    +0.000 NA
ATOM      6  O   UNL     1       8.103   6.439  18.683  0.00  0.00    +0.000 OA
BRANCH   4   7
ATOM      7  C   UNL     1       8.221   9.918  17.806  0.00  0.00    +0.000 C 
BRANCH   7   8
ATOM      8  O   UNL     1       9.586  10.250  18.094  0.00  0.00    +0.000 OA
BRANCH   8   9
ATOM      9  C   UNL     1       9.787  11.262  18.991  0.00  0.00    +0.000 A 
ATOM     10  C   UNL     1       9.314  11.008  20.280  0.00  0.00    +0.000 A 
ATOM     11  C   UNL     1       9.481  11.951  21.296  0.00  0.00    +0.000 A 
ATOM     12  C   UNL     1      10.140  13.148  21.030  0.00  0.00    +0.000 A 
ATOM     13  C   UNL     1      10.631  13.400  19.749  0.00  0.00    +0.000 A 
ATOM     14  C   UNL     1      10.455  12.459  18.729  0.00  0.00    +0.000 A 
ENDBRANCH   8   9
ENDBRANCH   7   8
ENDBRANCH   4   7
ENDBRANCH   1   2
BRANCH   1  16
ATOM     15  C   UNL     1       5.417   5.905  15.166  0.00  0.00    +0.000 C 
ATOM     16  N   UNL     1       5.171   5.496  16.556  0.00  0.00    +0.000 NA
BRANCH  16  17
ATOM     17  C   UNL     1       4.338   6.510  17.248  0.00  0.00    +0.000 C 
BRANCH  17  18
ATOM     18  C   UNL     1       3.201   5.967  18.139  0.00  0.00    +0.000 C 
ATOM     19  C   UNL     1       3.619   5.654  19.586  0.00  0.00    +0.000 C 
ATOM     20  C   UNL     1       2.602   4.617  19.878  0.00  0.00    +0.000 A 
ATOM     21  C   UNL     1       2.209   4.080  21.091  0.00  0.00    +0.000 A 
ATOM     22  C   UNL     1       1.250   3.069  21.083  0.00  0.00    +0.000 A 
ATOM     23  C   UNL     1       0.714   2.597  19.872  0.00  0.00    +0.000 A 
ATOM     24  C   UNL     1       1.135   3.137  18.653  0.00  0.00    +0.000 A 
ATOM     25  C   UNL     1       2.069   4.149  18.681  0.00  0.00    +0.000 A 
ATOM     26  O   UNL     1       2.569   4.786  17.574  0.00  0.00    +0.000 OA
ENDBRANCH  17  18
ENDBRANCH  16  17
ENDBRANCH   1  16
TORSDOF 7
ENDMDL
MODEL 7
REMARK VINA RESULT:      -7.6      0.833      1.428
REMARK  Name = 
REMARK  8 active torsions:
REMARK  status: ('A' for Active; 'I' for Inactive)
REMARK    1  A    between atoms: C_1  and  N_2
REMARK    2  A    between atoms: N_2  and  C_3
REMARK    3  A    between atoms: N_2  and  C_17
REMARK    4  A    between atoms: C_3  and  C_4
REMARK    5  A    between atoms: C_6  and  C_7
REMARK    6  A    between atoms: C_7  and  O_8
REMARK    7  A    between atoms: O_8  and  C_9
REMARK    8  A    between atoms: C_17  and  C_18
REMARK                            x       y       z     vdW  Elec       q    Type
REMARK                         _______ _______ _______ _____ _____    ______ ____
ROOT
ATOM      1  C   UNL     1       6.685   4.894  17.929  0.00  0.00    +0.000 C 
ENDROOT
BRANCH   1   2
ATOM      2  C   UNL     1       6.965   6.364  17.803  0.00  0.00    +0.000 A 
ATOM      3  N   UNL     1       8.001   7.047  18.243  0.00  0.00    +0.000 NA
ATOM      4  C   UNL     1       7.754   8.307  17.745  0.00  0.00    +0.000 A 
ATOM      5  N   UNL     1       6.608   8.421  17.058  0.00  0.00    +0.000 NA
ATOM      6  O   UNL     1       6.068   7.138  17.119  0.00  0.00    +0.000 OA
BRANCH   4   7
ATOM      7  C   UNL     1       8.677   9.462  17.946  0.00  0.00    +0.000 C 
BRANCH   7   8
ATOM      8  O   UNL     1       8.986   9.635  19.335  0.00  0.00    +0.000 OA
BRANCH   8   9
ATOM      9  C   UNL     1       9.663  10.775  19.668  0.00  0.00    +0.000 A 
ATOM     10  C   UNL     1      10.429  11.326  18.638  0.00  0.00    +0.000 A 
ATOM     11  C   UNL     1      11.147  12.506  18.842  0.00  0.00    +0.000 A 
ATOM     12  C   UNL     1      11.088  13.150  20.074  0.00  0.00    +0.000 A 
ATOM     13  C   UNL     1      10.310  12.615  21.100  0.00  0.00    +0.000 A 
ATOM     14  C   UNL     1       9.598  11.428  20.899  0.00  0.00    +0.000 A 
ENDBRANCH   8   9
ENDBRANCH   7   8
ENDBRANCH   4   7
ENDBRANCH   1   2
BRANCH   1  16
ATOM     15  C   UNL     1       7.230   4.582  15.605  0.00  0.00    +0.000 C 
ATOM     16  N   UNL     1       6.315   4.181  16.681  0.00  0.00    +0.000 NA
BRANCH  16  17
ATOM     17  C   UNL     1       4.910   4.450  16.286  0.00  0.00    +0.000 C 
BRANCH  17  18
ATOM     18  C   UNL     1       3.818   3.912  17.235  0.00  0.00    +0.000 C 
ATOM     19  C   UNL     1       2.911   4.996  17.842  0.00  0.00    +0.000 C 
ATOM     20  C   UNL     1       2.527   4.278  19.080  0.00  0.00    +0.000 A 
ATOM     21  C   UNL     1       1.510   4.547  19.979  0.00  0.00    +0.000 A 
ATOM     22  C   UNL     1       1.394   3.731  21.104  0.00  0.00    +0.000 A 
ATOM     23  C   UNL     1       2.300   2.680  21.325  0.00  0.00    +0.000 A 
ATOM     24  C   UNL     1       3.333   2.433  20.416  0.00  0.00    +0.000 A 
ATOM     25  C   UNL     1       3.421   3.236  19.301  0.00  0.00    +0.000 A 
ATOM     26  O   UNL     1       4.369   3.111  18.316  0.00  0.00    +0.000 OA
ENDBRANCH  17  18
ENDBRANCH  16  17
ENDBRANCH   1  16
TORSDOF 7
ENDMDL
MODEL 8
REMARK VINA RESULT:      -7.6      1.673      2.257
REMARK  Name = 
REMARK  8 active torsions:
REMARK  status: ('A' for Active; 'I' for Inactive)
REMARK    1  A    between atoms: C_1  and  N_2
REMARK    2  A    between atoms: N_2  and  C_3
REMARK    3  A    between atoms: N_2  and  C_17
REMARK    4  A    between atoms: C_3  and  C_4
REMARK    5  A    between atoms: C_6  and  C_7
REMARK    6  A    between atoms: C_7  and  O_8
REMARK    7  A    between atoms: O_8  and  C_9
REMARK    8  A    between atoms: C_17  and  C_18
REMARK                            x       y       z     vdW  Elec       q    Type
REMARK                         _______ _______ _______ _____ _____    ______ ____
ROOT
ATOM      1  C   UNL     1       6.098   6.668  16.586  0.00  0.00    +0.000 C 
ENDROOT
BRANCH   1   2
ATOM      2  C   UNL     1       7.097   7.503  17.333  0.00  0.00    +0.000 A 
ATOM      3  N   UNL     1       7.297   8.804  17.268  0.00  0.00    +0.000 NA
ATOM      4  C   UNL     1       8.253   9.001  18.239  0.00  0.00    +0.000 A 
ATOM      5  N   UNL     1       8.659   7.883  18.859  0.00  0.00    +0.000 NA
ATOM      6  O   UNL     1       7.913   6.883  18.239  0.00  0.00    +0.000 OA
BRANCH   4   7
ATOM      7  C   UNL     1       8.803  10.344  18.585  0.00  0.00    +0.000 C 
BRANCH   7   8
ATOM      8  O   UNL     1       9.958  10.645  17.791  0.00  0.00    +0.000 OA
BRANCH   8   9
ATOM      9  C   UNL     1      10.331  11.959  17.735  0.00  0.00    +0.000 A 
ATOM     10  C   UNL     1      11.614  12.186  17.232  0.00  0.00    +0.000 A 
ATOM     11  C   UNL     1      12.104  13.486  17.099  0.00  0.00    +0.000 A 
ATOM     12  C   UNL     1      11.303  14.569  17.452  0.00  0.00    +0.000 A 
ATOM     13  C   UNL     1      10.015  14.350  17.937  0.00  0.00    +0.000 A 
ATOM     14  C   UNL     1       9.527  13.046  18.079  0.00  0.00    +0.000 A 
ENDBRANCH   8   9
ENDBRANCH   7   8
ENDBRANCH   4   7
ENDBRANCH   1   2
BRANCH   1  16
ATOM     15  C   UNL     1       6.039   4.996  14.855  0.00  0.00    +0.000 C 
ATOM     16  N   UNL     1       6.531   5.300  16.205  0.00  0.00    +0.000 NA
BRANCH  16  17
ATOM     17  C   UNL     1       6.049   4.278  17.167  0.00  0.00    +0.000 C 
BRANCH  17  18
ATOM     18  C   UNL     1       4.637   4.501  17.750  0.00  0.00    +0.000 C 
ATOM     19  C   UNL     1       4.601   4.702  19.274  0.00  0.00    +0.000 C 
ATOM     20  C   UNL     1       3.222   4.217  19.518  0.00  0.00    +0.000 A 
ATOM     21  C   UNL     1       2.417   4.362  20.634  0.00  0.00    +0.000 A 
ATOM     22  C   UNL     1       1.160   3.760  20.620  0.00  0.00    +0.000 A 
ATOM     23  C   UNL     1       0.735   3.009  19.510  0.00  0.00    +0.000 A 
ATOM     24  C   UNL     1       1.568   2.857  18.398  0.00  0.00    +0.000 A 
ATOM     25  C   UNL     1       2.798   3.475  18.420  0.00  0.00    +0.000 A 
ATOM     26  O   UNL     1       3.718   3.429  17.403  0.00  0.00    +0.000 OA
ENDBRANCH  17  18
ENDBRANCH  16  17
ENDBRANCH   1  16
TORSDOF 7
ENDMDL
MODEL 9
REMARK VINA RESULT:      -7.5      4.593      6.147
REMARK  Name = 
REMARK  8 active torsions:
REMARK  status: ('A' for Active; 'I' for Inactive)
REMARK    1  A    between atoms: C_1  and  N_2
REMARK    2  A    between atoms: N_2  and  C_3
REMARK    3  A    between atoms: N_2  and  C_17
REMARK    4  A    between atoms: C_3  and  C_4
REMARK    5  A    between atoms: C_6  and  C_7
REMARK    6  A    between atoms: C_7  and  O_8
REMARK    7  A    between atoms: O_8  and  C_9
REMARK    8  A    between atoms: C_17  and  C_18
REMARK                            x       y       z     vdW  Elec       q    Type
REMARK                         _______ _______ _______ _____ _____    ______ ____
ROOT
ATOM      1  C   UNL     1       5.731   6.256  16.845  0.00  0.00    +0.000 C 
ENDROOT
BRANCH   1   2
ATOM      2  C   UNL     1       4.522   6.901  17.458  0.00  0.00    +0.000 A 
ATOM      3  N   UNL     1       3.694   7.775  16.924  0.00  0.00    +0.000 NA
ATOM      4  C   UNL     1       2.742   7.915  17.909  0.00  0.00    +0.000 A 
ATOM      5  N   UNL     1       2.976   7.197  19.017  0.00  0.00    +0.000 NA
ATOM      6  O   UNL     1       4.172   6.545  18.731  0.00  0.00    +0.000 OA
BRANCH   4   7
ATOM      7  C   UNL     1       1.543   8.793  17.770  0.00  0.00    +0.000 C 
BRANCH   7   8
ATOM      8  O   UNL     1       1.083   9.238  19.052  0.00  0.00    +0.000 OA
BRANCH   8   9
ATOM      9  C   UNL     1       0.025  10.104  19.049  0.00  0.00    +0.000 A 
ATOM     10  C   UNL     1       0.022  11.032  20.093  0.00  0.00    +0.000 A 
ATOM     11  C   UNL     1      -0.990  11.989  20.188  0.00  0.00    +0.000 A 
ATOM     12  C   UNL     1      -1.995  12.034  19.226  0.00  0.00    +0.000 A 
ATOM     13  C   UNL     1      -1.987  11.123  18.171  0.00  0.00    +0.000 A 
ATOM     14  C   UNL     1      -0.978  10.158  18.081  0.00  0.00    +0.000 A 
ENDBRANCH   8   9
ENDBRANCH   7   8
ENDBRANCH   4   7
ENDBRANCH   1   2
BRANCH   1  16
ATOM     15  C   UNL     1       6.939   4.308  16.105  0.00  0.00    +0.000 C 
ATOM     16  N   UNL     1       5.781   4.772  16.882  0.00  0.00    +0.000 NA
BRANCH  16  17
ATOM     17  C   UNL     1       4.535   4.163  16.357  0.00  0.00    +0.000 C 
BRANCH  17  18
ATOM     18  C   UNL     1       3.666   3.398  17.378  0.00  0.00    +0.000 C 
ATOM     19  C   UNL     1       2.271   4.004  17.609  0.00  0.00    +0.000 C 
ATOM     20  C   UNL     1       2.050   3.503  18.986  0.00  0.00    +0.000 A 
ATOM     21  C   UNL     1       0.884   3.440  19.728  0.00  0.00    +0.000 A 
ATOM     22  C   UNL     1       0.963   2.961  21.035  0.00  0.00    +0.000 A 
ATOM     23  C   UNL     1       2.196   2.575  21.586  0.00  0.00    +0.000 A 
ATOM     24  C   UNL     1       3.368   2.663  20.830  0.00  0.00    +0.000 A 
ATOM     25  C   UNL     1       3.270   3.119  19.534  0.00  0.00    +0.000 A 
ATOM     26  O   UNL     1       4.324   3.249  18.665  0.00  0.00    +0.000 OA
ENDBRANCH  17  18
ENDBRANCH  16  17
ENDBRANCH   1  16
TORSDOF 7
ENDMDL
