MODEL 1
REMARK VINA RESULT:      -7.7      0.000      0.000
REMARK  Name = 
REMARK  6 active torsions:
REMARK  status: ('A' for Active; 'I' for Inactive)
REMARK    1  A    between atoms: C_1  and  O_2
REMARK    2  A    between atoms: O_2  and  C_3
REMARK    3  A    between atoms: C_6  and  S_7
REMARK    4  A    between atoms: S_7  and  C_10
REMARK    5  A    between atoms: C_14  and  C_16
REMARK    6  A    between atoms: C_16  and  N_17
REMARK                            x       y       z     vdW  Elec       q    Type
REMARK                         _______ _______ _______ _____ _____    ______ ____
ROOT
ATOM      1  C   UNL     1       1.928   2.990  18.408  0.00  0.00    +0.000 C 
ATOM      2  C   UNL     1       1.857   4.274  17.599  0.00  0.00    +0.000 C 
ATOM      3  C   UNL     1       2.131   5.525  18.421  0.00  0.00    +0.000 C 
ATOM      4  N   UNL     1       1.460   5.595  19.710  0.00  0.00    +0.000 N 
ATOM      5  C   UNL     1       1.489   6.770  20.484  0.00  0.00    +0.000 C 
ATOM      6  O   UNL     1       0.936   6.824  21.589  0.00  0.00    +0.000 OA
ATOM      7  C   UNL     1       1.266   4.354  20.466  0.00  0.00    +0.000 C 
ATOM      8  C   UNL     1       0.982   3.125  19.607  0.00  0.00    +0.000 C 
ENDROOT
BRANCH   1   9
ATOM      9  S   UNL     1       3.587   2.514  18.909  0.00  0.00    +0.000 S 
ATOM     10  O   UNL     1       3.894   1.256  18.256  0.00  0.00    +0.000 OA
ATOM     11  O   UNL     1       3.707   2.629  20.349  0.00  0.00    +0.000 OA
BRANCH   9  15
ATOM     12  C   UNL     1       6.568   5.500  17.085  0.00  0.00    +0.000 A 
ATOM     13  C   UNL     1       6.330   5.482  18.463  0.00  0.00    +0.000 A 
ATOM     14  C   UNL     1       5.408   4.592  19.025  0.00  0.00    +0.000 A 
ATOM     15  C   UNL     1       4.692   3.727  18.195  0.00  0.00    +0.000 A 
ATOM     16  C   UNL     1       4.937   3.719  16.818  0.00  0.00    +0.000 A 
ATOM     17  C   UNL     1       5.872   4.609  16.265  0.00  0.00    +0.000 A 
BRANCH  12  19
ATOM     18  C   UNL     1       7.594   7.618  17.449  0.00  0.00    +0.000 C 
ATOM     19  O   UNL     1       7.477   6.432  16.672  0.00  0.00    +0.000 OA
ENDBRANCH  12  19
ENDBRANCH   9  15
ENDBRANCH   1   9
BRANCH   5  20
ATOM     20  C   UNL     1       2.209   8.019  19.923  0.00  0.00    +0.000 C 
BRANCH  20  21
ATOM     21  N   UNL     1       1.299   9.113  19.643  0.00  0.00    +0.000 N 
ATOM     22  C   UNL     1       1.047   9.587  18.389  0.00  0.00    +0.000 C 
ATOM     23  O   UNL     1       1.494   9.161  17.333  0.00  0.00    +0.000 OA
ATOM     24  C   UNL     1       0.196  10.817  18.486  0.00  0.00    +0.000 C 
ATOM     25  C   UNL     1      -0.080  10.954  19.969  0.00  0.00    +0.000 C 
ATOM     26  C   UNL     1       0.871   9.984  20.601  0.00  0.00    +0.000 C 
ATOM     27  O   UNL     1       1.209  10.018  21.773  0.00  0.00    +0.000 OA
ENDBRANCH  20  21
ENDBRANCH   5  20
TORSDOF 5
ENDMDL
MODEL 2
REMARK VINA RESULT:      -7.7      1.638      2.210
REMARK  Name = 
REMARK  6 active torsions:
REMARK  status: ('A' for Active; 'I' for Inactive)
REMARK    1  A    between atoms: C_1  and  O_2
REMARK    2  A    between atoms: O_2  and  C_3
REMARK    3  A    between atoms: C_6  and  S_7
REMARK    4  A    between atoms: S_7  and  C_10
REMARK    5  A    between atoms: C_14  and  C_16
REMARK    6  A    between atoms: C_16  and  N_17
REMARK                            x       y       z     vdW  Elec       q    Type
REMARK                         _______ _______ _______ _____ _____    ______ ____
ROOT
ATOM      1  C   UNL     1       2.972   4.164  18.732  0.00  0.00    +0.000 C 
ATOM      2  C   UNL     1       2.440   5.247  17.807  0.00  0.00    +0.000 C 
ATOM      3  C   UNL     1       2.355   6.617  18.464  0.00  0.00    +0.000 C 
ATOM      4  N   UNL     1       1.785   6.642  19.804  0.00  0.00    +0.000 N 
ATOM      5  C   UNL     1       1.489   7.859  20.447  0.00  0.00    +0.000 C 
ATOM      6  O   UNL     1       1.024   7.883  21.592  0.00  0.00    +0.000 OA
ATOM      7  C   UNL     1       2.049   5.512  20.697  0.00  0.00    +0.000 C 
ATOM      8  C   UNL     1       2.116   4.155  20.003  0.00  0.00    +0.000 C 
ENDROOT
BRANCH   1   9
ATOM      9  S   UNL     1       4.726   4.294  19.100  0.00  0.00    +0.000 S 
ATOM     10  O   UNL     1       5.160   3.008  19.611  0.00  0.00    +0.000 OA
ATOM     11  O   UNL     1       4.968   5.497  19.872  0.00  0.00    +0.000 OA
BRANCH   9  15
ATOM     12  C   UNL     1       6.710   4.969  15.009  0.00  0.00    +0.000 A 
ATOM     13  C   UNL     1       5.822   3.906  15.203  0.00  0.00    +0.000 A 
ATOM     14  C   UNL     1       5.230   3.680  16.452  0.00  0.00    +0.000 A 
ATOM     15  C   UNL     1       5.553   4.508  17.528  0.00  0.00    +0.000 A 
ATOM     16  C   UNL     1       6.422   5.588  17.341  0.00  0.00    +0.000 A 
ATOM     17  C   UNL     1       7.003   5.814  16.082  0.00  0.00    +0.000 A 
BRANCH  12  19
ATOM     18  C   UNL     1       6.790   4.102  12.793  0.00  0.00    +0.000 C 
ATOM     19  O   UNL     1       7.228   5.060  13.748  0.00  0.00    +0.000 OA
ENDBRANCH  12  19
ENDBRANCH   9  15
ENDBRANCH   1   9
BRANCH   5  20
ATOM     20  C   UNL     1       1.732   9.185  19.689  0.00  0.00    +0.000 C 
BRANCH  20  21
ATOM     21  N   UNL     1       0.593  10.080  19.744  0.00  0.00    +0.000 N 
ATOM     22  C   UNL     1      -0.294  10.243  18.721  0.00  0.00    +0.000 C 
ATOM     23  O   UNL     1      -0.302   9.656  17.648  0.00  0.00    +0.000 OA
ATOM     24  C   UNL     1      -1.238  11.359  19.056  0.00  0.00    +0.000 C 
ATOM     25  C   UNL     1      -0.828  11.777  20.453  0.00  0.00    +0.000 C 
ATOM     26  C   UNL     1       0.482  11.081  20.665  0.00  0.00    +0.000 C 
ATOM     27  O   UNL     1       1.302  11.404  21.508  0.00  0.00    +0.000 OA
ENDBRANCH  20  21
ENDBRANCH   5  20
TORSDOF 5
ENDMDL
MODEL 3
REMARK VINA RESULT:      -7.4      1.564      2.374
REMARK  Name = 
REMARK  6 active torsions:
REMARK  status: ('A' for Active; 'I' for Inactive)
REMARK    1  A    between atoms: C_1  and  O_2
REMARK    2  A    between atoms: O_2  and  C_3
REMARK    3  A    between atoms: C_6  and  S_7
REMARK    4  A    between atoms: S_7  and  C_10
REMARK    5  A    between atoms: C_14  and  C_16
REMARK    6  A    between atoms: C_16  and  N_17
REMARK                            x       y       z     vdW  Elec       q    Type
REMARK                         _______ _______ _______ _____ _____    ______ ____
ROOT
ATOM      1  C   UNL     1       2.778   4.282  18.677  0.00  0.00    +0.000 C 
ATOM      2  C   UNL     1       2.365   5.400  17.735  0.00  0.00    +0.000 C 
ATOM      3  C   UNL     1       2.376   6.776  18.385  0.00  0.00    +0.000 C 
ATOM      4  N   UNL     1       1.774   6.856  19.708  0.00  0.00    +0.000 N 
ATOM      5  C   UNL     1       1.563   8.096  20.339  0.00  0.00    +0.000 C 
ATOM      6  O   UNL     1       1.070   8.165  21.471  0.00  0.00    +0.000 OA
ATOM      7  C   UNL     1       1.917   5.712  20.612  0.00  0.00    +0.000 C 
ATOM      8  C   UNL     1       1.889   4.350  19.924  0.00  0.00    +0.000 C 
ENDROOT
BRANCH   1   9
ATOM      9  S   UNL     1       4.526   4.265  19.094  0.00  0.00    +0.000 S 
ATOM     10  O   UNL     1       4.872   2.907  19.466  0.00  0.00    +0.000 OA
ATOM     11  O   UNL     1       4.814   5.359  20.001  0.00  0.00    +0.000 OA
BRANCH   9  15
ATOM     12  C   UNL     1       6.928   5.017  15.248  0.00  0.00    +0.000 A 
ATOM     13  C   UNL     1       7.059   5.870  16.348  0.00  0.00    +0.000 A 
ATOM     14  C   UNL     1       6.315   5.662  17.515  0.00  0.00    +0.000 A 
ATOM     15  C   UNL     1       5.406   4.604  17.574  0.00  0.00    +0.000 A 
ATOM     16  C   UNL     1       5.282   3.731  16.489  0.00  0.00    +0.000 A 
ATOM     17  C   UNL     1       6.040   3.941  15.325  0.00  0.00    +0.000 A 
BRANCH  12  19
ATOM     18  C   UNL     1       7.322   4.803  12.910  0.00  0.00    +0.000 C 
ATOM     19  O   UNL     1       7.697   5.349  14.169  0.00  0.00    +0.000 OA
ENDBRANCH  12  19
ENDBRANCH   9  15
ENDBRANCH   1   9
BRANCH   5  20
ATOM     20  C   UNL     1       1.938   9.394  19.585  0.00  0.00    +0.000 C 
BRANCH  20  21
ATOM     21  N   UNL     1       0.832  10.327  19.490  0.00  0.00    +0.000 N 
ATOM     22  C   UNL     1       0.458  11.164  20.501  0.00  0.00    +0.000 C 
ATOM     23  O   UNL     1       0.995  11.292  21.592  0.00  0.00    +0.000 OA
ATOM     24  C   UNL     1      -0.814  11.860  20.121  0.00  0.00    +0.000 C 
ATOM     25  C   UNL     1      -1.093  11.373  18.714  0.00  0.00    +0.000 C 
ATOM     26  C   UNL     1      -0.138  10.231  18.536  0.00  0.00    +0.000 C 
ATOM     27  O   UNL     1      -0.259   9.362  17.690  0.00  0.00    +0.000 OA
ENDBRANCH  20  21
ENDBRANCH   5  20
TORSDOF 5
ENDMDL
MODEL 4
REMARK VINA RESULT:      -7.2      0.683      1.297
REMARK  Name = 
REMARK  6 active torsions:
REMARK  status: ('A' for Active; 'I' for Inactive)
REMARK    1  A    between atoms: C_1  and  O_2
REMARK    2  A    between atoms: O_2  and  C_3
REMARK    3  A    between atoms: C_6  and  S_7
REMARK    4  A    between atoms: S_7  and  C_10
REMARK    5  A    between atoms: C_14  and  C_16
REMARK    6  A    between atoms: C_16  and  N_17
REMARK                            x       y       z     vdW  Elec       q    Type
REMARK                         _______ _______ _______ _____ _____    ______ ____
ROOT
ATOM      1  C   UNL     1       1.915   3.019  18.413  0.00  0.00    +0.000 C 
ATOM      2  C   UNL     1       1.890   4.309  17.609  0.00  0.00    +0.000 C 
ATOM      3  C   UNL     1       2.144   5.552  18.450  0.00  0.00    +0.000 C 
ATOM      4  N   UNL     1       1.422   5.621  19.712  0.00  0.00    +0.000 N 
ATOM      5  C   UNL     1       1.433   6.791  20.494  0.00  0.00    +0.000 C 
ATOM      6  O   UNL     1       0.838   6.845  21.577  0.00  0.00    +0.000 OA
ATOM      7  C   UNL     1       1.186   4.378  20.451  0.00  0.00    +0.000 C 
ATOM      8  C   UNL     1       0.924   3.157  19.574  0.00  0.00    +0.000 C 
ENDROOT
BRANCH   1   9
ATOM      9  S   UNL     1       3.548   2.522  18.976  0.00  0.00    +0.000 S 
ATOM     10  O   UNL     1       3.716   1.121  18.642  0.00  0.00    +0.000 OA
ATOM     11  O   UNL     1       3.743   2.969  20.341  0.00  0.00    +0.000 OA
BRANCH   9  15
ATOM     12  C   UNL     1       6.429   4.967  16.359  0.00  0.00    +0.000 A 
ATOM     13  C   UNL     1       5.569   4.027  15.784  0.00  0.00    +0.000 A 
ATOM     14  C   UNL     1       4.704   3.262  16.575  0.00  0.00    +0.000 A 
ATOM     15  C   UNL     1       4.719   3.418  17.962  0.00  0.00    +0.000 A 
ATOM     16  C   UNL     1       5.560   4.371  18.548  0.00  0.00    +0.000 A 
ATOM     17  C   UNL     1       6.417   5.141  17.745  0.00  0.00    +0.000 A 
BRANCH  12  19
ATOM     18  C   UNL     1       7.270   5.138  14.138  0.00  0.00    +0.000 C 
ATOM     19  O   UNL     1       7.232   5.628  15.473  0.00  0.00    +0.000 OA
ENDBRANCH  12  19
ENDBRANCH   9  15
ENDBRANCH   1   9
BRANCH   5  20
ATOM     20  C   UNL     1       2.187   8.036  19.970  0.00  0.00    +0.000 C 
BRANCH  20  21
ATOM     21  N   UNL     1       1.303   9.147  19.678  0.00  0.00    +0.000 N 
ATOM     22  C   UNL     1       1.060   9.612  18.419  0.00  0.00    +0.000 C 
ATOM     23  O   UNL     1       1.495   9.163  17.368  0.00  0.00    +0.000 OA
ATOM     24  C   UNL     1       0.238  10.863  18.503  0.00  0.00    +0.000 C 
ATOM     25  C   UNL     1      -0.032  11.024  19.984  0.00  0.00    +0.000 C 
ATOM     26  C   UNL     1       0.897  10.039  20.627  0.00  0.00    +0.000 C 
ATOM     27  O   UNL     1       1.238  10.080  21.797  0.00  0.00    +0.000 OA
ENDBRANCH  20  21
ENDBRANCH   5  20
TORSDOF 5
ENDMDL
MODEL 5
REMARK VINA RESULT:      -7.1      0.263      1.447
REMARK  Name = 
REMARK  6 active torsions:
REMARK  status: ('A' for Active; 'I' for Inactive)
REMARK    1  A    between atoms: C_1  and  O_2
REMARK    2  A    between atoms: O_2  and  C_3
REMARK    3  A    between atoms: C_6  and  S_7
REMARK    4  A    between atoms: S_7  and  C_10
REMARK    5  A    between atoms: C_14  and  C_16
REMARK    6  A    between atoms: C_16  and  N_17
REMARK                            x       y       z     vdW  Elec       q    Type
REMARK                         _______ _______ _______ _____ _____    ______ ____
ROOT
ATOM      1  C   UNL     1       1.897   3.162  18.435  0.00  0.00    +0.000 C 
ATOM      2  C   UNL     1       1.850   4.434  17.606  0.00  0.00    +0.000 C 
ATOM      3  C   UNL     1       2.146   5.693  18.410  0.00  0.00    +0.000 C 
ATOM      4  N   UNL     1       1.475   5.794  19.698  0.00  0.00    +0.000 N 
ATOM      5  C   UNL     1       1.524   6.980  20.454  0.00  0.00    +0.000 C 
ATOM      6  O   UNL     1       0.972   7.060  21.557  0.00  0.00    +0.000 OA
ATOM      7  C   UNL     1       1.258   4.568  20.471  0.00  0.00    +0.000 C 
ATOM      8  C   UNL     1       0.953   3.331  19.631  0.00  0.00    +0.000 C 
ENDROOT
BRANCH   1   9
ATOM      9  S   UNL     1       3.547   2.663  18.944  0.00  0.00    +0.000 S 
ATOM     10  O   UNL     1       3.836   1.396  18.301  0.00  0.00    +0.000 OA
ATOM     11  O   UNL     1       3.665   2.788  20.383  0.00  0.00    +0.000 OA
BRANCH   9  15
ATOM     12  C   UNL     1       6.580   5.589  17.108  0.00  0.00    +0.000 A 
ATOM     13  C   UNL     1       6.328   5.594  18.483  0.00  0.00    +0.000 A 
ATOM     14  C   UNL     1       5.390   4.722  19.048  0.00  0.00    +0.000 A 
ATOM     15  C   UNL     1       4.672   3.853  18.224  0.00  0.00    +0.000 A 
ATOM     16  C   UNL     1       4.931   3.823  16.849  0.00  0.00    +0.000 A 
ATOM     17  C   UNL     1       5.882   4.694  16.293  0.00  0.00    +0.000 A 
BRANCH  12  19
ATOM     18  C   UNL     1       7.629   7.698  17.453  0.00  0.00    +0.000 C 
ATOM     19  O   UNL     1       7.504   6.504  16.690  0.00  0.00    +0.000 OA
ENDBRANCH  12  19
ENDBRANCH   9  15
ENDBRANCH   1   9
BRANCH   5  20
ATOM     20  C   UNL     1       2.267   8.207  19.875  0.00  0.00    +0.000 C 
BRANCH  20  21
ATOM     21  N   UNL     1       1.395   9.350  19.680  0.00  0.00    +0.000 N 
ATOM     22  C   UNL     1       0.933  10.133  20.696  0.00  0.00    +0.000 C 
ATOM     23  O   UNL     1       1.199  10.034  21.886  0.00  0.00    +0.000 OA
ATOM     24  C   UNL     1      -0.067  11.108  20.154  0.00  0.00    +0.000 C 
ATOM     25  C   UNL     1      -0.070  10.839  18.663  0.00  0.00    +0.000 C 
ATOM     26  C   UNL     1       0.688   9.553  18.531  0.00  0.00    +0.000 C 
ATOM     27  O   UNL     1       0.632   8.820  17.558  0.00  0.00    +0.000 OA
ENDBRANCH  20  21
ENDBRANCH   5  20
TORSDOF 5
ENDMDL
MODEL 6
REMARK VINA RESULT:      -6.8      4.684      7.588
REMARK  Name = 
REMARK  6 active torsions:
REMARK  status: ('A' for Active; 'I' for Inactive)
REMARK    1  A    between atoms: C_1  and  O_2
REMARK    2  A    between atoms: O_2  and  C_3
REMARK    3  A    between atoms: C_6  and  S_7
REMARK    4  A    between atoms: S_7  and  C_10
REMARK    5  A    between atoms: C_14  and  C_16
REMARK    6  A    between atoms: C_16  and  N_17
REMARK                            x       y       z     vdW  Elec       q    Type
REMARK                         _______ _______ _______ _____ _____    ______ ____
ROOT
ATOM      1  C   UNL     1       0.025  11.595  18.941  0.00  0.00    +0.000 C 
ATOM      2  C   UNL     1      -0.207  13.034  19.369  0.00  0.00    +0.000 C 
ATOM      3  C   UNL     1      -1.504  13.236  20.140  0.00  0.00    +0.000 C 
ATOM      4  N   UNL     1      -2.679  12.583  19.584  0.00  0.00    +0.000 N 
ATOM      5  C   UNL     1      -3.965  12.834  20.099  0.00  0.00    +0.000 C 
ATOM      6  O   UNL     1      -4.962  12.264  19.642  0.00  0.00    +0.000 OA
ATOM      7  C   UNL     1      -2.512  11.283  18.929  0.00  0.00    +0.000 C 
ATOM      8  C   UNL     1      -1.205  11.123  18.157  0.00  0.00    +0.000 C 
ENDROOT
BRANCH   1   9
ATOM      9  S   UNL     1       0.440  10.475  20.283  0.00  0.00    +0.000 S 
ATOM     10  O   UNL     1      -0.801   9.916  20.784  0.00  0.00    +0.000 OA
ATOM     11  O   UNL     1       1.356  11.133  21.193  0.00  0.00    +0.000 OA
BRANCH   9  15
ATOM     12  C   UNL     1       2.897   7.048  18.452  0.00  0.00    +0.000 A 
ATOM     13  C   UNL     1       2.649   8.215  17.723  0.00  0.00    +0.000 A 
ATOM     14  C   UNL     1       1.884   9.255  18.264  0.00  0.00    +0.000 A 
ATOM     15  C   UNL     1       1.333   9.114  19.540  0.00  0.00    +0.000 A 
ATOM     16  C   UNL     1       1.593   7.961  20.288  0.00  0.00    +0.000 A 
ATOM     17  C   UNL     1       2.371   6.928  19.741  0.00  0.00    +0.000 A 
BRANCH  12  19
ATOM     18  C   UNL     1       4.616   6.579  16.873  0.00  0.00    +0.000 C 
ATOM     19  O   UNL     1       3.641   6.109  17.797  0.00  0.00    +0.000 OA
ENDBRANCH  12  19
ENDBRANCH   9  15
ENDBRANCH   1   9
BRANCH   5  20
ATOM     20  C   UNL     1      -4.126  13.862  21.244  0.00  0.00    +0.000 C 
BRANCH  20  21
ATOM     21  N   UNL     1      -4.520  13.249  22.498  0.00  0.00    +0.000 N 
ATOM     22  C   UNL     1      -5.814  13.141  22.915  0.00  0.00    +0.000 C 
ATOM     23  O   UNL     1      -6.818  13.490  22.310  0.00  0.00    +0.000 OA
ATOM     24  C   UNL     1      -5.839  12.612  24.317  0.00  0.00    +0.000 C 
ATOM     25  C   UNL     1      -4.382  12.351  24.637  0.00  0.00    +0.000 C 
ATOM     26  C   UNL     1      -3.645  13.028  23.521  0.00  0.00    +0.000 C 
ATOM     27  O   UNL     1      -2.468  13.344  23.568  0.00  0.00    +0.000 OA
ENDBRANCH  20  21
ENDBRANCH   5  20
TORSDOF 5
ENDMDL
MODEL 7
REMARK VINA RESULT:      -6.7      3.951      6.777
REMARK  Name = 
REMARK  6 active torsions:
REMARK  status: ('A' for Active; 'I' for Inactive)
REMARK    1  A    between atoms: C_1  and  O_2
REMARK    2  A    between atoms: O_2  and  C_3
REMARK    3  A    between atoms: C_6  and  S_7
REMARK    4  A    between atoms: S_7  and  C_10
REMARK    5  A    between atoms: C_14  and  C_16
REMARK    6  A    between atoms: C_16  and  N_17
REMARK                            x       y       z     vdW  Elec       q    Type
REMARK                         _______ _______ _______ _____ _____    ______ ____
ROOT
ATOM      1  C   UNL     1       0.990  10.326  19.364  0.00  0.00    +0.000 C 
ATOM      2  C   UNL     1       1.072  11.791  19.759  0.00  0.00    +0.000 C 
ATOM      3  C   UNL     1      -0.228  12.338  20.331  0.00  0.00    +0.000 C 
ATOM      4  N   UNL     1      -1.439  11.982  19.605  0.00  0.00    +0.000 N 
ATOM      5  C   UNL     1      -2.679  12.565  19.926  0.00  0.00    +0.000 C 
ATOM      6  O   UNL     1      -3.712  12.248  19.325  0.00  0.00    +0.000 OA
ATOM      7  C   UNL     1      -1.514  10.660  18.978  0.00  0.00    +0.000 C 
ATOM      8  C   UNL     1      -0.194  10.151  18.406  0.00  0.00    +0.000 C 
ENDROOT
BRANCH   1   9
ATOM      9  S   UNL     1       0.912   9.184  20.749  0.00  0.00    +0.000 S 
ATOM     10  O   UNL     1      -0.484   8.850  20.960  0.00  0.00    +0.000 OA
ATOM     11  O   UNL     1       1.705   9.702  21.846  0.00  0.00    +0.000 OA
BRANCH   9  15
ATOM     12  C   UNL     1       2.791   5.272  19.234  0.00  0.00    +0.000 A 
ATOM     13  C   UNL     1       2.098   5.306  20.448  0.00  0.00    +0.000 A 
ATOM     14  C   UNL     1       1.542   6.497  20.928  0.00  0.00    +0.000 A 
ATOM     15  C   UNL     1       1.705   7.677  20.199  0.00  0.00    +0.000 A 
ATOM     16  C   UNL     1       2.376   7.652  18.973  0.00  0.00    +0.000 A 
ATOM     17  C   UNL     1       2.922   6.450  18.494  0.00  0.00    +0.000 A 
BRANCH  12  19
ATOM     18  C   UNL     1       2.809   3.448  17.703  0.00  0.00    +0.000 C 
ATOM     19  O   UNL     1       3.298   4.049  18.896  0.00  0.00    +0.000 OA
ENDBRANCH  12  19
ENDBRANCH   9  15
ENDBRANCH   1   9
BRANCH   5  20
ATOM     20  C   UNL     1      -2.737  13.638  21.038  0.00  0.00    +0.000 C 
BRANCH  20  21
ATOM     21  N   UNL     1      -3.490  13.204  22.199  0.00  0.00    +0.000 N 
ATOM     22  C   UNL     1      -4.751  13.637  22.489  0.00  0.00    +0.000 C 
ATOM     23  O   UNL     1      -5.443  14.396  21.827  0.00  0.00    +0.000 OA
ATOM     24  C   UNL     1      -5.153  13.119  23.837  0.00  0.00    +0.000 C 
ATOM     25  C   UNL     1      -3.982  12.258  24.263  0.00  0.00    +0.000 C 
ATOM     26  C   UNL     1      -2.909  12.601  23.275  0.00  0.00    +0.000 C 
ATOM     27  O   UNL     1      -1.721  12.390  23.452  0.00  0.00    +0.000 OA
ENDBRANCH  20  21
ENDBRANCH   5  20
TORSDOF 5
ENDMDL
MODEL 8
REMARK VINA RESULT:      -6.7      4.001      6.859
REMARK  Name = 
REMARK  6 active torsions:
REMARK  status: ('A' for Active; 'I' for Inactive)
REMARK    1  A    between atoms: C_1  and  O_2
REMARK    2  A    between atoms: O_2  and  C_3
REMARK    3  A    between atoms: C_6  and  S_7
REMARK    4  A    between atoms: S_7  and  C_10
REMARK    5  A    between atoms: C_14  and  C_16
REMARK    6  A    between atoms: C_16  and  N_17
REMARK                            x       y       z     vdW  Elec       q    Type
REMARK                         _______ _______ _______ _____ _____    ______ ____
ROOT
ATOM      1  C   UNL     1       0.954  10.360  19.483  0.00  0.00    +0.000 C 
ATOM      2  C   UNL     1       1.148  11.800  19.928  0.00  0.00    +0.000 C 
ATOM      3  C   UNL     1      -0.085  12.403  20.585  0.00  0.00    +0.000 C 
ATOM      4  N   UNL     1      -1.349  12.153  19.908  0.00  0.00    +0.000 N 
ATOM      5  C   UNL     1      -2.532  12.799  20.313  0.00  0.00    +0.000 C 
ATOM      6  O   UNL     1      -3.611  12.572  19.753  0.00  0.00    +0.000 OA
ATOM      7  C   UNL     1      -1.539  10.865  19.236  0.00  0.00    +0.000 C 
ATOM      8  C   UNL     1      -0.284  10.298  18.580  0.00  0.00    +0.000 C 
ENDROOT
BRANCH   1   9
ATOM      9  S   UNL     1       0.868   9.169  20.826  0.00  0.00    +0.000 S 
ATOM     10  O   UNL     1      -0.532   8.877  21.061  0.00  0.00    +0.000 OA
ATOM     11  O   UNL     1       1.707   9.617  21.921  0.00  0.00    +0.000 OA
BRANCH   9  15
ATOM     12  C   UNL     1       2.887   5.321  19.326  0.00  0.00    +0.000 A 
ATOM     13  C   UNL     1       2.998   6.513  18.603  0.00  0.00    +0.000 A 
ATOM     14  C   UNL     1       2.368   7.684  19.040  0.00  0.00    +0.000 A 
ATOM     15  C   UNL     1       1.593   7.657  20.201  0.00  0.00    +0.000 A 
ATOM     16  C   UNL     1       1.492   6.478  20.946  0.00  0.00    +0.000 A 
ATOM     17  C   UNL     1       2.136   5.310  20.504  0.00  0.00    +0.000 A 
BRANCH  12  19
ATOM     18  C   UNL     1       3.283   3.976  17.402  0.00  0.00    +0.000 C 
ATOM     19  O   UNL     1       3.534   4.252  18.775  0.00  0.00    +0.000 OA
ENDBRANCH  12  19
ENDBRANCH   9  15
ENDBRANCH   1   9
BRANCH   5  20
ATOM     20  C   UNL     1      -2.467  13.828  21.466  0.00  0.00    +0.000 C 
BRANCH  20  21
ATOM     21  N   UNL     1      -3.301  13.460  22.595  0.00  0.00    +0.000 N 
ATOM     22  C   UNL     1      -3.060  12.382  23.395  0.00  0.00    +0.000 C 
ATOM     23  O   UNL     1      -2.118  11.605  23.326  0.00  0.00    +0.000 OA
ATOM     24  C   UNL     1      -4.204  12.207  24.347  0.00  0.00    +0.000 C 
ATOM     25  C   UNL     1      -5.115  13.379  24.044  0.00  0.00    +0.000 C 
ATOM     26  C   UNL     1      -4.568  13.935  22.764  0.00  0.00    +0.000 C 
ATOM     27  O   UNL     1      -5.193  14.661  22.010  0.00  0.00    +0.000 OA
ENDBRANCH  20  21
ENDBRANCH   5  20
TORSDOF 5
ENDMDL
MODEL 9
REMARK VINA RESULT:      -6.6      4.360      7.117
REMARK  Name = 
REMARK  6 active torsions:
REMARK  status: ('A' for Active; 'I' for Inactive)
REMARK    1  A    between atoms: C_1  and  O_2
REMARK    2  A    between atoms: O_2  and  C_3
REMARK    3  A    between atoms: C_6  and  S_7
REMARK    4  A    between atoms: S_7  and  C_10
REMARK    5  A    between atoms: C_14  and  C_16
REMARK    6  A    between atoms: C_16  and  N_17
REMARK                            x       y       z     vdW  Elec       q    Type
REMARK                         _______ _______ _______ _____ _____    ______ ____
ROOT
ATOM      1  C   UNL     1       1.017  10.519  19.877  0.00  0.00    +0.000 C 
ATOM      2  C   UNL     1       1.125  11.884  20.535  0.00  0.00    +0.000 C 
ATOM      3  C   UNL     1      -0.177  12.357  21.166  0.00  0.00    +0.000 C 
ATOM      4  N   UNL     1      -1.374  12.176  20.358  0.00  0.00    +0.000 N 
ATOM      5  C   UNL     1      -2.608  12.729  20.750  0.00  0.00    +0.000 C 
ATOM      6  O   UNL     1      -3.631  12.559  20.076  0.00  0.00    +0.000 OA
ATOM      7  C   UNL     1      -1.465  10.994  19.497  0.00  0.00    +0.000 C 
ATOM      8  C   UNL     1      -0.142  10.558  18.874  0.00  0.00    +0.000 C 
ENDROOT
BRANCH   1   9
ATOM      9  S   UNL     1       0.869   9.146  21.026  0.00  0.00    +0.000 S 
ATOM     10  O   UNL     1      -0.545   8.874  21.199  0.00  0.00    +0.000 OA
ATOM     11  O   UNL     1       1.704   9.396  22.185  0.00  0.00    +0.000 OA
BRANCH   9  15
ATOM     12  C   UNL     1       2.788   5.508  18.975  0.00  0.00    +0.000 A 
ATOM     13  C   UNL     1       2.810   6.765  18.362  0.00  0.00    +0.000 A 
ATOM     14  C   UNL     1       2.209   7.873  18.969  0.00  0.00    +0.000 A 
ATOM     15  C   UNL     1       1.551   7.718  20.191  0.00  0.00    +0.000 A 
ATOM     16  C   UNL     1       1.542   6.471  20.825  0.00  0.00    +0.000 A 
ATOM     17  C   UNL     1       2.157   5.367  20.213  0.00  0.00    +0.000 A 
BRANCH  12  19
ATOM     18  C   UNL     1       2.562   3.693  17.451  0.00  0.00    +0.000 C 
ATOM     19  O   UNL     1       3.394   4.512  18.263  0.00  0.00    +0.000 OA
ENDBRANCH  12  19
ENDBRANCH   9  15
ENDBRANCH   1   9
BRANCH   5  20
ATOM     20  C   UNL     1      -2.671  13.583  22.038  0.00  0.00    +0.000 C 
BRANCH  20  21
ATOM     21  N   UNL     1      -4.002  13.639  22.610  0.00  0.00    +0.000 N 
ATOM     22  C   UNL     1      -4.821  14.727  22.520  0.00  0.00    +0.000 C 
ATOM     23  O   UNL     1      -4.596  15.775  21.931  0.00  0.00    +0.000 OA
ATOM     24  C   UNL     1      -6.041  14.499  23.360  0.00  0.00    +0.000 C 
ATOM     25  C   UNL     1      -5.860  13.093  23.895  0.00  0.00    +0.000 C 
ATOM     26  C   UNL     1      -4.435  12.766  23.564  0.00  0.00    +0.000 C 
ATOM     27  O   UNL     1      -3.792  11.881  24.103  0.00  0.00    +0.000 OA
ENDBRANCH  20  21
ENDBRANCH   5  20
TORSDOF 5
ENDMDL
