MODEL 1
REMARK VINA RESULT:      -8.4      0.000      0.000
REMARK  Name = 
REMARK  10 active torsions:
REMARK  status: ('A' for Active; 'I' for Inactive)
REMARK    1  A    between atoms: C_1  and  C_2
REMARK    2  A    between atoms: C_6  and  O_7
REMARK    3  A    between atoms: O_7  and  C_8
REMARK    4  A    between atoms: C_8  and  C_9
REMARK    5  A    between atoms: C_9  and  O_10
REMARK    6  A    between atoms: O_10  and  C_11
REMARK    7  A    between atoms: C_11  and  C_12
REMARK    8  A    between atoms: C_12  and  N_13
REMARK    9  A    between atoms: C_14  and  C_15
REMARK   10  A    between atoms: C_31  and  C_32
REMARK                            x       y       z     vdW  Elec       q    Type
REMARK                         _______ _______ _______ _____ _____    ______ ____
ROOT
ATOM      1  N   UNL     1       6.134   5.464  16.506  0.00  0.00    +0.000 N 
ATOM      2  C   UNL     1       5.045   4.563  16.442  0.00  0.00    +0.000 A 
ATOM      3  N   UNL     1       4.827   3.828  15.387  0.00  0.00    +0.000 NA
ATOM      4  C   UNL     1       5.665   3.965  14.260  0.00  0.00    +0.000 A 
ATOM      5  C   UNL     1       5.390   3.272  13.088  0.00  0.00    +0.000 A 
ATOM      6  C   UNL     1       6.198   3.453  11.956  0.00  0.00    +0.000 A 
ATOM      7  C   UNL     1       7.306   4.288  11.981  0.00  0.00    +0.000 A 
ATOM      8  C   UNL     1       7.600   4.971  13.153  0.00  0.00    +0.000 A 
ATOM      9  C   UNL     1       6.752   4.833  14.251  0.00  0.00    +0.000 A 
ATOM     10  C   UNL     1       7.009   5.613  15.446  0.00  0.00    +0.000 A 
ATOM     11  O   UNL     1       7.980   6.367  15.402  0.00  0.00    +0.000 OA
ENDROOT
BRANCH   2  12
ATOM     12  C   UNL     1       4.107   4.379  17.626  0.00  0.00    +0.000 A 
ATOM     13  C   UNL     1       4.277   3.381  18.597  0.00  0.00    +0.000 A 
ATOM     14  C   UNL     1       3.305   3.097  19.556  0.00  0.00    +0.000 A 
ATOM     15  C   UNL     1       2.211   3.932  19.671  0.00  0.00    +0.000 A 
ATOM     16 CL   UNL     1       1.038   3.621  20.888  0.00  0.00    +0.000 Cl
ATOM     17  C   UNL     1       2.087   5.035  18.827  0.00  0.00    +0.000 A 
ATOM     18  C   UNL     1       3.018   5.247  17.793  0.00  0.00    +0.000 A 
ENDBRANCH   2  12
BRANCH   1  19
ATOM     19  C   UNL     1       6.438   6.221  17.710  0.00  0.00    +0.000 C 
BRANCH  19  20
ATOM     20  C   UNL     1       7.521   5.780  18.688  0.00  0.00    +0.000 C 
BRANCH  20  21
ATOM     21  O   UNL     1       8.410   6.867  18.985  0.00  0.00    +0.000 OA
BRANCH  21  22
ATOM     22  C   UNL     1       8.147   8.044  18.221  0.00  0.00    +0.000 C 
BRANCH  22  23
ATOM     23  C   UNL     1       8.740   9.280  18.876  0.00  0.00    +0.000 C 
BRANCH  23  24
ATOM     24  O   UNL     1       8.944  10.269  17.891  0.00  0.00    +0.000 OA
BRANCH  24  30
ATOM     25  C   UNL     1       9.131  15.133  17.943  0.00  0.00    +0.000 C 
ATOM     26  C   UNL     1       9.707  13.797  18.305  0.00  0.00    +0.000 A 
ATOM     27  C   UNL     1      10.929  13.741  18.995  0.00  0.00    +0.000 A 
ATOM     28  C   UNL     1      11.490  12.523  19.355  0.00  0.00    +0.000 A 
ATOM     29  C   UNL     1      10.840  11.341  19.018  0.00  0.00    +0.000 A 
ATOM     30  C   UNL     1       9.631  11.374  18.311  0.00  0.00    +0.000 A 
ATOM     31  C   UNL     1       9.047  12.602  17.957  0.00  0.00    +0.000 A 
ATOM     32  C   UNL     1       7.737  12.638  17.207  0.00  0.00    +0.000 C 
ENDBRANCH  24  30
ENDBRANCH  23  24
ENDBRANCH  22  23
ENDBRANCH  21  22
ENDBRANCH  20  21
ENDBRANCH  19  20
ENDBRANCH   1  19
TORSDOF 8
ENDMDL
MODEL 2
REMARK VINA RESULT:      -8.3      0.981      1.550
REMARK  Name = 
REMARK  10 active torsions:
REMARK  status: ('A' for Active; 'I' for Inactive)
REMARK    1  A    between atoms: C_1  and  C_2
REMARK    2  A    between atoms: C_6  and  O_7
REMARK    3  A    between atoms: O_7  and  C_8
REMARK    4  A    between atoms: C_8  and  C_9
REMARK    5  A    between atoms: C_9  and  O_10
REMARK    6  A    between atoms: O_10  and  C_11
REMARK    7  A    between atoms: C_11  and  C_12
REMARK    8  A    between atoms: C_12  and  N_13
REMARK    9  A    between atoms: C_14  and  C_15
REMARK   10  A    between atoms: C_31  and  C_32
REMARK                            x       y       z     vdW  Elec       q    Type
REMARK                         _______ _______ _______ _____ _____    ______ ____
ROOT
ATOM      1  N   UNL     1       6.042   5.380  16.632  0.00  0.00    +0.000 N 
ATOM      2  C   UNL     1       4.982   4.456  16.478  0.00  0.00    +0.000 A 
ATOM      3  N   UNL     1       4.824   3.773  15.379  0.00  0.00    +0.000 NA
ATOM      4  C   UNL     1       5.701   3.989  14.295  0.00  0.00    +0.000 A 
ATOM      5  C   UNL     1       5.491   3.353  13.078  0.00  0.00    +0.000 A 
ATOM      6  C   UNL     1       6.337   3.613  11.990  0.00  0.00    +0.000 A 
ATOM      7  C   UNL     1       7.420   4.472  12.102  0.00  0.00    +0.000 A 
ATOM      8  C   UNL     1       7.651   5.100  13.319  0.00  0.00    +0.000 A 
ATOM      9  C   UNL     1       6.765   4.883  14.373  0.00  0.00    +0.000 A 
ATOM     10  C   UNL     1       6.954   5.606  15.617  0.00  0.00    +0.000 A 
ATOM     11  O   UNL     1       7.905   6.386  15.651  0.00  0.00    +0.000 OA
ENDROOT
BRANCH   2  12
ATOM     12  C   UNL     1       4.004   4.187  17.612  0.00  0.00    +0.000 A 
ATOM     13  C   UNL     1       2.852   4.955  17.836  0.00  0.00    +0.000 A 
ATOM     14  C   UNL     1       2.079   4.826  18.990  0.00  0.00    +0.000 A 
ATOM     15  C   UNL     1       2.349   3.793  19.866  0.00  0.00    +0.000 A 
ATOM     16 CL   UNL     1       1.364   3.592  21.260  0.00  0.00    +0.000 Cl
ATOM     17  C   UNL     1       3.388   2.904  19.595  0.00  0.00    +0.000 A 
ATOM     18  C   UNL     1       4.228   3.112  18.484  0.00  0.00    +0.000 A 
ENDBRANCH   2  12
BRANCH   1  19
ATOM     19  C   UNL     1       6.279   6.080  17.884  0.00  0.00    +0.000 C 
BRANCH  19  20
ATOM     20  C   UNL     1       7.602   5.969  18.633  0.00  0.00    +0.000 C 
BRANCH  20  21
ATOM     21  O   UNL     1       8.278   7.234  18.661  0.00  0.00    +0.000 OA
BRANCH  21  22
ATOM     22  C   UNL     1       7.510   8.303  18.110  0.00  0.00    +0.000 C 
BRANCH  22  23
ATOM     23  C   UNL     1       8.369   9.526  17.834  0.00  0.00    +0.000 C 
BRANCH  23  24
ATOM     24  O   UNL     1       9.135   9.818  18.981  0.00  0.00    +0.000 OA
BRANCH  24  30
ATOM     25  C   UNL     1      10.290  13.906  21.360  0.00  0.00    +0.000 C 
ATOM     26  C   UNL     1      10.361  13.036  20.140  0.00  0.00    +0.000 A 
ATOM     27  C   UNL     1      11.063  13.492  19.013  0.00  0.00    +0.000 A 
ATOM     28  C   UNL     1      11.158  12.712  17.868  0.00  0.00    +0.000 A 
ATOM     29  C   UNL     1      10.541  11.467  17.832  0.00  0.00    +0.000 A 
ATOM     30  C   UNL     1       9.817  11.003  18.938  0.00  0.00    +0.000 A 
ATOM     31  C   UNL     1       9.729  11.777  20.106  0.00  0.00    +0.000 A 
ATOM     32  C   UNL     1       8.961  11.271  21.304  0.00  0.00    +0.000 C 
ENDBRANCH  24  30
ENDBRANCH  23  24
ENDBRANCH  22  23
ENDBRANCH  21  22
ENDBRANCH  20  21
ENDBRANCH  19  20
ENDBRANCH   1  19
TORSDOF 8
ENDMDL
MODEL 3
REMARK VINA RESULT:      -8.0      4.441      5.830
REMARK  Name = 
REMARK  10 active torsions:
REMARK  status: ('A' for Active; 'I' for Inactive)
REMARK    1  A    between atoms: C_1  and  C_2
REMARK    2  A    between atoms: C_6  and  O_7
REMARK    3  A    between atoms: O_7  and  C_8
REMARK    4  A    between atoms: C_8  and  C_9
REMARK    5  A    between atoms: C_9  and  O_10
REMARK    6  A    between atoms: O_10  and  C_11
REMARK    7  A    between atoms: C_11  and  C_12
REMARK    8  A    between atoms: C_12  and  N_13
REMARK    9  A    between atoms: C_14  and  C_15
REMARK   10  A    between atoms: C_31  and  C_32
REMARK                            x       y       z     vdW  Elec       q    Type
REMARK                         _______ _______ _______ _____ _____    ______ ____
ROOT
ATOM      1  N   UNL     1       5.849   5.105  16.771  0.00  0.00    +0.000 N 
ATOM      2  C   UNL     1       4.898   4.108  16.452  0.00  0.00    +0.000 A 
ATOM      3  N   UNL     1       4.888   3.517  15.290  0.00  0.00    +0.000 NA
ATOM      4  C   UNL     1       5.818   3.911  14.304  0.00  0.00    +0.000 A 
ATOM      5  C   UNL     1       5.761   3.374  13.024  0.00  0.00    +0.000 A 
ATOM      6  C   UNL     1       6.655   3.808  12.035  0.00  0.00    +0.000 A 
ATOM      7  C   UNL     1       7.639   4.748  12.309  0.00  0.00    +0.000 A 
ATOM      8  C   UNL     1       7.717   5.279  13.589  0.00  0.00    +0.000 A 
ATOM      9  C   UNL     1       6.781   4.886  14.545  0.00  0.00    +0.000 A 
ATOM     10  C   UNL     1       6.807   5.505  15.857  0.00  0.00    +0.000 A 
ATOM     11  O   UNL     1       7.673   6.361  16.035  0.00  0.00    +0.000 OA
ENDROOT
BRANCH   2  12
ATOM     12  C   UNL     1       3.869   3.648  17.475  0.00  0.00    +0.000 A 
ATOM     13  C   UNL     1       2.500   3.933  17.374  0.00  0.00    +0.000 A 
ATOM     14  C   UNL     1       1.604   3.683  18.414  0.00  0.00    +0.000 A 
ATOM     15  C   UNL     1       2.039   2.974  19.518  0.00  0.00    +0.000 A 
ATOM     16 CL   UNL     1       0.927   2.612  20.777  0.00  0.00    +0.000 Cl
ATOM     17  C   UNL     1       3.359   2.529  19.583  0.00  0.00    +0.000 A 
ATOM     18  C   UNL     1       4.278   2.883  18.577  0.00  0.00    +0.000 A 
ENDBRANCH   2  12
BRANCH   1  19
ATOM     19  C   UNL     1       5.924   5.705  18.093  0.00  0.00    +0.000 C 
BRANCH  19  20
ATOM     20  C   UNL     1       4.729   6.406  18.730  0.00  0.00    +0.000 C 
BRANCH  20  21
ATOM     21  O   UNL     1       4.200   7.409  17.850  0.00  0.00    +0.000 OA
BRANCH  21  22
ATOM     22  C   UNL     1       2.775   7.412  17.778  0.00  0.00    +0.000 C 
BRANCH  22  23
ATOM     23  C   UNL     1       2.147   7.682  19.135  0.00  0.00    +0.000 C 
BRANCH  23  24
ATOM     24  O   UNL     1       1.728   9.027  19.188  0.00  0.00    +0.000 OA
BRANCH  24  30
ATOM     25  C   UNL     1      -1.639  11.962  21.126  0.00  0.00    +0.000 C 
ATOM     26  C   UNL     1      -0.624  10.865  21.259  0.00  0.00    +0.000 A 
ATOM     27  C   UNL     1      -0.389  10.300  22.523  0.00  0.00    +0.000 A 
ATOM     28  C   UNL     1       0.537   9.276  22.684  0.00  0.00    +0.000 A 
ATOM     29  C   UNL     1       1.248   8.813  21.584  0.00  0.00    +0.000 A 
ATOM     30  C   UNL     1       1.043   9.379  20.318  0.00  0.00    +0.000 A 
ATOM     31  C   UNL     1       0.098  10.403  20.142  0.00  0.00    +0.000 A 
ATOM     32  C   UNL     1      -0.133  11.003  18.775  0.00  0.00    +0.000 C 
ENDBRANCH  24  30
ENDBRANCH  23  24
ENDBRANCH  22  23
ENDBRANCH  21  22
ENDBRANCH  20  21
ENDBRANCH  19  20
ENDBRANCH   1  19
TORSDOF 8
ENDMDL
MODEL 4
REMARK VINA RESULT:      -7.9      7.559     10.941
REMARK  Name = 
REMARK  10 active torsions:
REMARK  status: ('A' for Active; 'I' for Inactive)
REMARK    1  A    between atoms: C_1  and  C_2
REMARK    2  A    between atoms: C_6  and  O_7
REMARK    3  A    between atoms: O_7  and  C_8
REMARK    4  A    between atoms: C_8  and  C_9
REMARK    5  A    between atoms: C_9  and  O_10
REMARK    6  A    between atoms: O_10  and  C_11
REMARK    7  A    between atoms: C_11  and  C_12
REMARK    8  A    between atoms: C_12  and  N_13
REMARK    9  A    between atoms: C_14  and  C_15
REMARK   10  A    between atoms: C_31  and  C_32
REMARK                            x       y       z     vdW  Elec       q    Type
REMARK                         _______ _______ _______ _____ _____    ______ ____
ROOT
ATOM      1  N   UNL     1      -0.587  11.410  19.588  0.00  0.00    +0.000 N 
ATOM      2  C   UNL     1      -1.684  12.205  19.996  0.00  0.00    +0.000 A 
ATOM      3  N   UNL     1      -2.805  12.218  19.330  0.00  0.00    +0.000 NA
ATOM      4  C   UNL     1      -2.917  11.458  18.146  0.00  0.00    +0.000 A 
ATOM      5  C   UNL     1      -4.061  11.536  17.362  0.00  0.00    +0.000 A 
ATOM      6  C   UNL     1      -4.144  10.818  16.161  0.00  0.00    +0.000 A 
ATOM      7  C   UNL     1      -3.117   9.986  15.740  0.00  0.00    +0.000 A 
ATOM      8  C   UNL     1      -1.976   9.886  16.524  0.00  0.00    +0.000 A 
ATOM      9  C   UNL     1      -1.879  10.655  17.683  0.00  0.00    +0.000 A 
ATOM     10  C   UNL     1      -0.653  10.618  18.457  0.00  0.00    +0.000 A 
ATOM     11  O   UNL     1       0.242   9.896  18.019  0.00  0.00    +0.000 OA
ENDROOT
BRANCH   2  12
ATOM     12  C   UNL     1      -1.616  13.048  21.261  0.00  0.00    +0.000 A 
ATOM     13  C   UNL     1      -0.992  14.302  21.320  0.00  0.00    +0.000 A 
ATOM     14  C   UNL     1      -0.761  14.967  22.525  0.00  0.00    +0.000 A 
ATOM     15  C   UNL     1      -1.313  14.463  23.686  0.00  0.00    +0.000 A 
ATOM     16 CL   UNL     1      -1.081  15.309  25.164  0.00  0.00    +0.000 Cl
ATOM     17  C   UNL     1      -2.082  13.300  23.643  0.00  0.00    +0.000 A 
ATOM     18  C   UNL     1      -2.215  12.581  22.441  0.00  0.00    +0.000 A 
ENDBRANCH   2  12
BRANCH   1  19
ATOM     19  C   UNL     1       0.634  11.322  20.373  0.00  0.00    +0.000 C 
BRANCH  19  20
ATOM     20  C   UNL     1       0.754  10.393  21.576  0.00  0.00    +0.000 C 
BRANCH  20  21
ATOM     21  O   UNL     1      -0.362   9.493  21.637  0.00  0.00    +0.000 OA
BRANCH  21  22
ATOM     22  C   UNL     1       0.015   8.118  21.675  0.00  0.00    +0.000 C 
BRANCH  22  23
ATOM     23  C   UNL     1       1.330   7.878  20.953  0.00  0.00    +0.000 C 
BRANCH  23  24
ATOM     24  O   UNL     1       1.583   6.492  20.904  0.00  0.00    +0.000 OA
BRANCH  24  30
ATOM     25  C   UNL     1       2.220   2.728  17.883  0.00  0.00    +0.000 C 
ATOM     26  C   UNL     1       2.484   4.151  18.275  0.00  0.00    +0.000 A 
ATOM     27  C   UNL     1       3.348   4.930  17.489  0.00  0.00    +0.000 A 
ATOM     28  C   UNL     1       3.610   6.255  17.815  0.00  0.00    +0.000 A 
ATOM     29  C   UNL     1       3.018   6.815  18.941  0.00  0.00    +0.000 A 
ATOM     30  C   UNL     1       2.170   6.047  19.752  0.00  0.00    +0.000 A 
ATOM     31  C   UNL     1       1.886   4.712  19.421  0.00  0.00    +0.000 A 
ATOM     32  C   UNL     1       0.961   3.890  20.286  0.00  0.00    +0.000 C 
ENDBRANCH  24  30
ENDBRANCH  23  24
ENDBRANCH  22  23
ENDBRANCH  21  22
ENDBRANCH  20  21
ENDBRANCH  19  20
ENDBRANCH   1  19
TORSDOF 8
ENDMDL
MODEL 5
REMARK VINA RESULT:      -7.8      1.008      1.293
REMARK  Name = 
REMARK  10 active torsions:
REMARK  status: ('A' for Active; 'I' for Inactive)
REMARK    1  A    between atoms: C_1  and  C_2
REMARK    2  A    between atoms: C_6  and  O_7
REMARK    3  A    between atoms: O_7  and  C_8
REMARK    4  A    between atoms: C_8  and  C_9
REMARK    5  A    between atoms: C_9  and  O_10
REMARK    6  A    between atoms: O_10  and  C_11
REMARK    7  A    between atoms: C_11  and  C_12
REMARK    8  A    between atoms: C_12  and  N_13
REMARK    9  A    between atoms: C_14  and  C_15
REMARK   10  A    between atoms: C_31  and  C_32
REMARK                            x       y       z     vdW  Elec       q    Type
REMARK                         _______ _______ _______ _____ _____    ______ ____
ROOT
ATOM      1  N   UNL     1       6.116   5.123  16.550  0.00  0.00    +0.000 N 
ATOM      2  C   UNL     1       4.972   4.297  16.447  0.00  0.00    +0.000 A 
ATOM      3  N   UNL     1       4.682   3.662  15.346  0.00  0.00    +0.000 NA
ATOM      4  C   UNL     1       5.500   3.836  14.209  0.00  0.00    +0.000 A 
ATOM      5  C   UNL     1       5.155   3.256  12.995  0.00  0.00    +0.000 A 
ATOM      6  C   UNL     1       5.945   3.477  11.857  0.00  0.00    +0.000 A 
ATOM      7  C   UNL     1       7.103   4.238  11.915  0.00  0.00    +0.000 A 
ATOM      8  C   UNL     1       7.468   4.808  13.127  0.00  0.00    +0.000 A 
ATOM      9  C   UNL     1       6.639   4.635  14.235  0.00  0.00    +0.000 A 
ATOM     10  C   UNL     1       6.973   5.301  15.479  0.00  0.00    +0.000 A 
ATOM     11  O   UNL     1       7.988   5.996  15.466  0.00  0.00    +0.000 OA
ENDROOT
BRANCH   2  12
ATOM     12  C   UNL     1       4.053   4.077  17.640  0.00  0.00    +0.000 A 
ATOM     13  C   UNL     1       4.359   3.213  18.701  0.00  0.00    +0.000 A 
ATOM     14  C   UNL     1       3.426   2.868  19.679  0.00  0.00    +0.000 A 
ATOM     15  C   UNL     1       2.213   3.527  19.711  0.00  0.00    +0.000 A 
ATOM     16 CL   UNL     1       1.081   3.149  20.947  0.00  0.00    +0.000 Cl
ATOM     17  C   UNL     1       1.932   4.514  18.766  0.00  0.00    +0.000 A 
ATOM     18  C   UNL     1       2.838   4.774  17.721  0.00  0.00    +0.000 A 
ENDBRANCH   2  12
BRANCH   1  19
ATOM     19  C   UNL     1       6.495   5.762  17.799  0.00  0.00    +0.000 C 
BRANCH  19  20
ATOM     20  C   UNL     1       6.577   7.279  17.937  0.00  0.00    +0.000 C 
BRANCH  20  21
ATOM     21  O   UNL     1       7.920   7.690  18.232  0.00  0.00    +0.000 OA
BRANCH  21  22
ATOM     22  C   UNL     1       8.235   8.996  17.749  0.00  0.00    +0.000 C 
BRANCH  22  23
ATOM     23  C   UNL     1       8.944   9.827  18.805  0.00  0.00    +0.000 C 
BRANCH  23  24
ATOM     24  O   UNL     1       9.216  11.106  18.278  0.00  0.00    +0.000 OA
BRANCH  24  30
ATOM     25  C   UNL     1      11.956  15.045  19.098  0.00  0.00    +0.000 C 
ATOM     26  C   UNL     1      11.005  13.989  19.576  0.00  0.00    +0.000 A 
ATOM     27  C   UNL     1      10.621  13.973  20.927  0.00  0.00    +0.000 A 
ATOM     28  C   UNL     1       9.735  13.016  21.406  0.00  0.00    +0.000 A 
ATOM     29  C   UNL     1       9.230  12.054  20.540  0.00  0.00    +0.000 A 
ATOM     30  C   UNL     1       9.617  12.039  19.193  0.00  0.00    +0.000 A 
ATOM     31  C   UNL     1      10.500  13.012  18.696  0.00  0.00    +0.000 A 
ATOM     32  C   UNL     1      10.906  13.005  17.241  0.00  0.00    +0.000 C 
ENDBRANCH  24  30
ENDBRANCH  23  24
ENDBRANCH  22  23
ENDBRANCH  21  22
ENDBRANCH  20  21
ENDBRANCH  19  20
ENDBRANCH   1  19
TORSDOF 8
ENDMDL
MODEL 6
REMARK VINA RESULT:      -7.8      4.276      6.008
REMARK  Name = 
REMARK  10 active torsions:
REMARK  status: ('A' for Active; 'I' for Inactive)
REMARK    1  A    between atoms: C_1  and  C_2
REMARK    2  A    between atoms: C_6  and  O_7
REMARK    3  A    between atoms: O_7  and  C_8
REMARK    4  A    between atoms: C_8  and  C_9
REMARK    5  A    between atoms: C_9  and  O_10
REMARK    6  A    between atoms: O_10  and  C_11
REMARK    7  A    between atoms: C_11  and  C_12
REMARK    8  A    between atoms: C_12  and  N_13
REMARK    9  A    between atoms: C_14  and  C_15
REMARK   10  A    between atoms: C_31  and  C_32
REMARK                            x       y       z     vdW  Elec       q    Type
REMARK                         _______ _______ _______ _____ _____    ______ ____
ROOT
ATOM      1  N   UNL     1       5.766   5.173  16.759  0.00  0.00    +0.000 N 
ATOM      2  C   UNL     1       4.855   4.141  16.432  0.00  0.00    +0.000 A 
ATOM      3  N   UNL     1       4.897   3.531  15.280  0.00  0.00    +0.000 NA
ATOM      4  C   UNL     1       5.841   3.937  14.314  0.00  0.00    +0.000 A 
ATOM      5  C   UNL     1       5.838   3.377  13.043  0.00  0.00    +0.000 A 
ATOM      6  C   UNL     1       6.745   3.823  12.072  0.00  0.00    +0.000 A 
ATOM      7  C   UNL     1       7.691   4.798  12.356  0.00  0.00    +0.000 A 
ATOM      8  C   UNL     1       7.716   5.352  13.628  0.00  0.00    +0.000 A 
ATOM      9  C   UNL     1       6.766   4.946  14.564  0.00  0.00    +0.000 A 
ATOM     10  C   UNL     1       6.736   5.588  15.865  0.00  0.00    +0.000 A 
ATOM     11  O   UNL     1       7.569   6.473  16.052  0.00  0.00    +0.000 OA
ENDROOT
BRANCH   2  12
ATOM     12  C   UNL     1       3.813   3.666  17.434  0.00  0.00    +0.000 A 
ATOM     13  C   UNL     1       2.434   3.855  17.262  0.00  0.00    +0.000 A 
ATOM     14  C   UNL     1       1.511   3.599  18.275  0.00  0.00    +0.000 A 
ATOM     15  C   UNL     1       1.939   2.975  19.431  0.00  0.00    +0.000 A 
ATOM     16 CL   UNL     1       0.797   2.604  20.660  0.00  0.00    +0.000 Cl
ATOM     17  C   UNL     1       3.281   2.621  19.574  0.00  0.00    +0.000 A 
ATOM     18  C   UNL     1       4.220   2.985  18.591  0.00  0.00    +0.000 A 
ENDBRANCH   2  12
BRANCH   1  19
ATOM     19  C   UNL     1       5.784   5.797  18.072  0.00  0.00    +0.000 C 
BRANCH  19  20
ATOM     20  C   UNL     1       4.833   6.930  18.441  0.00  0.00    +0.000 C 
BRANCH  20  21
ATOM     21  O   UNL     1       3.896   7.172  17.380  0.00  0.00    +0.000 OA
BRANCH  21  22
ATOM     22  C   UNL     1       2.557   7.363  17.836  0.00  0.00    +0.000 C 
BRANCH  22  23
ATOM     23  C   UNL     1       2.378   8.723  18.491  0.00  0.00    +0.000 C 
BRANCH  23  24
ATOM     24  O   UNL     1       1.531   8.586  19.610  0.00  0.00    +0.000 OA
BRANCH  24  30
ATOM     25  C   UNL     1      -0.924  11.355  22.773  0.00  0.00    +0.000 C 
ATOM     26  C   UNL     1      -0.610  10.937  21.367  0.00  0.00    +0.000 A 
ATOM     27  C   UNL     1      -1.300  11.539  20.303  0.00  0.00    +0.000 A 
ATOM     28  C   UNL     1      -1.031  11.184  18.987  0.00  0.00    +0.000 A 
ATOM     29  C   UNL     1      -0.073  10.214  18.720  0.00  0.00    +0.000 A 
ATOM     30  C   UNL     1       0.611   9.585  19.769  0.00  0.00    +0.000 A 
ATOM     31  C   UNL     1       0.358   9.948  21.102  0.00  0.00    +0.000 A 
ATOM     32  C   UNL     1       1.105   9.281  22.232  0.00  0.00    +0.000 C 
ENDBRANCH  24  30
ENDBRANCH  23  24
ENDBRANCH  22  23
ENDBRANCH  21  22
ENDBRANCH  20  21
ENDBRANCH  19  20
ENDBRANCH   1  19
TORSDOF 8
ENDMDL
MODEL 7
REMARK VINA RESULT:      -7.7      4.102      5.771
REMARK  Name = 
REMARK  10 active torsions:
REMARK  status: ('A' for Active; 'I' for Inactive)
REMARK    1  A    between atoms: C_1  and  C_2
REMARK    2  A    between atoms: C_6  and  O_7
REMARK    3  A    between atoms: O_7  and  C_8
REMARK    4  A    between atoms: C_8  and  C_9
REMARK    5  A    between atoms: C_9  and  O_10
REMARK    6  A    between atoms: O_10  and  C_11
REMARK    7  A    between atoms: C_11  and  C_12
REMARK    8  A    between atoms: C_12  and  N_13
REMARK    9  A    between atoms: C_14  and  C_15
REMARK   10  A    between atoms: C_31  and  C_32
REMARK                            x       y       z     vdW  Elec       q    Type
REMARK                         _______ _______ _______ _____ _____    ______ ____
ROOT
ATOM      1  N   UNL     1       5.761   5.188  16.834  0.00  0.00    +0.000 N 
ATOM      2  C   UNL     1       4.823   4.177  16.517  0.00  0.00    +0.000 A 
ATOM      3  N   UNL     1       4.840   3.564  15.366  0.00  0.00    +0.000 NA
ATOM      4  C   UNL     1       5.785   3.946  14.390  0.00  0.00    +0.000 A 
ATOM      5  C   UNL     1       5.757   3.384  13.121  0.00  0.00    +0.000 A 
ATOM      6  C   UNL     1       6.666   3.807  12.140  0.00  0.00    +0.000 A 
ATOM      7  C   UNL     1       7.638   4.759  12.414  0.00  0.00    +0.000 A 
ATOM      8  C   UNL     1       7.687   5.315  13.685  0.00  0.00    +0.000 A 
ATOM      9  C   UNL     1       6.736   4.934  14.631  0.00  0.00    +0.000 A 
ATOM     10  C   UNL     1       6.733   5.577  15.931  0.00  0.00    +0.000 A 
ATOM     11  O   UNL     1       7.589   6.443  16.108  0.00  0.00    +0.000 OA
ENDROOT
BRANCH   2  12
ATOM     12  C   UNL     1       3.779   3.729  17.529  0.00  0.00    +0.000 A 
ATOM     13  C   UNL     1       2.413   4.022  17.410  0.00  0.00    +0.000 A 
ATOM     14  C   UNL     1       1.503   3.783  18.439  0.00  0.00    +0.000 A 
ATOM     15  C   UNL     1       1.919   3.077  19.551  0.00  0.00    +0.000 A 
ATOM     16 CL   UNL     1       0.789   2.728  20.798  0.00  0.00    +0.000 Cl
ATOM     17  C   UNL     1       3.235   2.623  19.635  0.00  0.00    +0.000 A 
ATOM     18  C   UNL     1       4.169   2.966  18.640  0.00  0.00    +0.000 A 
ENDBRANCH   2  12
BRANCH   1  19
ATOM     19  C   UNL     1       5.806   5.813  18.146  0.00  0.00    +0.000 C 
BRANCH  19  20
ATOM     20  C   UNL     1       4.913   6.994  18.508  0.00  0.00    +0.000 C 
BRANCH  20  21
ATOM     21  O   UNL     1       3.853   7.141  17.551  0.00  0.00    +0.000 OA
BRANCH  21  22
ATOM     22  C   UNL     1       2.614   7.549  18.131  0.00  0.00    +0.000 C 
BRANCH  22  23
ATOM     23  C   UNL     1       2.210   8.938  17.668  0.00  0.00    +0.000 C 
BRANCH  23  24
ATOM     24  O   UNL     1       1.673   9.650  18.761  0.00  0.00    +0.000 OA
BRANCH  24  30
ATOM     25  C   UNL     1      -0.460  14.024  18.888  0.00  0.00    +0.000 C 
ATOM     26  C   UNL     1      -0.498  12.557  18.580  0.00  0.00    +0.000 A 
ATOM     27  C   UNL     1      -1.686  11.991  18.088  0.00  0.00    +0.000 A 
ATOM     28  C   UNL     1      -1.758  10.637  17.783  0.00  0.00    +0.000 A 
ATOM     29  C   UNL     1      -0.644   9.829  17.977  0.00  0.00    +0.000 A 
ATOM     30  C   UNL     1       0.544  10.370  18.488  0.00  0.00    +0.000 A 
ATOM     31  C   UNL     1       0.631  11.740  18.784  0.00  0.00    +0.000 A 
ATOM     32  C   UNL     1       1.916  12.326  19.321  0.00  0.00    +0.000 C 
ENDBRANCH  24  30
ENDBRANCH  23  24
ENDBRANCH  22  23
ENDBRANCH  21  22
ENDBRANCH  20  21
ENDBRANCH  19  20
ENDBRANCH   1  19
TORSDOF 8
ENDMDL
MODEL 8
REMARK VINA RESULT:      -7.7      1.099      1.467
REMARK  Name = 
REMARK  10 active torsions:
REMARK  status: ('A' for Active; 'I' for Inactive)
REMARK    1  A    between atoms: C_1  and  C_2
REMARK    2  A    between atoms: C_6  and  O_7
REMARK    3  A    between atoms: O_7  and  C_8
REMARK    4  A    between atoms: C_8  and  C_9
REMARK    5  A    between atoms: C_9  and  O_10
REMARK    6  A    between atoms: O_10  and  C_11
REMARK    7  A    between atoms: C_11  and  C_12
REMARK    8  A    between atoms: C_12  and  N_13
REMARK    9  A    between atoms: C_14  and  C_15
REMARK   10  A    between atoms: C_31  and  C_32
REMARK                            x       y       z     vdW  Elec       q    Type
REMARK                         _______ _______ _______ _____ _____    ______ ____
ROOT
ATOM      1  N   UNL     1       6.407   5.312  16.063  0.00  0.00    +0.000 N 
ATOM      2  C   UNL     1       5.158   4.651  16.125  0.00  0.00    +0.000 A 
ATOM      3  N   UNL     1       4.702   3.953  15.123  0.00  0.00    +0.000 NA
ATOM      4  C   UNL     1       5.446   3.891  13.925  0.00  0.00    +0.000 A 
ATOM      5  C   UNL     1       4.934   3.244  12.808  0.00  0.00    +0.000 A 
ATOM      6  C   UNL     1       5.656   3.232  11.606  0.00  0.00    +0.000 A 
ATOM      7  C   UNL     1       6.907   3.823  11.505  0.00  0.00    +0.000 A 
ATOM      8  C   UNL     1       7.437   4.457  12.620  0.00  0.00    +0.000 A 
ATOM      9  C   UNL     1       6.680   4.519  13.790  0.00  0.00    +0.000 A 
ATOM     10  C   UNL     1       7.196   5.256  14.928  0.00  0.00    +0.000 A 
ATOM     11  O   UNL     1       8.291   5.795  14.773  0.00  0.00    +0.000 OA
ENDROOT
BRANCH   2  12
ATOM     12  C   UNL     1       4.313   4.688  17.390  0.00  0.00    +0.000 A 
ATOM     13  C   UNL     1       3.516   5.783  17.753  0.00  0.00    +0.000 A 
ATOM     14  C   UNL     1       2.910   5.886  19.005  0.00  0.00    +0.000 A 
ATOM     15  C   UNL     1       2.948   4.801  19.860  0.00  0.00    +0.000 A 
ATOM     16 CL   UNL     1       2.154   4.899  21.381  0.00  0.00    +0.000 Cl
ATOM     17  C   UNL     1       3.594   3.629  19.468  0.00  0.00    +0.000 A 
ATOM     18  C   UNL     1       4.294   3.578  18.248  0.00  0.00    +0.000 A 
ENDBRANCH   2  12
BRANCH   1  19
ATOM     19  C   UNL     1       6.964   6.017  17.205  0.00  0.00    +0.000 C 
BRANCH  19  20
ATOM     20  C   UNL     1       6.865   7.532  17.346  0.00  0.00    +0.000 C 
BRANCH  20  21
ATOM     21  O   UNL     1       8.092   8.077  17.853  0.00  0.00    +0.000 OA
BRANCH  21  22
ATOM     22  C   UNL     1       8.057   9.493  18.031  0.00  0.00    +0.000 C 
BRANCH  22  23
ATOM     23  C   UNL     1       9.255   9.987  18.824  0.00  0.00    +0.000 C 
BRANCH  23  24
ATOM     24  O   UNL     1       9.081  11.356  19.114  0.00  0.00    +0.000 OA
BRANCH  24  30
ATOM     25  C   UNL     1       9.894  15.924  17.641  0.00  0.00    +0.000 C 
ATOM     26  C   UNL     1      10.298  14.482  17.719  0.00  0.00    +0.000 A 
ATOM     27  C   UNL     1      11.475  14.065  17.078  0.00  0.00    +0.000 A 
ATOM     28  C   UNL     1      11.887  12.739  17.135  0.00  0.00    +0.000 A 
ATOM     29  C   UNL     1      11.119  11.811  17.827  0.00  0.00    +0.000 A 
ATOM     30  C   UNL     1       9.929  12.203  18.455  0.00  0.00    +0.000 A 
ATOM     31  C   UNL     1       9.512  13.544  18.416  0.00  0.00    +0.000 A 
ATOM     32  C   UNL     1       8.238  13.969  19.105  0.00  0.00    +0.000 C 
ENDBRANCH  24  30
ENDBRANCH  23  24
ENDBRANCH  22  23
ENDBRANCH  21  22
ENDBRANCH  20  21
ENDBRANCH  19  20
ENDBRANCH   1  19
TORSDOF 8
ENDMDL
MODEL 9
REMARK VINA RESULT:      -7.7      2.593      5.176
REMARK  Name = 
REMARK  10 active torsions:
REMARK  status: ('A' for Active; 'I' for Inactive)
REMARK    1  A    between atoms: C_1  and  C_2
REMARK    2  A    between atoms: C_6  and  O_7
REMARK    3  A    between atoms: O_7  and  C_8
REMARK    4  A    between atoms: C_8  and  C_9
REMARK    5  A    between atoms: C_9  and  O_10
REMARK    6  A    between atoms: O_10  and  C_11
REMARK    7  A    between atoms: C_11  and  C_12
REMARK    8  A    between atoms: C_12  and  N_13
REMARK    9  A    between atoms: C_14  and  C_15
REMARK   10  A    between atoms: C_31  and  C_32
REMARK                            x       y       z     vdW  Elec       q    Type
REMARK                         _______ _______ _______ _____ _____    ______ ____
ROOT
ATOM      1  N   UNL     1       4.284   5.803  17.673  0.00  0.00    +0.000 N 
ATOM      2  C   UNL     1       4.516   4.528  17.106  0.00  0.00    +0.000 A 
ATOM      3  N   UNL     1       4.028   3.443  17.639  0.00  0.00    +0.000 NA
ATOM      4  C   UNL     1       3.289   3.530  18.839  0.00  0.00    +0.000 A 
ATOM      5  C   UNL     1       2.850   2.381  19.483  0.00  0.00    +0.000 A 
ATOM      6  C   UNL     1       2.162   2.474  20.701  0.00  0.00    +0.000 A 
ATOM      7  C   UNL     1       1.866   3.702  21.276  0.00  0.00    +0.000 A 
ATOM      8  C   UNL     1       2.284   4.858  20.632  0.00  0.00    +0.000 A 
ATOM      9  C   UNL     1       3.024   4.750  19.455  0.00  0.00    +0.000 A 
ATOM     10  C   UNL     1       3.537   5.953  18.827  0.00  0.00    +0.000 A 
ATOM     11  O   UNL     1       3.281   7.012  19.398  0.00  0.00    +0.000 OA
ENDROOT
BRANCH   2  12
ATOM     12  C   UNL     1       5.309   4.375  15.816  0.00  0.00    +0.000 A 
ATOM     13  C   UNL     1       6.694   4.580  15.734  0.00  0.00    +0.000 A 
ATOM     14  C   UNL     1       7.371   4.635  14.515  0.00  0.00    +0.000 A 
ATOM     15  C   UNL     1       6.695   4.307  13.356  0.00  0.00    +0.000 A 
ATOM     16 CL   UNL     1       7.537   4.316  11.859  0.00  0.00    +0.000 Cl
ATOM     17  C   UNL     1       5.352   3.936  13.416  0.00  0.00    +0.000 A 
ATOM     18  C   UNL     1       4.654   3.992  14.637  0.00  0.00    +0.000 A 
ENDBRANCH   2  12
BRANCH   1  19
ATOM     19  C   UNL     1       4.748   7.026  17.037  0.00  0.00    +0.000 C 
BRANCH  19  20
ATOM     20  C   UNL     1       6.022   7.734  17.483  0.00  0.00    +0.000 C 
BRANCH  20  21
ATOM     21  O   UNL     1       6.991   6.787  17.955  0.00  0.00    +0.000 OA
BRANCH  21  22
ATOM     22  C   UNL     1       8.227   7.383  18.349  0.00  0.00    +0.000 C 
BRANCH  22  23
ATOM     23  C   UNL     1       8.190   8.895  18.200  0.00  0.00    +0.000 C 
BRANCH  23  24
ATOM     24  O   UNL     1       8.884   9.480  19.279  0.00  0.00    +0.000 OA
BRANCH  24  30
ATOM     25  C   UNL     1      10.255  13.839  20.960  0.00  0.00    +0.000 C 
ATOM     26  C   UNL     1      10.168  12.830  19.854  0.00  0.00    +0.000 A 
ATOM     27  C   UNL     1      10.676  13.158  18.586  0.00  0.00    +0.000 A 
ATOM     28  C   UNL     1      10.621  12.248  17.539  0.00  0.00    +0.000 A 
ATOM     29  C   UNL     1      10.046  10.999  17.743  0.00  0.00    +0.000 A 
ATOM     30  C   UNL     1       9.514  10.661  18.995  0.00  0.00    +0.000 A 
ATOM     31  C   UNL     1       9.579  11.568  20.064  0.00  0.00    +0.000 A 
ATOM     32  C   UNL     1       9.018  11.198  21.417  0.00  0.00    +0.000 C 
ENDBRANCH  24  30
ENDBRANCH  23  24
ENDBRANCH  22  23
ENDBRANCH  21  22
ENDBRANCH  20  21
ENDBRANCH  19  20
ENDBRANCH   1  19
TORSDOF 8
ENDMDL
