MODEL 1
REMARK VINA RESULT:      -8.2      0.000      0.000
REMARK  Name = 
REMARK  6 active torsions:
REMARK  status: ('A' for Active; 'I' for Inactive)
REMARK    1  A    between atoms: C_5  and  N_6
REMARK    2  A    between atoms: N_9  and  C_10
REMARK    3  A    between atoms: C_10  and  C_11
REMARK    4  A    between atoms: C_11  and  C_12
REMARK    5  A    between atoms: C_12  and  O_13
REMARK    6  A    between atoms: O_13  and  C_14
REMARK                            x       y       z     vdW  Elec       q    Type
REMARK                         _______ _______ _______ _____ _____    ______ ____
ROOT
ATOM      1  N   UNL     1       4.725   5.166  18.460  0.00  0.00    +0.000 N 
ATOM      2  C   UNL     1       5.957   4.773  19.137  0.00  0.00    +0.000 C 
ATOM      3  C   UNL     1       7.062   4.694  18.077  0.00  0.00    +0.000 C 
ATOM      4  N   UNL     1       7.193   5.970  17.336  0.00  0.00    +0.000 NA
ATOM      5  C   UNL     1       5.913   6.307  16.678  0.00  0.00    +0.000 C 
ATOM      6  C   UNL     1       4.781   6.414  17.705  0.00  0.00    +0.000 C 
ENDROOT
BRANCH   1  11
ATOM      7  F   UNL     1       0.250   1.797  18.469  0.00  0.00    +0.000 F 
ATOM      8  C   UNL     1       1.328   2.614  18.444  0.00  0.00    +0.000 A 
ATOM      9  C   UNL     1       1.184   3.966  18.134  0.00  0.00    +0.000 A 
ATOM     10  C   UNL     1       2.297   4.805  18.128  0.00  0.00    +0.000 A 
ATOM     11  C   UNL     1       3.581   4.299  18.426  0.00  0.00    +0.000 A 
ATOM     12  C   UNL     1       3.703   2.924  18.720  0.00  0.00    +0.000 A 
ATOM     13  C   UNL     1       2.586   2.094  18.731  0.00  0.00    +0.000 A 
ENDBRANCH   1  11
BRANCH   4  14
ATOM     14  C   UNL     1       7.699   7.107  18.155  0.00  0.00    +0.000 C 
BRANCH  14  15
ATOM     15  C   UNL     1       8.124   8.303  17.295  0.00  0.00    +0.000 C 
BRANCH  15  16
ATOM     16  C   UNL     1       8.082   9.570  18.128  0.00  0.00    +0.000 C 
BRANCH  16  17
ATOM     17  O   UNL     1       9.205   9.669  18.917  0.00  0.00    +0.000 OA
BRANCH  17  18
ATOM     18  C   UNL     1       9.787  10.853  19.235  0.00  0.00    +0.000 A 
ATOM     19  C   UNL     1       9.827  11.336  20.572  0.00  0.00    +0.000 A 
ATOM     20  C   UNL     1      10.417  12.568  20.866  0.00  0.00    +0.000 A 
ATOM     21  C   UNL     1      10.983  13.298  19.829  0.00  0.00    +0.000 A 
ATOM     22  C   UNL     1      10.952  12.841  18.529  0.00  0.00    +0.000 A 
ATOM     23  C   UNL     1      10.347  11.624  18.204  0.00  0.00    +0.000 A 
ATOM     24  C   UNL     1      11.532  13.841  17.598  0.00  0.00    +0.000 C 
ATOM     25  C   UNL     1      12.332  14.712  18.573  0.00  0.00    +0.000 C 
ATOM     26  C   UNL     1      11.587  14.648  19.908  0.00  0.00    +0.000 C 
ENDBRANCH  17  18
ENDBRANCH  16  17
ENDBRANCH  15  16
ENDBRANCH  14  15
ENDBRANCH   4  14
TORSDOF 6
ENDMDL
MODEL 2
REMARK VINA RESULT:      -8.1      0.822      1.613
REMARK  Name = 
REMARK  6 active torsions:
REMARK  status: ('A' for Active; 'I' for Inactive)
REMARK    1  A    between atoms: C_5  and  N_6
REMARK    2  A    between atoms: N_9  and  C_10
REMARK    3  A    between atoms: C_10  and  C_11
REMARK    4  A    between atoms: C_11  and  C_12
REMARK    5  A    between atoms: C_12  and  O_13
REMARK    6  A    between atoms: O_13  and  C_14
REMARK                            x       y       z     vdW  Elec       q    Type
REMARK                         _______ _______ _______ _____ _____    ______ ____
ROOT
ATOM      1  N   UNL     1       4.771   5.177  18.478  0.00  0.00    +0.000 N 
ATOM      2  C   UNL     1       6.047   4.645  18.943  0.00  0.00    +0.000 C 
ATOM      3  C   UNL     1       7.027   4.695  17.765  0.00  0.00    +0.000 C 
ATOM      4  N   UNL     1       7.139   6.066  17.212  0.00  0.00    +0.000 NA
ATOM      5  C   UNL     1       5.812   6.541  16.762  0.00  0.00    +0.000 C 
ATOM      6  C   UNL     1       4.804   6.524  17.917  0.00  0.00    +0.000 C 
ENDROOT
BRANCH   1  11
ATOM      7  F   UNL     1       0.216   1.916  18.453  0.00  0.00    +0.000 F 
ATOM      8  C   UNL     1       1.304   2.720  18.448  0.00  0.00    +0.000 A 
ATOM      9  C   UNL     1       1.305   3.913  19.169  0.00  0.00    +0.000 A 
ATOM     10  C   UNL     1       2.436   4.727  19.173  0.00  0.00    +0.000 A 
ATOM     11  C   UNL     1       3.589   4.362  18.445  0.00  0.00    +0.000 A 
ATOM     12  C   UNL     1       3.557   3.157  17.710  0.00  0.00    +0.000 A 
ATOM     13  C   UNL     1       2.426   2.346  17.716  0.00  0.00    +0.000 A 
ENDBRANCH   1  11
BRANCH   4  14
ATOM     14  C   UNL     1       7.785   7.047  18.129  0.00  0.00    +0.000 C 
BRANCH  14  15
ATOM     15  C   UNL     1       7.856   8.453  17.523  0.00  0.00    +0.000 C 
BRANCH  15  16
ATOM     16  C   UNL     1       8.528   9.396  18.503  0.00  0.00    +0.000 C 
BRANCH  16  17
ATOM     17  O   UNL     1       9.384  10.250  17.845  0.00  0.00    +0.000 OA
BRANCH  17  18
ATOM     18  C   UNL     1       9.824  11.418  18.377  0.00  0.00    +0.000 A 
ATOM     19  C   UNL     1      10.601  12.341  17.627  0.00  0.00    +0.000 A 
ATOM     20  C   UNL     1      11.056  13.527  18.209  0.00  0.00    +0.000 A 
ATOM     21  C   UNL     1      10.711  13.795  19.528  0.00  0.00    +0.000 A 
ATOM     22  C   UNL     1       9.957  12.908  20.266  0.00  0.00    +0.000 A 
ATOM     23  C   UNL     1       9.511  11.704  19.716  0.00  0.00    +0.000 A 
ATOM     24  C   UNL     1       9.809  13.374  21.668  0.00  0.00    +0.000 C 
ATOM     25  C   UNL     1      10.157  14.859  21.517  0.00  0.00    +0.000 C 
ATOM     26  C   UNL     1      11.146  14.946  20.353  0.00  0.00    +0.000 C 
ENDBRANCH  17  18
ENDBRANCH  16  17
ENDBRANCH  15  16
ENDBRANCH  14  15
ENDBRANCH   4  14
TORSDOF 6
ENDMDL
MODEL 3
REMARK VINA RESULT:      -8.0      1.003      1.120
REMARK  Name = 
REMARK  6 active torsions:
REMARK  status: ('A' for Active; 'I' for Inactive)
REMARK    1  A    between atoms: C_5  and  N_6
REMARK    2  A    between atoms: N_9  and  C_10
REMARK    3  A    between atoms: C_10  and  C_11
REMARK    4  A    between atoms: C_11  and  C_12
REMARK    5  A    between atoms: C_12  and  O_13
REMARK    6  A    between atoms: O_13  and  C_14
REMARK                            x       y       z     vdW  Elec       q    Type
REMARK                         _______ _______ _______ _____ _____    ______ ____
ROOT
ATOM      1  N   UNL     1       4.808   5.397  18.564  0.00  0.00    +0.000 N 
ATOM      2  C   UNL     1       6.046   4.901  19.154  0.00  0.00    +0.000 C 
ATOM      3  C   UNL     1       7.097   4.836  18.039  0.00  0.00    +0.000 C 
ATOM      4  N   UNL     1       7.261   6.150  17.373  0.00  0.00    +0.000 NA
ATOM      5  C   UNL     1       5.971   6.591  16.800  0.00  0.00    +0.000 C 
ATOM      6  C   UNL     1       4.893   6.687  17.886  0.00  0.00    +0.000 C 
ENDROOT
BRANCH   1  11
ATOM      7  F   UNL     1       0.235   2.162  18.527  0.00  0.00    +0.000 F 
ATOM      8  C   UNL     1       1.327   2.961  18.528  0.00  0.00    +0.000 A 
ATOM      9  C   UNL     1       1.388   4.075  19.364  0.00  0.00    +0.000 A 
ATOM     10  C   UNL     1       2.523   4.882  19.372  0.00  0.00    +0.000 A 
ATOM     11  C   UNL     1       3.619   4.591  18.532  0.00  0.00    +0.000 A 
ATOM     12  C   UNL     1       3.527   3.468  17.681  0.00  0.00    +0.000 A 
ATOM     13  C   UNL     1       2.392   2.662  17.684  0.00  0.00    +0.000 A 
ENDBRANCH   1  11
BRANCH   4  14
ATOM     14  C   UNL     1       7.862   7.205  18.236  0.00  0.00    +0.000 C 
BRANCH  14  15
ATOM     15  C   UNL     1       7.956   8.559  17.522  0.00  0.00    +0.000 C 
BRANCH  15  16
ATOM     16  C   UNL     1       8.517   9.598  18.475  0.00  0.00    +0.000 C 
BRANCH  16  17
ATOM     17  O   UNL     1       9.363  10.457  17.811  0.00  0.00    +0.000 OA
BRANCH  17  18
ATOM     18  C   UNL     1       9.937  11.537  18.400  0.00  0.00    +0.000 A 
ATOM     19  C   UNL     1      11.040  11.412  19.289  0.00  0.00    +0.000 A 
ATOM     20  C   UNL     1      11.597  12.540  19.894  0.00  0.00    +0.000 A 
ATOM     21  C   UNL     1      11.066  13.788  19.591  0.00  0.00    +0.000 A 
ATOM     22  C   UNL     1       9.998  13.923  18.731  0.00  0.00    +0.000 A 
ATOM     23  C   UNL     1       9.406  12.808  18.131  0.00  0.00    +0.000 A 
ATOM     24  C   UNL     1       9.556  15.338  18.649  0.00  0.00    +0.000 C 
ATOM     25  C   UNL     1      10.797  16.059  19.185  0.00  0.00    +0.000 C 
ATOM     26  C   UNL     1      11.454  15.093  20.174  0.00  0.00    +0.000 C 
ENDBRANCH  17  18
ENDBRANCH  16  17
ENDBRANCH  15  16
ENDBRANCH  14  15
ENDBRANCH   4  14
TORSDOF 6
ENDMDL
MODEL 4
REMARK VINA RESULT:      -7.9      0.885      1.205
REMARK  Name = 
REMARK  6 active torsions:
REMARK  status: ('A' for Active; 'I' for Inactive)
REMARK    1  A    between atoms: C_5  and  N_6
REMARK    2  A    between atoms: N_9  and  C_10
REMARK    3  A    between atoms: C_10  and  C_11
REMARK    4  A    between atoms: C_11  and  C_12
REMARK    5  A    between atoms: C_12  and  O_13
REMARK    6  A    between atoms: O_13  and  C_14
REMARK                            x       y       z     vdW  Elec       q    Type
REMARK                         _______ _______ _______ _____ _____    ______ ____
ROOT
ATOM      1  N   UNL     1       4.551   5.411  17.823  0.00  0.00    +0.000 N 
ATOM      2  C   UNL     1       5.291   6.012  18.927  0.00  0.00    +0.000 C 
ATOM      3  C   UNL     1       6.754   5.574  18.797  0.00  0.00    +0.000 C 
ATOM      4  N   UNL     1       7.309   5.928  17.469  0.00  0.00    +0.000 NA
ATOM      5  C   UNL     1       6.513   5.288  16.401  0.00  0.00    +0.000 C 
ATOM      6  C   UNL     1       5.043   5.714  16.483  0.00  0.00    +0.000 C 
ENDROOT
BRANCH   1  11
ATOM      7  F   UNL     1       0.361   1.781  18.628  0.00  0.00    +0.000 F 
ATOM      8  C   UNL     1       1.387   2.644  18.445  0.00  0.00    +0.000 A 
ATOM      9  C   UNL     1       2.512   2.261  17.717  0.00  0.00    +0.000 A 
ATOM     10  C   UNL     1       3.557   3.162  17.519  0.00  0.00    +0.000 A 
ATOM     11  C   UNL     1       3.495   4.465  18.056  0.00  0.00    +0.000 A 
ATOM     12  C   UNL     1       2.353   4.824  18.805  0.00  0.00    +0.000 A 
ATOM     13  C   UNL     1       1.311   3.921  18.993  0.00  0.00    +0.000 A 
ENDBRANCH   1  11
BRANCH   4  14
ATOM     14  C   UNL     1       7.455   7.392  17.236  0.00  0.00    +0.000 C 
BRANCH  14  15
ATOM     15  C   UNL     1       8.316   8.071  18.308  0.00  0.00    +0.000 C 
BRANCH  15  16
ATOM     16  C   UNL     1       8.176   9.577  18.194  0.00  0.00    +0.000 C 
BRANCH  16  17
ATOM     17  O   UNL     1       9.388  10.157  17.897  0.00  0.00    +0.000 OA
BRANCH  17  18
ATOM     18  C   UNL     1       9.861  11.259  18.531  0.00  0.00    +0.000 A 
ATOM     19  C   UNL     1      10.153  11.260  19.922  0.00  0.00    +0.000 A 
ATOM     20  C   UNL     1      10.621  12.416  20.551  0.00  0.00    +0.000 A 
ATOM     21  C   UNL     1      10.817  13.557  19.782  0.00  0.00    +0.000 A 
ATOM     22  C   UNL     1      10.538  13.569  18.433  0.00  0.00    +0.000 A 
ATOM     23  C   UNL     1      10.047  12.434  17.785  0.00  0.00    +0.000 A 
ATOM     24  C   UNL     1      10.736  14.925  17.861  0.00  0.00    +0.000 C 
ATOM     25  C   UNL     1      11.619  15.567  18.937  0.00  0.00    +0.000 C 
ATOM     26  C   UNL     1      11.230  14.898  20.258  0.00  0.00    +0.000 C 
ENDBRANCH  17  18
ENDBRANCH  16  17
ENDBRANCH  15  16
ENDBRANCH  14  15
ENDBRANCH   4  14
TORSDOF 6
ENDMDL
MODEL 5
REMARK VINA RESULT:      -7.8      1.456      1.782
REMARK  Name = 
REMARK  6 active torsions:
REMARK  status: ('A' for Active; 'I' for Inactive)
REMARK    1  A    between atoms: C_5  and  N_6
REMARK    2  A    between atoms: N_9  and  C_10
REMARK    3  A    between atoms: C_10  and  C_11
REMARK    4  A    between atoms: C_11  and  C_12
REMARK    5  A    between atoms: C_12  and  O_13
REMARK    6  A    between atoms: O_13  and  C_14
REMARK                            x       y       z     vdW  Elec       q    Type
REMARK                         _______ _______ _______ _____ _____    ______ ____
ROOT
ATOM      1  N   UNL     1       4.524   5.302  18.708  0.00  0.00    +0.000 N 
ATOM      2  C   UNL     1       5.849   5.561  19.261  0.00  0.00    +0.000 C 
ATOM      3  C   UNL     1       6.871   4.842  18.372  0.00  0.00    +0.000 C 
ATOM      4  N   UNL     1       6.744   5.260  16.955  0.00  0.00    +0.000 NA
ATOM      5  C   UNL     1       5.380   4.970  16.462  0.00  0.00    +0.000 C 
ATOM      6  C   UNL     1       4.326   5.685  17.314  0.00  0.00    +0.000 C 
ENDROOT
BRANCH   1  11
ATOM      7  F   UNL     1       0.734   2.496  21.731  0.00  0.00    +0.000 F 
ATOM      8  C   UNL     1       1.633   3.179  20.986  0.00  0.00    +0.000 A 
ATOM      9  C   UNL     1       1.512   4.558  20.819  0.00  0.00    +0.000 A 
ATOM     10  C   UNL     1       2.451   5.257  20.065  0.00  0.00    +0.000 A 
ATOM     11  C   UNL     1       3.530   4.581  19.454  0.00  0.00    +0.000 A 
ATOM     12  C   UNL     1       3.622   3.183  19.624  0.00  0.00    +0.000 A 
ATOM     13  C   UNL     1       2.683   2.493  20.385  0.00  0.00    +0.000 A 
ENDBRANCH   1  11
BRANCH   4  14
ATOM     14  C   UNL     1       7.126   6.677  16.697  0.00  0.00    +0.000 C 
BRANCH  14  15
ATOM     15  C   UNL     1       7.917   7.289  17.858  0.00  0.00    +0.000 C 
BRANCH  15  16
ATOM     16  C   UNL     1       7.806   8.801  17.809  0.00  0.00    +0.000 C 
BRANCH  16  17
ATOM     17  O   UNL     1       8.579   9.377  18.792  0.00  0.00    +0.000 OA
BRANCH  17  18
ATOM     18  C   UNL     1       9.177  10.587  18.654  0.00  0.00    +0.000 A 
ATOM     19  C   UNL     1       8.618  11.615  17.846  0.00  0.00    +0.000 A 
ATOM     20  C   UNL     1       9.267  12.844  17.708  0.00  0.00    +0.000 A 
ATOM     21  C   UNL     1      10.457  13.048  18.396  0.00  0.00    +0.000 A 
ATOM     22  C   UNL     1      11.009  12.060  19.182  0.00  0.00    +0.000 A 
ATOM     23  C   UNL     1      10.393  10.813  19.318  0.00  0.00    +0.000 A 
ATOM     24  C   UNL     1      12.323  12.486  19.728  0.00  0.00    +0.000 C 
ATOM     25  C   UNL     1      12.229  14.005  19.554  0.00  0.00    +0.000 C 
ATOM     26  C   UNL     1      11.337  14.237  18.331  0.00  0.00    +0.000 C 
ENDBRANCH  17  18
ENDBRANCH  16  17
ENDBRANCH  15  16
ENDBRANCH  14  15
ENDBRANCH   4  14
TORSDOF 6
ENDMDL
MODEL 6
REMARK VINA RESULT:      -7.7      6.271      7.995
REMARK  Name = 
REMARK  6 active torsions:
REMARK  status: ('A' for Active; 'I' for Inactive)
REMARK    1  A    between atoms: C_5  and  N_6
REMARK    2  A    between atoms: N_9  and  C_10
REMARK    3  A    between atoms: C_10  and  C_11
REMARK    4  A    between atoms: C_11  and  C_12
REMARK    5  A    between atoms: C_12  and  O_13
REMARK    6  A    between atoms: O_13  and  C_14
REMARK                            x       y       z     vdW  Elec       q    Type
REMARK                         _______ _______ _______ _____ _____    ______ ____
ROOT
ATOM      1  N   UNL     1       4.235   3.973  17.411  0.00  0.00    +0.000 N 
ATOM      2  C   UNL     1       2.986   3.303  17.060  0.00  0.00    +0.000 C 
ATOM      3  C   UNL     1       2.955   1.963  17.803  0.00  0.00    +0.000 C 
ATOM      4  N   UNL     1       3.119   2.151  19.265  0.00  0.00    +0.000 NA
ATOM      5  C   UNL     1       4.400   2.833  19.547  0.00  0.00    +0.000 C 
ATOM      6  C   UNL     1       4.466   4.189  18.835  0.00  0.00    +0.000 C 
ENDROOT
BRANCH   1  11
ATOM      7  F   UNL     1       8.051   5.233  13.509  0.00  0.00    +0.000 F 
ATOM      8  C   UNL     1       7.143   4.914  14.460  0.00  0.00    +0.000 A 
ATOM      9  C   UNL     1       7.396   5.197  15.802  0.00  0.00    +0.000 A 
ATOM     10  C   UNL     1       6.450   4.881  16.774  0.00  0.00    +0.000 A 
ATOM     11  C   UNL     1       5.231   4.265  16.418  0.00  0.00    +0.000 A 
ATOM     12  C   UNL     1       5.005   3.973  15.055  0.00  0.00    +0.000 A 
ATOM     13  C   UNL     1       5.953   4.298  14.090  0.00  0.00    +0.000 A 
ENDBRANCH   1  11
BRANCH   4  14
ATOM     14  C   UNL     1       1.978   2.841  19.927  0.00  0.00    +0.000 C 
BRANCH  14  15
ATOM     15  C   UNL     1       2.406   3.593  21.193  0.00  0.00    +0.000 C 
BRANCH  15  16
ATOM     16  C   UNL     1       1.858   5.007  21.155  0.00  0.00    +0.000 C 
BRANCH  16  17
ATOM     17  O   UNL     1       2.576   5.782  20.272  0.00  0.00    +0.000 OA
BRANCH  17  18
ATOM     18  C   UNL     1       2.150   6.991  19.827  0.00  0.00    +0.000 A 
ATOM     19  C   UNL     1       2.405   7.437  18.502  0.00  0.00    +0.000 A 
ATOM     20  C   UNL     1       1.970   8.695  18.078  0.00  0.00    +0.000 A 
ATOM     21  C   UNL     1       1.262   9.489  18.972  0.00  0.00    +0.000 A 
ATOM     22  C   UNL     1       1.007   9.068  20.260  0.00  0.00    +0.000 A 
ATOM     23  C   UNL     1       1.453   7.825  20.716  0.00  0.00    +0.000 A 
ATOM     24  C   UNL     1       0.326  10.130  21.042  0.00  0.00    +0.000 C 
ATOM     25  C   UNL     1      -0.207  11.021  19.916  0.00  0.00    +0.000 C 
ATOM     26  C   UNL     1       0.779  10.872  18.755  0.00  0.00    +0.000 C 
ENDBRANCH  17  18
ENDBRANCH  16  17
ENDBRANCH  15  16
ENDBRANCH  14  15
ENDBRANCH   4  14
TORSDOF 6
ENDMDL
MODEL 7
REMARK VINA RESULT:      -7.7      0.920      1.769
REMARK  Name = 
REMARK  6 active torsions:
REMARK  status: ('A' for Active; 'I' for Inactive)
REMARK    1  A    between atoms: C_5  and  N_6
REMARK    2  A    between atoms: N_9  and  C_10
REMARK    3  A    between atoms: C_10  and  C_11
REMARK    4  A    between atoms: C_11  and  C_12
REMARK    5  A    between atoms: C_12  and  O_13
REMARK    6  A    between atoms: O_13  and  C_14
REMARK                            x       y       z     vdW  Elec       q    Type
REMARK                         _______ _______ _______ _____ _____    ______ ____
ROOT
ATOM      1  N   UNL     1       4.712   5.338  18.122  0.00  0.00    +0.000 N 
ATOM      2  C   UNL     1       5.775   5.637  19.076  0.00  0.00    +0.000 C 
ATOM      3  C   UNL     1       7.106   5.246  18.423  0.00  0.00    +0.000 C 
ATOM      4  N   UNL     1       7.290   5.929  17.120  0.00  0.00    +0.000 NA
ATOM      5  C   UNL     1       6.180   5.583  16.207  0.00  0.00    +0.000 C 
ATOM      6  C   UNL     1       4.829   5.974  16.814  0.00  0.00    +0.000 C 
ENDROOT
BRANCH   1  11
ATOM      7  F   UNL     1       0.667   1.608  19.175  0.00  0.00    +0.000 F 
ATOM      8  C   UNL     1       1.659   2.494  18.929  0.00  0.00    +0.000 A 
ATOM      9  C   UNL     1       2.645   2.208  17.985  0.00  0.00    +0.000 A 
ATOM     10  C   UNL     1       3.654   3.133  17.725  0.00  0.00    +0.000 A 
ATOM     11  C   UNL     1       3.697   4.364  18.414  0.00  0.00    +0.000 A 
ATOM     12  C   UNL     1       2.697   4.624  19.377  0.00  0.00    +0.000 A 
ATOM     13  C   UNL     1       1.689   3.697  19.626  0.00  0.00    +0.000 A 
ENDBRANCH   1  11
BRANCH   4  14
ATOM     14  C   UNL     1       7.472   7.404  17.221  0.00  0.00    +0.000 C 
BRANCH  14  15
ATOM     15  C   UNL     1       8.257   7.811  18.473  0.00  0.00    +0.000 C 
BRANCH  15  16
ATOM     16  C   UNL     1       8.506   9.307  18.453  0.00  0.00    +0.000 C 
BRANCH  16  17
ATOM     17  O   UNL     1       9.391   9.665  19.446  0.00  0.00    +0.000 OA
BRANCH  17  18
ATOM     18  C   UNL     1       9.908  10.914  19.566  0.00  0.00    +0.000 A 
ATOM     19  C   UNL     1      10.901  11.406  18.676  0.00  0.00    +0.000 A 
ATOM     20  C   UNL     1      11.428  12.690  18.837  0.00  0.00    +0.000 A 
ATOM     21  C   UNL     1      10.943  13.482  19.870  0.00  0.00    +0.000 A 
ATOM     22  C   UNL     1       9.980  13.017  20.740  0.00  0.00    +0.000 A 
ATOM     23  C   UNL     1       9.454  11.729  20.616  0.00  0.00    +0.000 A 
ATOM     24  C   UNL     1       9.703  14.010  21.809  0.00  0.00    +0.000 C 
ATOM     25  C   UNL     1      10.268  15.284  21.172  0.00  0.00    +0.000 C 
ATOM     26  C   UNL     1      11.412  14.832  20.261  0.00  0.00    +0.000 C 
ENDBRANCH  17  18
ENDBRANCH  16  17
ENDBRANCH  15  16
ENDBRANCH  14  15
ENDBRANCH   4  14
TORSDOF 6
ENDMDL
MODEL 8
REMARK VINA RESULT:      -7.7      1.292      1.596
REMARK  Name = 
REMARK  6 active torsions:
REMARK  status: ('A' for Active; 'I' for Inactive)
REMARK    1  A    between atoms: C_5  and  N_6
REMARK    2  A    between atoms: N_9  and  C_10
REMARK    3  A    between atoms: C_10  and  C_11
REMARK    4  A    between atoms: C_11  and  C_12
REMARK    5  A    between atoms: C_12  and  O_13
REMARK    6  A    between atoms: O_13  and  C_14
REMARK                            x       y       z     vdW  Elec       q    Type
REMARK                         _______ _______ _______ _____ _____    ______ ____
ROOT
ATOM      1  N   UNL     1       4.713   5.400  18.593  0.00  0.00    +0.000 N 
ATOM      2  C   UNL     1       5.995   5.094  19.218  0.00  0.00    +0.000 C 
ATOM      3  C   UNL     1       7.070   5.160  18.127  0.00  0.00    +0.000 C 
ATOM      4  N   UNL     1       7.062   6.473  17.439  0.00  0.00    +0.000 NA
ATOM      5  C   UNL     1       5.737   6.717  16.831  0.00  0.00    +0.000 C 
ATOM      6  C   UNL     1       4.632   6.678  17.892  0.00  0.00    +0.000 C 
ENDROOT
BRANCH   1  11
ATOM      7  F   UNL     1       0.593   1.605  18.571  0.00  0.00    +0.000 F 
ATOM      8  C   UNL     1       1.580   2.530  18.557  0.00  0.00    +0.000 A 
ATOM      9  C   UNL     1       1.281   3.885  18.700  0.00  0.00    +0.000 A 
ATOM     10  C   UNL     1       2.304   4.830  18.702  0.00  0.00    +0.000 A 
ATOM     11  C   UNL     1       3.651   4.434  18.552  0.00  0.00    +0.000 A 
ATOM     12  C   UNL     1       3.926   3.059  18.392  0.00  0.00    +0.000 A 
ATOM     13  C   UNL     1       2.899   2.120  18.397  0.00  0.00    +0.000 A 
ENDBRANCH   1  11
BRANCH   4  14
ATOM     14  C   UNL     1       7.488   7.616  18.293  0.00  0.00    +0.000 C 
BRANCH  14  15
ATOM     15  C   UNL     1       8.167   8.727  17.484  0.00  0.00    +0.000 C 
BRANCH  15  16
ATOM     16  C   UNL     1       8.829   9.713  18.428  0.00  0.00    +0.000 C 
BRANCH  16  17
ATOM     17  O   UNL     1       8.517  11.006  18.076  0.00  0.00    +0.000 OA
BRANCH  17  18
ATOM     18  C   UNL     1       9.453  11.971  17.887  0.00  0.00    +0.000 A 
ATOM     19  C   UNL     1      10.823  11.659  17.670  0.00  0.00    +0.000 A 
ATOM     20  C   UNL     1      11.766  12.674  17.498  0.00  0.00    +0.000 A 
ATOM     21  C   UNL     1      11.332  13.995  17.520  0.00  0.00    +0.000 A 
ATOM     22  C   UNL     1      10.007  14.311  17.729  0.00  0.00    +0.000 A 
ATOM     23  C   UNL     1       9.048  13.315  17.928  0.00  0.00    +0.000 A 
ATOM     24  C   UNL     1       9.817  15.781  17.806  0.00  0.00    +0.000 C 
ATOM     25  C   UNL     1      11.105  16.275  17.138  0.00  0.00    +0.000 C 
ATOM     26  C   UNL     1      12.168  15.214  17.434  0.00  0.00    +0.000 C 
ENDBRANCH  17  18
ENDBRANCH  16  17
ENDBRANCH  15  16
ENDBRANCH  14  15
ENDBRANCH   4  14
TORSDOF 6
ENDMDL
MODEL 9
REMARK VINA RESULT:      -7.6      1.007      1.563
REMARK  Name = 
REMARK  6 active torsions:
REMARK  status: ('A' for Active; 'I' for Inactive)
REMARK    1  A    between atoms: C_5  and  N_6
REMARK    2  A    between atoms: N_9  and  C_10
REMARK    3  A    between atoms: C_10  and  C_11
REMARK    4  A    between atoms: C_11  and  C_12
REMARK    5  A    between atoms: C_12  and  O_13
REMARK    6  A    between atoms: O_13  and  C_14
REMARK                            x       y       z     vdW  Elec       q    Type
REMARK                         _______ _______ _______ _____ _____    ______ ____
ROOT
ATOM      1  N   UNL     1       4.815   5.123  18.371  0.00  0.00    +0.000 N 
ATOM      2  C   UNL     1       6.168   4.577  18.342  0.00  0.00    +0.000 C 
ATOM      3  C   UNL     1       6.808   4.999  17.014  0.00  0.00    +0.000 C 
ATOM      4  N   UNL     1       6.775   6.471  16.840  0.00  0.00    +0.000 NA
ATOM      5  C   UNL     1       5.378   6.953  16.881  0.00  0.00    +0.000 C 
ATOM      6  C   UNL     1       4.703   6.568  18.202  0.00  0.00    +0.000 C 
ENDROOT
BRANCH   1  11
ATOM      7  F   UNL     1       0.276   1.841  18.438  0.00  0.00    +0.000 F 
ATOM      8  C   UNL     1       1.382   2.619  18.436  0.00  0.00    +0.000 A 
ATOM      9  C   UNL     1       2.576   2.150  17.888  0.00  0.00    +0.000 A 
ATOM     10  C   UNL     1       3.707   2.964  17.873  0.00  0.00    +0.000 A 
ATOM     11  C   UNL     1       3.664   4.265  18.418  0.00  0.00    +0.000 A 
ATOM     12  C   UNL     1       2.449   4.711  18.982  0.00  0.00    +0.000 A 
ATOM     13  C   UNL     1       1.322   3.895  18.987  0.00  0.00    +0.000 A 
ENDBRANCH   1  11
BRANCH   4  14
ATOM     14  C   UNL     1       7.637   7.221  17.794  0.00  0.00    +0.000 C 
BRANCH  14  15
ATOM     15  C   UNL     1       7.914   8.655  17.327  0.00  0.00    +0.000 C 
BRANCH  15  16
ATOM     16  C   UNL     1       8.535   9.449  18.461  0.00  0.00    +0.000 C 
BRANCH  16  17
ATOM     17  O   UNL     1       9.634  10.149  18.018  0.00  0.00    +0.000 OA
BRANCH  17  18
ATOM     18  C   UNL     1       9.779  11.488  18.183  0.00  0.00    +0.000 A 
ATOM     19  C   UNL     1       8.762  12.406  17.805  0.00  0.00    +0.000 A 
ATOM     20  C   UNL     1       8.947  13.781  17.970  0.00  0.00    +0.000 A 
ATOM     21  C   UNL     1      10.137  14.228  18.532  0.00  0.00    +0.000 A 
ATOM     22  C   UNL     1      11.130  13.348  18.903  0.00  0.00    +0.000 A 
ATOM     23  C   UNL     1      10.980  11.970  18.727  0.00  0.00    +0.000 A 
ATOM     24  C   UNL     1      12.333  14.075  19.383  0.00  0.00    +0.000 C 
ATOM     25  C   UNL     1      11.734  15.450  19.695  0.00  0.00    +0.000 C 
ATOM     26  C   UNL     1      10.565  15.633  18.724  0.00  0.00    +0.000 C 
ENDBRANCH  17  18
ENDBRANCH  16  17
ENDBRANCH  15  16
ENDBRANCH  14  15
ENDBRANCH   4  14
TORSDOF 6
ENDMDL
