MODEL 1
REMARK VINA RESULT:      -9.2      0.000      0.000
REMARK  Name = 
REMARK  5 active torsions:
REMARK  status: ('A' for Active; 'I' for Inactive)
REMARK    1  A    between atoms: O_1  and  C_2
REMARK    2  A    between atoms: C_2  and  C_3
REMARK    3  A    between atoms: C_2  and  C_9
REMARK    4  A    between atoms: C_13  and  C_14
REMARK    5  A    between atoms: C_19  and  C_20
REMARK                            x       y       z     vdW  Elec       q    Type
REMARK                         _______ _______ _______ _____ _____    ______ ____
ROOT
ATOM      1  C   UNL     1       1.763   7.343  20.071  0.00  0.00    +0.000 A 
ATOM      2  C   UNL     1       1.924   8.270  18.949  0.00  0.00    +0.000 A 
ATOM      3  C   UNL     1       1.426   9.520  18.978  0.00  0.00    +0.000 A 
ATOM      4  C   UNL     1       0.729   9.973  20.132  0.00  0.00    +0.000 A 
ATOM      5  N   UNL     1       0.171  11.132  20.415  0.00  0.00    +0.000 NA
ATOM      6  C   UNL     1      -0.330  10.998  21.694  0.00  0.00    +0.000 A 
ATOM      7  C   UNL     1      -0.087   9.730  22.179  0.00  0.00    +0.000 A 
ATOM      8  N   UNL     1       0.597   9.077  21.185  0.00  0.00    +0.000 N 
ATOM      9  C   UNL     1       1.101   7.777  21.165  0.00  0.00    +0.000 A 
ENDROOT
BRANCH   6  10
ATOM     10  C   UNL     1      -0.991  12.088  22.396  0.00  0.00    +0.000 A 
ATOM     11  C   UNL     1      -2.226  11.853  23.024  0.00  0.00    +0.000 A 
ATOM     12  C   UNL     1      -2.908  12.884  23.676  0.00  0.00    +0.000 A 
ATOM     13  C   UNL     1      -2.358  14.163  23.706  0.00  0.00    +0.000 A 
ATOM     14 CL   UNL     1      -3.202  15.439  24.492  0.00  0.00    +0.000 Cl
ATOM     15  C   UNL     1      -1.132  14.414  23.101  0.00  0.00    +0.000 A 
ATOM     16  C   UNL     1      -0.449  13.381  22.448  0.00  0.00    +0.000 A 
ENDBRANCH   6  10
BRANCH   1  21
ATOM     17  C   UNL     1       4.042   4.399  19.408  0.00  0.00    +0.000 A 
ATOM     18  C   UNL     1       3.324   3.379  20.053  0.00  0.00    +0.000 A 
ATOM     19  C   UNL     1       2.101   3.644  20.674  0.00  0.00    +0.000 A 
ATOM     20  C   UNL     1       1.582   4.938  20.668  0.00  0.00    +0.000 A 
ATOM     21  C   UNL     1       2.291   5.973  20.054  0.00  0.00    +0.000 A 
ATOM     22  C   UNL     1       3.515   5.701  19.430  0.00  0.00    +0.000 A 
BRANCH  17  23
ATOM     23  C   UNL     1       5.302   4.070  18.636  0.00  0.00    +0.000 C 
BRANCH  23  24
ATOM     24  C   UNL     1       6.195   5.246  18.271  0.00  0.00    +0.000 A 
ATOM     25  C   UNL     1       7.293   5.617  19.066  0.00  0.00    +0.000 A 
ATOM     26  C   UNL     1       8.038   6.760  18.768  0.00  0.00    +0.000 A 
ATOM     27  C   UNL     1       7.710   7.536  17.661  0.00  0.00    +0.000 A 
ATOM     28  C   UNL     1       6.647   7.163  16.841  0.00  0.00    +0.000 A 
ATOM     29  C   UNL     1       5.897   6.023  17.141  0.00  0.00    +0.000 A 
ENDBRANCH  23  24
BRANCH  23  30
ATOM     30  O   UNL     1       4.925   3.334  17.469  0.00  0.00    +0.000 OA
ATOM     31  H   UNL     1       5.540   2.585  17.406  0.00  0.00    +0.000 HD
ENDBRANCH  23  30
ENDBRANCH  17  23
ENDBRANCH   1  21
TORSDOF 5
ENDMDL
MODEL 2
REMARK VINA RESULT:      -9.2      0.242      1.267
REMARK  Name = 
REMARK  5 active torsions:
REMARK  status: ('A' for Active; 'I' for Inactive)
REMARK    1  A    between atoms: O_1  and  C_2
REMARK    2  A    between atoms: C_2  and  C_3
REMARK    3  A    between atoms: C_2  and  C_9
REMARK    4  A    between atoms: C_13  and  C_14
REMARK    5  A    between atoms: C_19  and  C_20
REMARK                            x       y       z     vdW  Elec       q    Type
REMARK                         _______ _______ _______ _____ _____    ______ ____
ROOT
ATOM      1  C   UNL     1       1.593   7.387  20.187  0.00  0.00    +0.000 A 
ATOM      2  C   UNL     1       1.788   8.345  19.096  0.00  0.00    +0.000 A 
ATOM      3  C   UNL     1       1.294   9.596  19.147  0.00  0.00    +0.000 A 
ATOM      4  C   UNL     1       0.568  10.020  20.294  0.00  0.00    +0.000 A 
ATOM      5  N   UNL     1       0.006  11.173  20.593  0.00  0.00    +0.000 NA
ATOM      6  C   UNL     1      -0.530  11.006  21.854  0.00  0.00    +0.000 A 
ATOM      7  C   UNL     1      -0.306   9.723  22.310  0.00  0.00    +0.000 A 
ATOM      8  N   UNL     1       0.403   9.095  21.316  0.00  0.00    +0.000 N 
ATOM      9  C   UNL     1       0.902   7.794  21.274  0.00  0.00    +0.000 A 
ENDROOT
BRANCH   6  10
ATOM     10  C   UNL     1      -1.207  12.079  22.568  0.00  0.00    +0.000 A 
ATOM     11  C   UNL     1      -0.573  13.326  22.695  0.00  0.00    +0.000 A 
ATOM     12  C   UNL     1      -1.175  14.369  23.406  0.00  0.00    +0.000 A 
ATOM     13  C   UNL     1      -2.420  14.171  23.996  0.00  0.00    +0.000 A 
ATOM     14 CL   UNL     1      -3.158  15.445  24.886  0.00  0.00    +0.000 Cl
ATOM     15  C   UNL     1      -3.069  12.947  23.873  0.00  0.00    +0.000 A 
ATOM     16  C   UNL     1      -2.466  11.904  23.161  0.00  0.00    +0.000 A 
ENDBRANCH   6  10
BRANCH   1  21
ATOM     17  C   UNL     1       3.903   4.461  19.557  0.00  0.00    +0.000 A 
ATOM     18  C   UNL     1       3.137   3.418  20.102  0.00  0.00    +0.000 A 
ATOM     19  C   UNL     1       1.873   3.664  20.644  0.00  0.00    +0.000 A 
ATOM     20  C   UNL     1       1.360   4.959  20.660  0.00  0.00    +0.000 A 
ATOM     21  C   UNL     1       2.116   6.017  20.146  0.00  0.00    +0.000 A 
ATOM     22  C   UNL     1       3.381   5.765  19.600  0.00  0.00    +0.000 A 
BRANCH  17  23
ATOM     23  C   UNL     1       5.215   4.159  18.864  0.00  0.00    +0.000 C 
BRANCH  23  24
ATOM     24  C   UNL     1       6.054   5.360  18.457  0.00  0.00    +0.000 A 
ATOM     25  C   UNL     1       5.717   6.157  17.349  0.00  0.00    +0.000 A 
ATOM     26  C   UNL     1       6.555   7.194  16.933  0.00  0.00    +0.000 A 
ATOM     27  C   UNL     1       7.731   7.461  17.628  0.00  0.00    +0.000 A 
ATOM     28  C   UNL     1       8.062   6.704  18.749  0.00  0.00    +0.000 A 
ATOM     29  C   UNL     1       7.227   5.664  19.164  0.00  0.00    +0.000 A 
ENDBRANCH  23  24
BRANCH  23  30
ATOM     30  O   UNL     1       4.936   3.324  17.736  0.00  0.00    +0.000 OA
ATOM     31  H   UNL     1       4.404   2.583  18.068  0.00  0.00    +0.000 HD
ENDBRANCH  23  30
ENDBRANCH  17  23
ENDBRANCH   1  21
TORSDOF 5
ENDMDL
MODEL 3
REMARK VINA RESULT:      -9.1      1.197      1.558
REMARK  Name = 
REMARK  5 active torsions:
REMARK  status: ('A' for Active; 'I' for Inactive)
REMARK    1  A    between atoms: O_1  and  C_2
REMARK    2  A    between atoms: C_2  and  C_3
REMARK    3  A    between atoms: C_2  and  C_9
REMARK    4  A    between atoms: C_13  and  C_14
REMARK    5  A    between atoms: C_19  and  C_20
REMARK                            x       y       z     vdW  Elec       q    Type
REMARK                         _______ _______ _______ _____ _____    ______ ____
ROOT
ATOM      1  C   UNL     1       1.502   7.680  20.211  0.00  0.00    +0.000 A 
ATOM      2  C   UNL     1       1.646   8.657  19.129  0.00  0.00    +0.000 A 
ATOM      3  C   UNL     1       1.129   9.897  19.214  0.00  0.00    +0.000 A 
ATOM      4  C   UNL     1       0.428  10.289  20.387  0.00  0.00    +0.000 A 
ATOM      5  N   UNL     1      -0.147  11.426  20.720  0.00  0.00    +0.000 NA
ATOM      6  C   UNL     1      -0.643  11.230  21.993  0.00  0.00    +0.000 A 
ATOM      7  C   UNL     1      -0.380   9.946  22.423  0.00  0.00    +0.000 A 
ATOM      8  N   UNL     1       0.312   9.346  21.400  0.00  0.00    +0.000 N 
ATOM      9  C   UNL     1       0.836   8.057  21.324  0.00  0.00    +0.000 A 
ENDROOT
BRANCH   6  10
ATOM     10  C   UNL     1      -1.320  12.278  22.743  0.00  0.00    +0.000 A 
ATOM     11  C   UNL     1      -2.595  12.028  23.276  0.00  0.00    +0.000 A 
ATOM     12  C   UNL     1      -3.291  13.023  23.970  0.00  0.00    +0.000 A 
ATOM     13  C   UNL     1      -2.714  14.278  24.137  0.00  0.00    +0.000 A 
ATOM     14 CL   UNL     1      -3.572  15.511  24.975  0.00  0.00    +0.000 Cl
ATOM     15  C   UNL     1      -1.447  14.543  23.626  0.00  0.00    +0.000 A 
ATOM     16  C   UNL     1      -0.751  13.547  22.932  0.00  0.00    +0.000 A 
ENDBRANCH   6  10
BRANCH   1  21
ATOM     17  C   UNL     1       3.885   4.821  19.547  0.00  0.00    +0.000 A 
ATOM     18  C   UNL     1       3.120   3.744  20.023  0.00  0.00    +0.000 A 
ATOM     19  C   UNL     1       1.834   3.946  20.530  0.00  0.00    +0.000 A 
ATOM     20  C   UNL     1       1.297   5.231  20.579  0.00  0.00    +0.000 A 
ATOM     21  C   UNL     1       2.051   6.321  20.134  0.00  0.00    +0.000 A 
ATOM     22  C   UNL     1       3.338   6.112  19.623  0.00  0.00    +0.000 A 
BRANCH  17  23
ATOM     23  C   UNL     1       5.225   4.568  18.889  0.00  0.00    +0.000 C 
BRANCH  23  24
ATOM     24  C   UNL     1       5.297   4.816  17.390  0.00  0.00    +0.000 A 
ATOM     25  C   UNL     1       5.623   3.791  16.485  0.00  0.00    +0.000 A 
ATOM     26  C   UNL     1       5.782   4.062  15.124  0.00  0.00    +0.000 A 
ATOM     27  C   UNL     1       5.598   5.356  14.646  0.00  0.00    +0.000 A 
ATOM     28  C   UNL     1       5.239   6.377  15.523  0.00  0.00    +0.000 A 
ATOM     29  C   UNL     1       5.085   6.108  16.885  0.00  0.00    +0.000 A 
ENDBRANCH  23  24
BRANCH  23  30
ATOM     30  O   UNL     1       5.628   3.232  19.206  0.00  0.00    +0.000 OA
ATOM     31  H   UNL     1       6.573   3.173  18.994  0.00  0.00    +0.000 HD
ENDBRANCH  23  30
ENDBRANCH  17  23
ENDBRANCH   1  21
TORSDOF 5
ENDMDL
MODEL 4
REMARK VINA RESULT:      -9.0      1.887      2.514
REMARK  Name = 
REMARK  5 active torsions:
REMARK  status: ('A' for Active; 'I' for Inactive)
REMARK    1  A    between atoms: O_1  and  C_2
REMARK    2  A    between atoms: C_2  and  C_3
REMARK    3  A    between atoms: C_2  and  C_9
REMARK    4  A    between atoms: C_13  and  C_14
REMARK    5  A    between atoms: C_19  and  C_20
REMARK                            x       y       z     vdW  Elec       q    Type
REMARK                         _______ _______ _______ _____ _____    ______ ____
ROOT
ATOM      1  C   UNL     1       2.487   7.446  18.959  0.00  0.00    +0.000 A 
ATOM      2  C   UNL     1       2.344   8.320  17.792  0.00  0.00    +0.000 A 
ATOM      3  C   UNL     1       1.567   9.419  17.815  0.00  0.00    +0.000 A 
ATOM      4  C   UNL     1       0.865   9.761  19.003  0.00  0.00    +0.000 A 
ATOM      5  N   UNL     1       0.069  10.771  19.286  0.00  0.00    +0.000 NA
ATOM      6  C   UNL     1      -0.295  10.596  20.606  0.00  0.00    +0.000 A 
ATOM      7  C   UNL     1       0.275   9.449  21.117  0.00  0.00    +0.000 A 
ATOM      8  N   UNL     1       1.023   8.919  20.096  0.00  0.00    +0.000 N 
ATOM      9  C   UNL     1       1.819   7.774  20.085  0.00  0.00    +0.000 A 
ENDROOT
BRANCH   6  10
ATOM     10  C   UNL     1      -1.145  11.539  21.317  0.00  0.00    +0.000 A 
ATOM     11  C   UNL     1      -2.002  12.379  20.586  0.00  0.00    +0.000 A 
ATOM     12  C   UNL     1      -2.806  13.323  21.233  0.00  0.00    +0.000 A 
ATOM     13  C   UNL     1      -2.759  13.433  22.620  0.00  0.00    +0.000 A 
ATOM     14 CL   UNL     1      -3.733  14.604  23.419  0.00  0.00    +0.000 Cl
ATOM     15  C   UNL     1      -1.926  12.603  23.363  0.00  0.00    +0.000 A 
ATOM     16  C   UNL     1      -1.122  11.659  22.715  0.00  0.00    +0.000 A 
ENDBRANCH   6  10
BRANCH   1  21
ATOM     17  C   UNL     1       5.371   5.100  18.267  0.00  0.00    +0.000 A 
ATOM     18  C   UNL     1       4.938   3.961  18.966  0.00  0.00    +0.000 A 
ATOM     19  C   UNL     1       3.710   3.952  19.633  0.00  0.00    +0.000 A 
ATOM     20  C   UNL     1       2.900   5.086  19.619  0.00  0.00    +0.000 A 
ATOM     21  C   UNL     1       3.322   6.239  18.951  0.00  0.00    +0.000 A 
ATOM     22  C   UNL     1       4.553   6.242  18.281  0.00  0.00    +0.000 A 
BRANCH  17  23
ATOM     23  C   UNL     1       6.645   5.051  17.450  0.00  0.00    +0.000 C 
BRANCH  23  24
ATOM     24  C   UNL     1       6.482   4.769  15.965  0.00  0.00    +0.000 A 
ATOM     25  C   UNL     1       5.370   4.072  15.461  0.00  0.00    +0.000 A 
ATOM     26  C   UNL     1       5.289   3.736  14.108  0.00  0.00    +0.000 A 
ATOM     27  C   UNL     1       6.309   4.108  13.236  0.00  0.00    +0.000 A 
ATOM     28  C   UNL     1       7.401   4.830  13.711  0.00  0.00    +0.000 A 
ATOM     29  C   UNL     1       7.485   5.163  15.066  0.00  0.00    +0.000 A 
ENDBRANCH  23  24
BRANCH  23  30
ATOM     30  O   UNL     1       7.523   4.099  18.058  0.00  0.00    +0.000 OA
ATOM     31  H   UNL     1       6.990   3.306  18.231  0.00  0.00    +0.000 HD
ENDBRANCH  23  30
ENDBRANCH  17  23
ENDBRANCH   1  21
TORSDOF 5
ENDMDL
MODEL 5
REMARK VINA RESULT:      -9.0      1.884      2.444
REMARK  Name = 
REMARK  5 active torsions:
REMARK  status: ('A' for Active; 'I' for Inactive)
REMARK    1  A    between atoms: O_1  and  C_2
REMARK    2  A    between atoms: C_2  and  C_3
REMARK    3  A    between atoms: C_2  and  C_9
REMARK    4  A    between atoms: C_13  and  C_14
REMARK    5  A    between atoms: C_19  and  C_20
REMARK                            x       y       z     vdW  Elec       q    Type
REMARK                         _______ _______ _______ _____ _____    ______ ____
ROOT
ATOM      1  C   UNL     1       2.542   7.390  18.949  0.00  0.00    +0.000 A 
ATOM      2  C   UNL     1       2.372   8.251  17.776  0.00  0.00    +0.000 A 
ATOM      3  C   UNL     1       1.588   9.346  17.802  0.00  0.00    +0.000 A 
ATOM      4  C   UNL     1       0.905   9.694  18.999  0.00  0.00    +0.000 A 
ATOM      5  N   UNL     1       0.107  10.702  19.286  0.00  0.00    +0.000 NA
ATOM      6  C   UNL     1      -0.233  10.538  20.613  0.00  0.00    +0.000 A 
ATOM      7  C   UNL     1       0.354   9.400  21.126  0.00  0.00    +0.000 A 
ATOM      8  N   UNL     1       1.088   8.864  20.097  0.00  0.00    +0.000 N 
ATOM      9  C   UNL     1       1.891   7.725  20.083  0.00  0.00    +0.000 A 
ENDROOT
BRANCH   6  10
ATOM     10  C   UNL     1      -1.077  11.482  21.330  0.00  0.00    +0.000 A 
ATOM     11  C   UNL     1      -1.338  11.271  22.694  0.00  0.00    +0.000 A 
ATOM     12  C   UNL     1      -2.175  12.136  23.407  0.00  0.00    +0.000 A 
ATOM     13  C   UNL     1      -2.756  13.222  22.759  0.00  0.00    +0.000 A 
ATOM     14 CL   UNL     1      -3.800  14.279  23.627  0.00  0.00    +0.000 Cl
ATOM     15  C   UNL     1      -2.501  13.454  21.412  0.00  0.00    +0.000 A 
ATOM     16  C   UNL     1      -1.665  12.588  20.699  0.00  0.00    +0.000 A 
ENDBRANCH   6  10
BRANCH   1  21
ATOM     17  C   UNL     1       5.455   5.074  18.279  0.00  0.00    +0.000 A 
ATOM     18  C   UNL     1       5.015   3.921  18.949  0.00  0.00    +0.000 A 
ATOM     19  C   UNL     1       3.773   3.893  19.589  0.00  0.00    +0.000 A 
ATOM     20  C   UNL     1       2.956   5.022  19.577  0.00  0.00    +0.000 A 
ATOM     21  C   UNL     1       3.385   6.189  18.938  0.00  0.00    +0.000 A 
ATOM     22  C   UNL     1       4.629   6.211  18.295  0.00  0.00    +0.000 A 
BRANCH  17  23
ATOM     23  C   UNL     1       6.746   5.048  17.488  0.00  0.00    +0.000 C 
BRANCH  23  24
ATOM     24  C   UNL     1       6.629   4.675  16.019  0.00  0.00    +0.000 A 
ATOM     25  C   UNL     1       7.540   5.149  15.059  0.00  0.00    +0.000 A 
ATOM     26  C   UNL     1       7.356   4.877  13.702  0.00  0.00    +0.000 A 
ATOM     27  C   UNL     1       6.270   4.111  13.286  0.00  0.00    +0.000 A 
ATOM     28  C   UNL     1       5.378   3.603  14.227  0.00  0.00    +0.000 A 
ATOM     29  C   UNL     1       5.558   3.879  15.584  0.00  0.00    +0.000 A 
ENDBRANCH  23  24
BRANCH  23  30
ATOM     30  O   UNL     1       7.660   4.178  18.164  0.00  0.00    +0.000 OA
ATOM     31  H   UNL     1       7.916   3.497  17.522  0.00  0.00    +0.000 HD
ENDBRANCH  23  30
ENDBRANCH  17  23
ENDBRANCH   1  21
TORSDOF 5
ENDMDL
MODEL 6
REMARK VINA RESULT:      -8.9      1.112      1.414
REMARK  Name = 
REMARK  5 active torsions:
REMARK  status: ('A' for Active; 'I' for Inactive)
REMARK    1  A    between atoms: O_1  and  C_2
REMARK    2  A    between atoms: C_2  and  C_3
REMARK    3  A    between atoms: C_2  and  C_9
REMARK    4  A    between atoms: C_13  and  C_14
REMARK    5  A    between atoms: C_19  and  C_20
REMARK                            x       y       z     vdW  Elec       q    Type
REMARK                         _______ _______ _______ _____ _____    ______ ____
ROOT
ATOM      1  C   UNL     1       1.683   7.320  20.028  0.00  0.00    +0.000 A 
ATOM      2  C   UNL     1       1.900   8.149  18.840  0.00  0.00    +0.000 A 
ATOM      3  C   UNL     1       1.544   9.448  18.801  0.00  0.00    +0.000 A 
ATOM      4  C   UNL     1       0.949  10.049  19.944  0.00  0.00    +0.000 A 
ATOM      5  N   UNL     1       0.534  11.279  20.165  0.00  0.00    +0.000 NA
ATOM      6  C   UNL     1       0.074  11.285  21.466  0.00  0.00    +0.000 A 
ATOM      7  C   UNL     1       0.195  10.031  22.028  0.00  0.00    +0.000 A 
ATOM      8  N   UNL     1       0.761   9.243  21.059  0.00  0.00    +0.000 N 
ATOM      9  C   UNL     1       1.118   7.896  21.111  0.00  0.00    +0.000 A 
ENDROOT
BRANCH   6  10
ATOM     10  C   UNL     1      -0.434  12.485  22.114  0.00  0.00    +0.000 A 
ATOM     11  C   UNL     1      -1.553  12.389  22.958  0.00  0.00    +0.000 A 
ATOM     12  C   UNL     1      -2.091  13.527  23.569  0.00  0.00    +0.000 A 
ATOM     13  C   UNL     1      -1.512  14.771  23.339  0.00  0.00    +0.000 A 
ATOM     14 CL   UNL     1      -2.181  16.176  24.073  0.00  0.00    +0.000 Cl
ATOM     15  C   UNL     1      -0.398  14.886  22.515  0.00  0.00    +0.000 A 
ATOM     16  C   UNL     1       0.141  13.748  21.904  0.00  0.00    +0.000 A 
ENDBRANCH   6  10
BRANCH   1  21
ATOM     17  C   UNL     1       3.741   4.154  19.827  0.00  0.00    +0.000 A 
ATOM     18  C   UNL     1       2.785   3.210  20.237  0.00  0.00    +0.000 A 
ATOM     19  C   UNL     1       1.480   3.600  20.549  0.00  0.00    +0.000 A 
ATOM     20  C   UNL     1       1.114   4.942  20.467  0.00  0.00    +0.000 A 
ATOM     21  C   UNL     1       2.055   5.902  20.087  0.00  0.00    +0.000 A 
ATOM     22  C   UNL     1       3.362   5.506  19.771  0.00  0.00    +0.000 A 
BRANCH  17  23
ATOM     23  C   UNL     1       5.112   3.700  19.375  0.00  0.00    +0.000 C 
BRANCH  23  24
ATOM     24  C   UNL     1       5.539   4.132  17.981  0.00  0.00    +0.000 A 
ATOM     25  C   UNL     1       6.749   4.811  17.754  0.00  0.00    +0.000 A 
ATOM     26  C   UNL     1       7.074   5.286  16.482  0.00  0.00    +0.000 A 
ATOM     27  C   UNL     1       6.206   5.073  15.415  0.00  0.00    +0.000 A 
ATOM     28  C   UNL     1       5.020   4.370  15.614  0.00  0.00    +0.000 A 
ATOM     29  C   UNL     1       4.691   3.898  16.887  0.00  0.00    +0.000 A 
ENDBRANCH  23  24
BRANCH  23  30
ATOM     30  O   UNL     1       5.172   2.276  19.509  0.00  0.00    +0.000 OA
ATOM     31  H   UNL     1       6.053   2.009  19.203  0.00  0.00    +0.000 HD
ENDBRANCH  23  30
ENDBRANCH  17  23
ENDBRANCH   1  21
TORSDOF 5
ENDMDL
MODEL 7
REMARK VINA RESULT:      -8.9      1.707      3.049
REMARK  Name = 
REMARK  5 active torsions:
REMARK  status: ('A' for Active; 'I' for Inactive)
REMARK    1  A    between atoms: O_1  and  C_2
REMARK    2  A    between atoms: C_2  and  C_3
REMARK    3  A    between atoms: C_2  and  C_9
REMARK    4  A    between atoms: C_13  and  C_14
REMARK    5  A    between atoms: C_19  and  C_20
REMARK                            x       y       z     vdW  Elec       q    Type
REMARK                         _______ _______ _______ _____ _____    ______ ____
ROOT
ATOM      1  C   UNL     1       0.796   9.219  20.824  0.00  0.00    +0.000 A 
ATOM      2  C   UNL     1       0.835   8.844  22.239  0.00  0.00    +0.000 A 
ATOM      3  C   UNL     1       0.113   9.495  23.171  0.00  0.00    +0.000 A 
ATOM      4  C   UNL     1      -0.726  10.575  22.783  0.00  0.00    +0.000 A 
ATOM      5  N   UNL     1      -1.530  11.350  23.481  0.00  0.00    +0.000 NA
ATOM      6  C   UNL     1      -2.109  12.204  22.565  0.00  0.00    +0.000 A 
ATOM      7  C   UNL     1      -1.628  11.951  21.297  0.00  0.00    +0.000 A 
ATOM      8  N   UNL     1      -0.750  10.906  21.434  0.00  0.00    +0.000 N 
ATOM      9  C   UNL     1      -0.003  10.245  20.460  0.00  0.00    +0.000 A 
ENDROOT
BRANCH   6  10
ATOM     10  C   UNL     1      -3.106  13.197  22.938  0.00  0.00    +0.000 A 
ATOM     11  C   UNL     1      -4.319  13.251  22.232  0.00  0.00    +0.000 A 
ATOM     12  C   UNL     1      -5.284  14.216  22.537  0.00  0.00    +0.000 A 
ATOM     13  C   UNL     1      -5.043  15.135  23.554  0.00  0.00    +0.000 A 
ATOM     14 CL   UNL     1      -6.220  16.335  23.922  0.00  0.00    +0.000 Cl
ATOM     15  C   UNL     1      -3.853  15.091  24.272  0.00  0.00    +0.000 A 
ATOM     16  C   UNL     1      -2.887  14.125  23.967  0.00  0.00    +0.000 A 
ENDBRANCH   6  10
BRANCH   1  21
ATOM     17  C   UNL     1       2.907   6.598  19.100  0.00  0.00    +0.000 A 
ATOM     18  C   UNL     1       3.044   7.185  17.831  0.00  0.00    +0.000 A 
ATOM     19  C   UNL     1       2.476   8.430  17.551  0.00  0.00    +0.000 A 
ATOM     20  C   UNL     1       1.753   9.104  18.534  0.00  0.00    +0.000 A 
ATOM     21  C   UNL     1       1.582   8.528  19.795  0.00  0.00    +0.000 A 
ATOM     22  C   UNL     1       2.156   7.280  20.072  0.00  0.00    +0.000 A 
BRANCH  17  23
ATOM     23  C   UNL     1       3.630   5.308  19.423  0.00  0.00    +0.000 C 
BRANCH  23  24
ATOM     24  C   UNL     1       4.882   5.016  18.611  0.00  0.00    +0.000 A 
ATOM     25  C   UNL     1       6.157   5.417  19.045  0.00  0.00    +0.000 A 
ATOM     26  C   UNL     1       7.280   5.228  18.237  0.00  0.00    +0.000 A 
ATOM     27  C   UNL     1       7.148   4.618  16.993  0.00  0.00    +0.000 A 
ATOM     28  C   UNL     1       5.898   4.181  16.562  0.00  0.00    +0.000 A 
ATOM     29  C   UNL     1       4.773   4.374  17.367  0.00  0.00    +0.000 A 
ENDBRANCH  23  24
BRANCH  23  30
ATOM     30  O   UNL     1       2.689   4.235  19.315  0.00  0.00    +0.000 OA
ATOM     31  H   UNL     1       2.020   4.387  20.001  0.00  0.00    +0.000 HD
ENDBRANCH  23  30
ENDBRANCH  17  23
ENDBRANCH   1  21
TORSDOF 5
ENDMDL
MODEL 8
REMARK VINA RESULT:      -8.9      1.483      2.029
REMARK  Name = 
REMARK  5 active torsions:
REMARK  status: ('A' for Active; 'I' for Inactive)
REMARK    1  A    between atoms: O_1  and  C_2
REMARK    2  A    between atoms: C_2  and  C_3
REMARK    3  A    between atoms: C_2  and  C_9
REMARK    4  A    between atoms: C_13  and  C_14
REMARK    5  A    between atoms: C_19  and  C_20
REMARK                            x       y       z     vdW  Elec       q    Type
REMARK                         _______ _______ _______ _____ _____    ______ ____
ROOT
ATOM      1  C   UNL     1       1.880   7.666  19.592  0.00  0.00    +0.000 A 
ATOM      2  C   UNL     1       2.097   8.316  18.298  0.00  0.00    +0.000 A 
ATOM      3  C   UNL     1       1.748   9.597  18.074  0.00  0.00    +0.000 A 
ATOM      4  C   UNL     1       1.160  10.359  19.121  0.00  0.00    +0.000 A 
ATOM      5  N   UNL     1       0.752  11.610  19.166  0.00  0.00    +0.000 NA
ATOM      6  C   UNL     1       0.296  11.804  20.454  0.00  0.00    +0.000 A 
ATOM      7  C   UNL     1       0.413  10.643  21.189  0.00  0.00    +0.000 A 
ATOM      8  N   UNL     1       0.972   9.721  20.340  0.00  0.00    +0.000 N 
ATOM      9  C   UNL     1       1.322   8.393  20.583  0.00  0.00    +0.000 A 
ENDROOT
BRANCH   6  10
ATOM     10  C   UNL     1      -0.203  13.088  20.925  0.00  0.00    +0.000 A 
ATOM     11  C   UNL     1      -0.414  14.124  20.001  0.00  0.00    +0.000 A 
ATOM     12  C   UNL     1      -0.857  15.382  20.422  0.00  0.00    +0.000 A 
ATOM     13  C   UNL     1      -1.095  15.612  21.773  0.00  0.00    +0.000 A 
ATOM     14 CL   UNL     1      -1.624  17.163  22.299  0.00  0.00    +0.000 Cl
ATOM     15  C   UNL     1      -0.903  14.596  22.703  0.00  0.00    +0.000 A 
ATOM     16  C   UNL     1      -0.459  13.337  22.282  0.00  0.00    +0.000 A 
ENDBRANCH   6  10
BRANCH   1  21
ATOM     17  C   UNL     1       3.881   4.460  19.723  0.00  0.00    +0.000 A 
ATOM     18  C   UNL     1       2.965   3.622  20.380  0.00  0.00    +0.000 A 
ATOM     19  C   UNL     1       1.702   4.091  20.752  0.00  0.00    +0.000 A 
ATOM     20  C   UNL     1       1.340   5.409  20.482  0.00  0.00    +0.000 A 
ATOM     21  C   UNL     1       2.245   6.268  19.852  0.00  0.00    +0.000 A 
ATOM     22  C   UNL     1       3.509   5.792  19.478  0.00  0.00    +0.000 A 
BRANCH  17  23
ATOM     23  C   UNL     1       5.195   3.902  19.219  0.00  0.00    +0.000 C 
BRANCH  23  24
ATOM     24  C   UNL     1       5.600   4.302  17.809  0.00  0.00    +0.000 A 
ATOM     25  C   UNL     1       6.709   5.129  17.563  0.00  0.00    +0.000 A 
ATOM     26  C   UNL     1       7.004   5.566  16.270  0.00  0.00    +0.000 A 
ATOM     27  C   UNL     1       6.206   5.166  15.202  0.00  0.00    +0.000 A 
ATOM     28  C   UNL     1       5.125   4.317  15.421  0.00  0.00    +0.000 A 
ATOM     29  C   UNL     1       4.826   3.883  16.716  0.00  0.00    +0.000 A 
ENDBRANCH  23  24
BRANCH  23  30
ATOM     30  O   UNL     1       5.150   2.478  19.353  0.00  0.00    +0.000 OA
ATOM     31  H   UNL     1       4.620   2.149  18.609  0.00  0.00    +0.000 HD
ENDBRANCH  23  30
ENDBRANCH  17  23
ENDBRANCH   1  21
TORSDOF 5
ENDMDL
MODEL 9
REMARK VINA RESULT:      -8.8      2.942      3.927
REMARK  Name = 
REMARK  5 active torsions:
REMARK  status: ('A' for Active; 'I' for Inactive)
REMARK    1  A    between atoms: O_1  and  C_2
REMARK    2  A    between atoms: C_2  and  C_3
REMARK    3  A    between atoms: C_2  and  C_9
REMARK    4  A    between atoms: C_13  and  C_14
REMARK    5  A    between atoms: C_19  and  C_20
REMARK                            x       y       z     vdW  Elec       q    Type
REMARK                         _______ _______ _______ _____ _____    ______ ____
ROOT
ATOM      1  C   UNL     1       2.584   6.837  18.699  0.00  0.00    +0.000 A 
ATOM      2  C   UNL     1       2.053   6.714  20.058  0.00  0.00    +0.000 A 
ATOM      3  C   UNL     1       1.456   7.744  20.688  0.00  0.00    +0.000 A 
ATOM      4  C   UNL     1       1.321   8.993  20.021  0.00  0.00    +0.000 A 
ATOM      5  N   UNL     1       0.775  10.129  20.401  0.00  0.00    +0.000 NA
ATOM      6  C   UNL     1       0.912  10.983  19.325  0.00  0.00    +0.000 A 
ATOM      7  C   UNL     1       1.572  10.355  18.290  0.00  0.00    +0.000 A 
ATOM      8  N   UNL     1       1.827   9.080  18.731  0.00  0.00    +0.000 N 
ATOM      9  C   UNL     1       2.453   8.024  18.070  0.00  0.00    +0.000 A 
ENDROOT
BRANCH   6  10
ATOM     10  C   UNL     1       0.389  12.341  19.329  0.00  0.00    +0.000 A 
ATOM     11  C   UNL     1       1.182  13.384  18.821  0.00  0.00    +0.000 A 
ATOM     12  C   UNL     1       0.728  14.707  18.842  0.00  0.00    +0.000 A 
ATOM     13  C   UNL     1      -0.526  14.996  19.371  0.00  0.00    +0.000 A 
ATOM     14 CL   UNL     1      -1.082  16.624  19.415  0.00  0.00    +0.000 Cl
ATOM     15  C   UNL     1      -1.331  13.977  19.869  0.00  0.00    +0.000 A 
ATOM     16  C   UNL     1      -0.876  12.653  19.848  0.00  0.00    +0.000 A 
ENDBRANCH   6  10
BRANCH   1  21
ATOM     17  C   UNL     1       5.197   4.840  16.833  0.00  0.00    +0.000 A 
ATOM     18  C   UNL     1       4.527   3.612  16.705  0.00  0.00    +0.000 A 
ATOM     19  C   UNL     1       3.231   3.447  17.200  0.00  0.00    +0.000 A 
ATOM     20  C   UNL     1       2.588   4.505  17.839  0.00  0.00    +0.000 A 
ATOM     21  C   UNL     1       3.245   5.728  18.000  0.00  0.00    +0.000 A 
ATOM     22  C   UNL     1       4.543   5.890  17.499  0.00  0.00    +0.000 A 
BRANCH  17  23
ATOM     23  C   UNL     1       6.551   5.038  16.185  0.00  0.00    +0.000 C 
BRANCH  23  24
ATOM     24  C   UNL     1       6.631   4.756  14.693  0.00  0.00    +0.000 A 
ATOM     25  C   UNL     1       5.782   3.827  14.068  0.00  0.00    +0.000 A 
ATOM     26  C   UNL     1       5.940   3.510  12.717  0.00  0.00    +0.000 A 
ATOM     27  C   UNL     1       6.934   4.131  11.967  0.00  0.00    +0.000 A 
ATOM     28  C   UNL     1       7.761   5.081  12.561  0.00  0.00    +0.000 A 
ATOM     29  C   UNL     1       7.608   5.396  13.914  0.00  0.00    +0.000 A 
ENDBRANCH  23  24
BRANCH  23  30
ATOM     30  O   UNL     1       7.504   4.251  16.905  0.00  0.00    +0.000 OA
ATOM     31  H   UNL     1       8.321   4.775  16.943  0.00  0.00    +0.000 HD
ENDBRANCH  23  30
ENDBRANCH  17  23
ENDBRANCH   1  21
TORSDOF 5
ENDMDL
