MODEL 1
REMARK VINA RESULT:      -7.7      0.000      0.000
REMARK  Name = 
REMARK  8 active torsions:
REMARK  status: ('A' for Active; 'I' for Inactive)
REMARK    1  A    between atoms: O_1  and  C_2
REMARK    2  A    between atoms: C_2  and  C_3
REMARK    3  A    between atoms: C_3  and  C_4
REMARK    4  A    between atoms: C_4  and  C_5
REMARK    5  A    between atoms: C_5  and  O_6
REMARK    6  A    between atoms: O_6  and  C_7
REMARK    7  A    between atoms: N_15  and  C_16
REMARK    8  A    between atoms: C_16  and  C_17
REMARK                            x       y       z     vdW  Elec       q    Type
REMARK                         _______ _______ _______ _____ _____    ______ ____
ROOT
ATOM      1  C   UNL     1       3.545   3.544  18.762  0.00  0.00    +0.000 C 
ATOM      2  C   UNL     1       4.110   4.961  19.035  0.00  0.00    +0.000 C 
ATOM      3  C   UNL     1       3.361   5.695  20.150  0.00  0.00    +0.000 C 
ATOM      4  N   UNL     1       1.914   5.767  19.883  0.00  0.00    +0.000 NA
ATOM      5  C   UNL     1       1.334   4.431  19.735  0.00  0.00    +0.000 C 
ATOM      6  C   UNL     1       2.012   3.660  18.599  0.00  0.00    +0.000 C 
ENDROOT
BRANCH   1   7
ATOM      7  C   UNL     1       3.880   2.603  19.951  0.00  0.00    +0.000 C 
BRANCH   7   8
ATOM      8  O   UNL     1       5.166   2.018  19.783  0.00  0.00    +0.000 OA
ATOM      9  H   UNL     1       5.265   1.326  20.460  0.00  0.00    +0.000 HD
ENDBRANCH   7   8
ENDBRANCH   1   7
BRANCH   1  10
ATOM     10  C   UNL     1       4.184   3.008  17.439  0.00  0.00    +0.000 C 
BRANCH  10  11
ATOM     11  C   UNL     1       4.696   4.118  16.516  0.00  0.00    +0.000 C 
BRANCH  11  12
ATOM     12  O   UNL     1       6.120   4.084  16.408  0.00  0.00    +0.000 OA
BRANCH  12  13
ATOM     13  C   UNL     1       6.748   5.113  17.066  0.00  0.00    +0.000 A 
ATOM     14  C   UNL     1       7.478   4.750  18.196  0.00  0.00    +0.000 A 
ATOM     15  C   UNL     1       8.138   5.728  18.953  0.00  0.00    +0.000 A 
ATOM     16  C   UNL     1       8.087   7.066  18.567  0.00  0.00    +0.000 A 
ATOM     17  C   UNL     1       7.378   7.430  17.424  0.00  0.00    +0.000 A 
ATOM     18  C   UNL     1       6.717   6.456  16.674  0.00  0.00    +0.000 A 
ENDBRANCH  12  13
ENDBRANCH  11  12
ENDBRANCH  10  11
ENDBRANCH   1  10
BRANCH   4  19
ATOM     19  C   UNL     1       1.259   6.504  20.973  0.00  0.00    +0.000 C 
BRANCH  19  20
ATOM     20  C   UNL     1       1.278   8.013  20.840  0.00  0.00    +0.000 A 
ATOM     21  C   UNL     1       1.420   8.609  19.576  0.00  0.00    +0.000 A 
ATOM     22  C   UNL     1       1.126   9.963  19.392  0.00  0.00    +0.000 A 
ATOM     23  C   UNL     1       0.649  10.713  20.462  0.00  0.00    +0.000 A 
ATOM     24  C   UNL     1       0.602  10.145  21.738  0.00  0.00    +0.000 A 
ATOM     25  C   UNL     1       0.960   8.817  21.943  0.00  0.00    +0.000 A 
ATOM     26  O   UNL     1       0.080  10.824  22.810  0.00  0.00    +0.000 OA
ATOM     27  C   UNL     1      -1.030  11.583  22.323  0.00  0.00    +0.000 C 
ATOM     28  C   UNL     1      -0.564  12.564  21.256  0.00  0.00    +0.000 C 
ATOM     29  O   UNL     1       0.155  11.956  20.172  0.00  0.00    +0.000 OA
ENDBRANCH  19  20
ENDBRANCH   4  19
TORSDOF 8
ENDMDL
MODEL 2
REMARK VINA RESULT:      -7.6      0.492      1.031
REMARK  Name = 
REMARK  8 active torsions:
REMARK  status: ('A' for Active; 'I' for Inactive)
REMARK    1  A    between atoms: O_1  and  C_2
REMARK    2  A    between atoms: C_2  and  C_3
REMARK    3  A    between atoms: C_3  and  C_4
REMARK    4  A    between atoms: C_4  and  C_5
REMARK    5  A    between atoms: C_5  and  O_6
REMARK    6  A    between atoms: O_6  and  C_7
REMARK    7  A    between atoms: N_15  and  C_16
REMARK    8  A    between atoms: C_16  and  C_17
REMARK                            x       y       z     vdW  Elec       q    Type
REMARK                         _______ _______ _______ _____ _____    ______ ____
ROOT
ATOM      1  C   UNL     1       3.280   4.013  18.587  0.00  0.00    +0.000 C 
ATOM      2  C   UNL     1       3.752   5.481  18.744  0.00  0.00    +0.000 C 
ATOM      3  C   UNL     1       3.168   6.164  19.984  0.00  0.00    +0.000 C 
ATOM      4  N   UNL     1       1.696   6.098  20.004  0.00  0.00    +0.000 NA
ATOM      5  C   UNL     1       1.226   4.711  19.973  0.00  0.00    +0.000 C 
ATOM      6  C   UNL     1       1.741   3.984  18.727  0.00  0.00    +0.000 C 
ENDROOT
BRANCH   1   7
ATOM      7  C   UNL     1       3.926   3.129  19.689  0.00  0.00    +0.000 C 
BRANCH   7   8
ATOM      8  O   UNL     1       5.125   2.529  19.213  0.00  0.00    +0.000 OA
ATOM      9  H   UNL     1       5.129   2.609  18.243  0.00  0.00    +0.000 HD
ENDBRANCH   7   8
ENDBRANCH   1   7
BRANCH   1  10
ATOM     10  C   UNL     1       3.697   3.514  17.166  0.00  0.00    +0.000 C 
BRANCH  10  11
ATOM     11  C   UNL     1       4.635   4.477  16.432  0.00  0.00    +0.000 C 
BRANCH  11  12
ATOM     12  O   UNL     1       6.004   4.133  16.652  0.00  0.00    +0.000 OA
BRANCH  12  13
ATOM     13  C   UNL     1       6.716   5.104  17.315  0.00  0.00    +0.000 A 
ATOM     14  C   UNL     1       6.706   6.366  16.724  0.00  0.00    +0.000 A 
ATOM     15  C   UNL     1       7.419   7.423  17.309  0.00  0.00    +0.000 A 
ATOM     16  C   UNL     1       8.124   7.221  18.494  0.00  0.00    +0.000 A 
ATOM     17  C   UNL     1       8.116   5.967  19.100  0.00  0.00    +0.000 A 
ATOM     18  C   UNL     1       7.410   4.915  18.515  0.00  0.00    +0.000 A 
ENDBRANCH  12  13
ENDBRANCH  11  12
ENDBRANCH  10  11
ENDBRANCH   1  10
BRANCH   4  19
ATOM     19  C   UNL     1       1.200   6.792  21.201  0.00  0.00    +0.000 C 
BRANCH  19  20
ATOM     20  C   UNL     1       1.077   8.296  21.076  0.00  0.00    +0.000 A 
ATOM     21  C   UNL     1       1.116   8.905  19.810  0.00  0.00    +0.000 A 
ATOM     22  C   UNL     1       0.695  10.227  19.644  0.00  0.00    +0.000 A 
ATOM     23  C   UNL     1       0.193  10.929  20.736  0.00  0.00    +0.000 A 
ATOM     24  C   UNL     1       0.245  10.357  22.010  0.00  0.00    +0.000 A 
ATOM     25  C   UNL     1       0.729   9.066  22.193  0.00  0.00    +0.000 A 
ATOM     26  O   UNL     1      -0.295  10.984  23.104  0.00  0.00    +0.000 OA
ATOM     27  C   UNL     1      -1.486  11.640  22.663  0.00  0.00    +0.000 C 
ATOM     28  C   UNL     1      -1.152  12.661  21.584  0.00  0.00    +0.000 C 
ATOM     29  O   UNL     1      -0.423  12.123  20.471  0.00  0.00    +0.000 OA
ENDBRANCH  19  20
ENDBRANCH   4  19
TORSDOF 8
ENDMDL
MODEL 3
REMARK VINA RESULT:      -7.5      0.897      1.372
REMARK  Name = 
REMARK  8 active torsions:
REMARK  status: ('A' for Active; 'I' for Inactive)
REMARK    1  A    between atoms: O_1  and  C_2
REMARK    2  A    between atoms: C_2  and  C_3
REMARK    3  A    between atoms: C_3  and  C_4
REMARK    4  A    between atoms: C_4  and  C_5
REMARK    5  A    between atoms: C_5  and  O_6
REMARK    6  A    between atoms: O_6  and  C_7
REMARK    7  A    between atoms: N_15  and  C_16
REMARK    8  A    between atoms: C_16  and  C_17
REMARK                            x       y       z     vdW  Elec       q    Type
REMARK                         _______ _______ _______ _____ _____    ______ ____
ROOT
ATOM      1  C   UNL     1       3.330   3.653  18.106  0.00  0.00    +0.000 C 
ATOM      2  C   UNL     1       3.728   3.771  19.600  0.00  0.00    +0.000 C 
ATOM      3  C   UNL     1       2.688   4.524  20.434  0.00  0.00    +0.000 C 
ATOM      4  N   UNL     1       2.400   5.858  19.877  0.00  0.00    +0.000 NA
ATOM      5  C   UNL     1       1.911   5.764  18.500  0.00  0.00    +0.000 C 
ATOM      6  C   UNL     1       2.931   5.058  17.601  0.00  0.00    +0.000 C 
ENDROOT
BRANCH   1   7
ATOM      7  C   UNL     1       2.132   2.677  17.954  0.00  0.00    +0.000 C 
BRANCH   7   8
ATOM      8  O   UNL     1       2.404   1.441  18.603  0.00  0.00    +0.000 OA
ATOM      9  H   UNL     1       3.362   1.400  18.767  0.00  0.00    +0.000 HD
ENDBRANCH   7   8
ENDBRANCH   1   7
BRANCH   1  10
ATOM     10  C   UNL     1       4.570   3.131  17.309  0.00  0.00    +0.000 C 
BRANCH  10  11
ATOM     11  C   UNL     1       5.060   4.109  16.236  0.00  0.00    +0.000 C 
BRANCH  11  12
ATOM     12  O   UNL     1       6.487   4.171  16.208  0.00  0.00    +0.000 OA
BRANCH  12  13
ATOM     13  C   UNL     1       7.015   5.095  17.077  0.00  0.00    +0.000 A 
ATOM     14  C   UNL     1       6.994   6.417  16.636  0.00  0.00    +0.000 A 
ATOM     15  C   UNL     1       7.529   7.436  17.439  0.00  0.00    +0.000 A 
ATOM     16  C   UNL     1       8.064   7.134  18.690  0.00  0.00    +0.000 A 
ATOM     17  C   UNL     1       8.065   5.817  19.143  0.00  0.00    +0.000 A 
ATOM     18  C   UNL     1       7.537   4.803  18.342  0.00  0.00    +0.000 A 
ENDBRANCH  12  13
ENDBRANCH  11  12
ENDBRANCH  10  11
ENDBRANCH   1  10
BRANCH   4  19
ATOM     19  C   UNL     1       1.419   6.536  20.736  0.00  0.00    +0.000 C 
BRANCH  19  20
ATOM     20  C   UNL     1       1.431   8.049  20.668  0.00  0.00    +0.000 A 
ATOM     21  C   UNL     1       1.549   8.700  19.428  0.00  0.00    +0.000 A 
ATOM     22  C   UNL     1       1.249  10.059  19.308  0.00  0.00    +0.000 A 
ATOM     23  C   UNL     1       0.790  10.761  20.418  0.00  0.00    +0.000 A 
ATOM     24  C   UNL     1       0.767  10.139  21.669  0.00  0.00    +0.000 A 
ATOM     25  C   UNL     1       1.131   8.804  21.809  0.00  0.00    +0.000 A 
ATOM     26  O   UNL     1       0.263  10.769  22.778  0.00  0.00    +0.000 OA
ATOM     27  C   UNL     1      -0.857  11.545  22.345  0.00  0.00    +0.000 C 
ATOM     28  C   UNL     1      -0.413  12.572  21.313  0.00  0.00    +0.000 C 
ATOM     29  O   UNL     1       0.287  12.014  20.191  0.00  0.00    +0.000 OA
ENDBRANCH  19  20
ENDBRANCH   4  19
TORSDOF 8
ENDMDL
MODEL 4
REMARK VINA RESULT:      -7.5      2.295      4.508
REMARK  Name = 
REMARK  8 active torsions:
REMARK  status: ('A' for Active; 'I' for Inactive)
REMARK    1  A    between atoms: O_1  and  C_2
REMARK    2  A    between atoms: C_2  and  C_3
REMARK    3  A    between atoms: C_3  and  C_4
REMARK    4  A    between atoms: C_4  and  C_5
REMARK    5  A    between atoms: C_5  and  O_6
REMARK    6  A    between atoms: O_6  and  C_7
REMARK    7  A    between atoms: N_15  and  C_16
REMARK    8  A    between atoms: C_16  and  C_17
REMARK                            x       y       z     vdW  Elec       q    Type
REMARK                         _______ _______ _______ _____ _____    ______ ____
ROOT
ATOM      1  C   UNL     1       4.318   5.008  17.624  0.00  0.00    +0.000 C 
ATOM      2  C   UNL     1       4.729   6.124  16.630  0.00  0.00    +0.000 C 
ATOM      3  C   UNL     1       4.414   7.529  17.151  0.00  0.00    +0.000 C 
ATOM      4  N   UNL     1       2.994   7.673  17.518  0.00  0.00    +0.000 NA
ATOM      5  C   UNL     1       2.609   6.701  18.543  0.00  0.00    +0.000 C 
ATOM      6  C   UNL     1       2.858   5.268  18.063  0.00  0.00    +0.000 C 
ENDROOT
BRANCH   1   7
ATOM      7  C   UNL     1       5.253   5.033  18.864  0.00  0.00    +0.000 C 
BRANCH   7   8
ATOM      8  O   UNL     1       6.415   4.246  18.632  0.00  0.00    +0.000 OA
ATOM      9  H   UNL     1       6.424   3.534  19.295  0.00  0.00    +0.000 HD
ENDBRANCH   7   8
ENDBRANCH   1   7
BRANCH   1  10
ATOM     10  C   UNL     1       4.417   3.634  16.886  0.00  0.00    +0.000 C 
BRANCH  10  11
ATOM     11  C   UNL     1       3.147   2.786  17.002  0.00  0.00    +0.000 C 
BRANCH  11  12
ATOM     12  O   UNL     1       3.273   1.803  18.031  0.00  0.00    +0.000 OA
BRANCH  12  13
ATOM     13  C   UNL     1       2.674   2.164  19.213  0.00  0.00    +0.000 A 
ATOM     14  C   UNL     1       1.299   2.385  19.149  0.00  0.00    +0.000 A 
ATOM     15  C   UNL     1       0.595   2.779  20.296  0.00  0.00    +0.000 A 
ATOM     16  C   UNL     1       1.262   2.931  21.510  0.00  0.00    +0.000 A 
ATOM     17  C   UNL     1       2.631   2.689  21.583  0.00  0.00    +0.000 A 
ATOM     18  C   UNL     1       3.333   2.301  20.440  0.00  0.00    +0.000 A 
ENDBRANCH  12  13
ENDBRANCH  11  12
ENDBRANCH  10  11
ENDBRANCH   1  10
BRANCH   4  19
ATOM     19  C   UNL     1       2.753   9.046  17.982  0.00  0.00    +0.000 C 
BRANCH  19  20
ATOM     20  C   UNL     1       1.342   9.336  18.451  0.00  0.00    +0.000 A 
ATOM     21  C   UNL     1       1.116   9.838  19.743  0.00  0.00    +0.000 A 
ATOM     22  C   UNL     1      -0.117  10.403  20.080  0.00  0.00    +0.000 A 
ATOM     23  C   UNL     1      -1.112  10.504  19.113  0.00  0.00    +0.000 A 
ATOM     24  C   UNL     1      -0.921   9.917  17.860  0.00  0.00    +0.000 A 
ATOM     25  C   UNL     1       0.279   9.292  17.539  0.00  0.00    +0.000 A 
ATOM     26  O   UNL     1      -1.847  10.047  16.855  0.00  0.00    +0.000 OA
ATOM     27  C   UNL     1      -2.386  11.368  16.952  0.00  0.00    +0.000 C 
ATOM     28  C   UNL     1      -3.051  11.562  18.308  0.00  0.00    +0.000 C 
ATOM     29  O   UNL     1      -2.200  11.274  19.427  0.00  0.00    +0.000 OA
ENDBRANCH  19  20
ENDBRANCH   4  19
TORSDOF 8
ENDMDL
MODEL 5
REMARK VINA RESULT:      -7.4      4.078      6.466
REMARK  Name = 
REMARK  8 active torsions:
REMARK  status: ('A' for Active; 'I' for Inactive)
REMARK    1  A    between atoms: O_1  and  C_2
REMARK    2  A    between atoms: C_2  and  C_3
REMARK    3  A    between atoms: C_3  and  C_4
REMARK    4  A    between atoms: C_4  and  C_5
REMARK    5  A    between atoms: C_5  and  O_6
REMARK    6  A    between atoms: O_6  and  C_7
REMARK    7  A    between atoms: N_15  and  C_16
REMARK    8  A    between atoms: C_16  and  C_17
REMARK                            x       y       z     vdW  Elec       q    Type
REMARK                         _______ _______ _______ _____ _____    ______ ____
ROOT
ATOM      1  C   UNL     1       7.202   6.348  18.341  0.00  0.00    +0.000 C 
ATOM      2  C   UNL     1       5.900   7.032  17.851  0.00  0.00    +0.000 C 
ATOM      3  C   UNL     1       4.850   6.031  17.364  0.00  0.00    +0.000 C 
ATOM      4  N   UNL     1       5.383   5.144  16.315  0.00  0.00    +0.000 NA
ATOM      5  C   UNL     1       6.549   4.398  16.793  0.00  0.00    +0.000 C 
ATOM      6  C   UNL     1       7.659   5.348  17.254  0.00  0.00    +0.000 C 
ENDROOT
BRANCH   1   7
ATOM      7  C   UNL     1       6.935   5.594  19.672  0.00  0.00    +0.000 C 
BRANCH   7   8
ATOM      8  O   UNL     1       8.135   5.465  20.426  0.00  0.00    +0.000 OA
ATOM      9  H   UNL     1       8.246   4.523  20.641  0.00  0.00    +0.000 HD
ENDBRANCH   7   8
ENDBRANCH   1   7
BRANCH   1  10
ATOM     10  C   UNL     1       8.291   7.452  18.542  0.00  0.00    +0.000 C 
BRANCH  10  11
ATOM     11  C   UNL     1       8.157   8.625  17.565  0.00  0.00    +0.000 C 
BRANCH  11  12
ATOM     12  O   UNL     1       7.934   9.853  18.260  0.00  0.00    +0.000 OA
BRANCH  12  13
ATOM     13  C   UNL     1       9.091  10.512  18.598  0.00  0.00    +0.000 A 
ATOM     14  C   UNL     1       9.325  10.654  19.965  0.00  0.00    +0.000 A 
ATOM     15  C   UNL     1      10.468  11.331  20.417  0.00  0.00    +0.000 A 
ATOM     16  C   UNL     1      11.385  11.845  19.503  0.00  0.00    +0.000 A 
ATOM     17  C   UNL     1      11.166  11.685  18.137  0.00  0.00    +0.000 A 
ATOM     18  C   UNL     1      10.026  11.015  17.687  0.00  0.00    +0.000 A 
ENDBRANCH  12  13
ENDBRANCH  11  12
ENDBRANCH  10  11
ENDBRANCH   1  10
BRANCH   4  19
ATOM     19  C   UNL     1       4.322   4.229  15.872  0.00  0.00    +0.000 C 
BRANCH  19  20
ATOM     20  C   UNL     1       3.542   3.554  16.981  0.00  0.00    +0.000 A 
ATOM     21  C   UNL     1       3.988   2.334  17.517  0.00  0.00    +0.000 A 
ATOM     22  C   UNL     1       3.477   1.861  18.729  0.00  0.00    +0.000 A 
ATOM     23  C   UNL     1       2.551   2.629  19.428  0.00  0.00    +0.000 A 
ATOM     24  C   UNL     1       2.036   3.791  18.849  0.00  0.00    +0.000 A 
ATOM     25  C   UNL     1       2.489   4.232  17.610  0.00  0.00    +0.000 A 
ATOM     26  O   UNL     1       1.171   4.612  19.526  0.00  0.00    +0.000 OA
ATOM     27  C   UNL     1       1.586   4.619  20.894  0.00  0.00    +0.000 C 
ATOM     28  C   UNL     1       1.528   3.208  21.465  0.00  0.00    +0.000 C 
ATOM     29  O   UNL     1       2.269   2.238  20.710  0.00  0.00    +0.000 OA
ENDBRANCH  19  20
ENDBRANCH   4  19
TORSDOF 8
ENDMDL
MODEL 6
REMARK VINA RESULT:      -7.3      2.427      4.532
REMARK  Name = 
REMARK  8 active torsions:
REMARK  status: ('A' for Active; 'I' for Inactive)
REMARK    1  A    between atoms: O_1  and  C_2
REMARK    2  A    between atoms: C_2  and  C_3
REMARK    3  A    between atoms: C_3  and  C_4
REMARK    4  A    between atoms: C_4  and  C_5
REMARK    5  A    between atoms: C_5  and  O_6
REMARK    6  A    between atoms: O_6  and  C_7
REMARK    7  A    between atoms: N_15  and  C_16
REMARK    8  A    between atoms: C_16  and  C_17
REMARK                            x       y       z     vdW  Elec       q    Type
REMARK                         _______ _______ _______ _____ _____    ______ ____
ROOT
ATOM      1  C   UNL     1       4.481   5.375  17.789  0.00  0.00    +0.000 C 
ATOM      2  C   UNL     1       4.550   6.438  16.663  0.00  0.00    +0.000 C 
ATOM      3  C   UNL     1       4.199   7.846  17.151  0.00  0.00    +0.000 C 
ATOM      4  N   UNL     1       2.880   7.886  17.808  0.00  0.00    +0.000 NA
ATOM      5  C   UNL     1       2.828   6.972  18.950  0.00  0.00    +0.000 C 
ATOM      6  C   UNL     1       3.126   5.533  18.517  0.00  0.00    +0.000 C 
ENDROOT
BRANCH   1   7
ATOM      7  C   UNL     1       5.646   5.591  18.792  0.00  0.00    +0.000 C 
BRANCH   7   8
ATOM      8  O   UNL     1       5.972   4.375  19.455  0.00  0.00    +0.000 OA
ATOM      9  H   UNL     1       5.149   4.016  19.831  0.00  0.00    +0.000 HD
ENDBRANCH   7   8
ENDBRANCH   1   7
BRANCH   1  10
ATOM     10  C   UNL     1       4.573   3.959  17.134  0.00  0.00    +0.000 C 
BRANCH  10  11
ATOM     11  C   UNL     1       3.212   3.279  16.958  0.00  0.00    +0.000 C 
BRANCH  11  12
ATOM     12  O   UNL     1       3.092   2.136  17.808  0.00  0.00    +0.000 OA
BRANCH  12  13
ATOM     13  C   UNL     1       2.462   2.401  19.000  0.00  0.00    +0.000 A 
ATOM     14  C   UNL     1       3.263   2.310  20.137  0.00  0.00    +0.000 A 
ATOM     15  C   UNL     1       2.712   2.539  21.407  0.00  0.00    +0.000 A 
ATOM     16  C   UNL     1       1.367   2.880  21.536  0.00  0.00    +0.000 A 
ATOM     17  C   UNL     1       0.570   2.995  20.400  0.00  0.00    +0.000 A 
ATOM     18  C   UNL     1       1.117   2.762  19.137  0.00  0.00    +0.000 A 
ENDBRANCH  12  13
ENDBRANCH  11  12
ENDBRANCH  10  11
ENDBRANCH   1  10
BRANCH   4  19
ATOM     19  C   UNL     1       2.593   9.265  18.227  0.00  0.00    +0.000 C 
BRANCH  19  20
ATOM     20  C   UNL     1       1.145   9.554  18.562  0.00  0.00    +0.000 A 
ATOM     21  C   UNL     1       0.818  10.272  19.725  0.00  0.00    +0.000 A 
ATOM     22  C   UNL     1      -0.458  10.817  19.889  0.00  0.00    +0.000 A 
ATOM     23  C   UNL     1      -1.397  10.681  18.872  0.00  0.00    +0.000 A 
ATOM     24  C   UNL     1      -1.104   9.885  17.761  0.00  0.00    +0.000 A 
ATOM     25  C   UNL     1       0.141   9.282  17.624  0.00  0.00    +0.000 A 
ATOM     26  O   UNL     1      -1.973   9.774  16.705  0.00  0.00    +0.000 OA
ATOM     27  C   UNL     1      -2.579  11.057  16.526  0.00  0.00    +0.000 C 
ATOM     28  C   UNL     1      -3.332  11.459  17.787  0.00  0.00    +0.000 C 
ATOM     29  O   UNL     1      -2.537  11.432  18.981  0.00  0.00    +0.000 OA
ENDBRANCH  19  20
ENDBRANCH   4  19
TORSDOF 8
ENDMDL
MODEL 7
REMARK VINA RESULT:      -7.2      4.885      7.459
REMARK  Name = 
REMARK  8 active torsions:
REMARK  status: ('A' for Active; 'I' for Inactive)
REMARK    1  A    between atoms: O_1  and  C_2
REMARK    2  A    between atoms: C_2  and  C_3
REMARK    3  A    between atoms: C_3  and  C_4
REMARK    4  A    between atoms: C_4  and  C_5
REMARK    5  A    between atoms: C_5  and  O_6
REMARK    6  A    between atoms: O_6  and  C_7
REMARK    7  A    between atoms: N_15  and  C_16
REMARK    8  A    between atoms: C_16  and  C_17
REMARK                            x       y       z     vdW  Elec       q    Type
REMARK                         _______ _______ _______ _____ _____    ______ ____
ROOT
ATOM      1  C   UNL     1       6.060   5.540  17.820  0.00  0.00    +0.000 C 
ATOM      2  C   UNL     1       5.657   6.899  17.192  0.00  0.00    +0.000 C 
ATOM      3  C   UNL     1       6.861   7.798  16.899  0.00  0.00    +0.000 C 
ATOM      4  N   UNL     1       7.686   8.018  18.100  0.00  0.00    +0.000 NA
ATOM      5  C   UNL     1       8.176   6.750  18.647  0.00  0.00    +0.000 C 
ATOM      6  C   UNL     1       7.013   5.820  19.005  0.00  0.00    +0.000 C 
ENDROOT
BRANCH   1   7
ATOM      7  C   UNL     1       6.780   4.661  16.761  0.00  0.00    +0.000 C 
BRANCH   7   8
ATOM      8  O   UNL     1       8.011   4.165  17.273  0.00  0.00    +0.000 OA
ATOM      9  H   UNL     1       8.730   4.635  16.815  0.00  0.00    +0.000 HD
ENDBRANCH   7   8
ENDBRANCH   1   7
BRANCH   1  10
ATOM     10  C   UNL     1       4.763   4.833  18.333  0.00  0.00    +0.000 C 
BRANCH  10  11
ATOM     11  C   UNL     1       4.282   3.702  17.418  0.00  0.00    +0.000 C 
BRANCH  11  12
ATOM     12  O   UNL     1       4.069   2.497  18.155  0.00  0.00    +0.000 OA
BRANCH  12  13
ATOM     13  C   UNL     1       3.149   2.626  19.166  0.00  0.00    +0.000 A 
ATOM     14  C   UNL     1       1.830   2.824  18.759  0.00  0.00    +0.000 A 
ATOM     15  C   UNL     1       0.815   2.989  19.713  0.00  0.00    +0.000 A 
ATOM     16  C   UNL     1       1.117   2.935  21.072  0.00  0.00    +0.000 A 
ATOM     17  C   UNL     1       2.429   2.715  21.483  0.00  0.00    +0.000 A 
ATOM     18  C   UNL     1       3.439   2.554  20.533  0.00  0.00    +0.000 A 
ENDBRANCH  12  13
ENDBRANCH  11  12
ENDBRANCH  10  11
ENDBRANCH   1  10
BRANCH   4  19
ATOM     19  C   UNL     1       8.805   8.907  17.760  0.00  0.00    +0.000 C 
BRANCH  19  20
ATOM     20  C   UNL     1       8.866  10.204  18.541  0.00  0.00    +0.000 A 
ATOM     21  C   UNL     1       9.401  10.222  19.840  0.00  0.00    +0.000 A 
ATOM     22  C   UNL     1       9.755  11.430  20.446  0.00  0.00    +0.000 A 
ATOM     23  C   UNL     1       9.614  12.619  19.738  0.00  0.00    +0.000 A 
ATOM     24  C   UNL     1       8.992  12.610  18.486  0.00  0.00    +0.000 A 
ATOM     25  C   UNL     1       8.573  11.418  17.906  0.00  0.00    +0.000 A 
ATOM     26  O   UNL     1       8.888  13.747  17.725  0.00  0.00    +0.000 OA
ATOM     27  C   UNL     1      10.094  14.490  17.919  0.00  0.00    +0.000 C 
ATOM     28  C   UNL     1      10.252  14.855  19.389  0.00  0.00    +0.000 C 
ATOM     29  O   UNL     1      10.194  13.734  20.282  0.00  0.00    +0.000 OA
ENDBRANCH  19  20
ENDBRANCH   4  19
TORSDOF 8
ENDMDL
MODEL 8
REMARK VINA RESULT:      -7.2      4.511      7.574
REMARK  Name = 
REMARK  8 active torsions:
REMARK  status: ('A' for Active; 'I' for Inactive)
REMARK    1  A    between atoms: O_1  and  C_2
REMARK    2  A    between atoms: C_2  and  C_3
REMARK    3  A    between atoms: C_3  and  C_4
REMARK    4  A    between atoms: C_4  and  C_5
REMARK    5  A    between atoms: C_5  and  O_6
REMARK    6  A    between atoms: O_6  and  C_7
REMARK    7  A    between atoms: N_15  and  C_16
REMARK    8  A    between atoms: C_16  and  C_17
REMARK                            x       y       z     vdW  Elec       q    Type
REMARK                         _______ _______ _______ _____ _____    ______ ____
ROOT
ATOM      1  C   UNL     1       6.395   5.597  17.834  0.00  0.00    +0.000 C 
ATOM      2  C   UNL     1       5.921   6.872  17.090  0.00  0.00    +0.000 C 
ATOM      3  C   UNL     1       7.062   7.852  16.805  0.00  0.00    +0.000 C 
ATOM      4  N   UNL     1       7.788   8.221  18.033  0.00  0.00    +0.000 NA
ATOM      5  C   UNL     1       8.346   7.039  18.695  0.00  0.00    +0.000 C 
ATOM      6  C   UNL     1       7.244   6.037  19.050  0.00  0.00    +0.000 C 
ENDROOT
BRANCH   1   7
ATOM      7  C   UNL     1       7.251   4.717  16.883  0.00  0.00    +0.000 C 
BRANCH   7   8
ATOM      8  O   UNL     1       8.216   3.975  17.619  0.00  0.00    +0.000 OA
ATOM      9  H   UNL     1       8.912   3.700  16.997  0.00  0.00    +0.000 HD
ENDBRANCH   7   8
ENDBRANCH   1   7
BRANCH   1  10
ATOM     10  C   UNL     1       5.131   4.815  18.320  0.00  0.00    +0.000 C 
BRANCH  10  11
ATOM     11  C   UNL     1       3.816   5.388  17.783  0.00  0.00    +0.000 C 
BRANCH  11  12
ATOM     12  O   UNL     1       2.961   5.806  18.848  0.00  0.00    +0.000 OA
BRANCH  12  13
ATOM     13  C   UNL     1       2.331   4.766  19.488  0.00  0.00    +0.000 A 
ATOM     14  C   UNL     1       2.588   4.656  20.854  0.00  0.00    +0.000 A 
ATOM     15  C   UNL     1       2.011   3.615  21.597  0.00  0.00    +0.000 A 
ATOM     16  C   UNL     1       1.162   2.700  20.979  0.00  0.00    +0.000 A 
ATOM     17  C   UNL     1       0.884   2.821  19.620  0.00  0.00    +0.000 A 
ATOM     18  C   UNL     1       1.462   3.854  18.879  0.00  0.00    +0.000 A 
ENDBRANCH  12  13
ENDBRANCH  11  12
ENDBRANCH  10  11
ENDBRANCH   1  10
BRANCH   4  19
ATOM     19  C   UNL     1       8.848   9.181  17.695  0.00  0.00    +0.000 C 
BRANCH  19  20
ATOM     20  C   UNL     1       8.910  10.415  18.571  0.00  0.00    +0.000 A 
ATOM     21  C   UNL     1       9.254  10.302  19.928  0.00  0.00    +0.000 A 
ATOM     22  C   UNL     1       9.622  11.432  20.665  0.00  0.00    +0.000 A 
ATOM     23  C   UNL     1       9.689  12.669  20.033  0.00  0.00    +0.000 A 
ATOM     24  C   UNL     1       9.253  12.797  18.712  0.00  0.00    +0.000 A 
ATOM     25  C   UNL     1       8.819  11.688  17.993  0.00  0.00    +0.000 A 
ATOM     26  O   UNL     1       9.360  13.982  18.029  0.00  0.00    +0.000 OA
ATOM     27  C   UNL     1      10.586  14.592  18.440  0.00  0.00    +0.000 C 
ATOM     28  C   UNL     1      10.564  14.850  19.941  0.00  0.00    +0.000 C 
ATOM     29  O   UNL     1      10.280  13.687  20.733  0.00  0.00    +0.000 OA
ENDBRANCH  19  20
ENDBRANCH   4  19
TORSDOF 8
ENDMDL
MODEL 9
REMARK VINA RESULT:      -7.2      0.977      1.666
REMARK  Name = 
REMARK  8 active torsions:
REMARK  status: ('A' for Active; 'I' for Inactive)
REMARK    1  A    between atoms: O_1  and  C_2
REMARK    2  A    between atoms: C_2  and  C_3
REMARK    3  A    between atoms: C_3  and  C_4
REMARK    4  A    between atoms: C_4  and  C_5
REMARK    5  A    between atoms: C_5  and  O_6
REMARK    6  A    between atoms: O_6  and  C_7
REMARK    7  A    between atoms: N_15  and  C_16
REMARK    8  A    between atoms: C_16  and  C_17
REMARK                            x       y       z     vdW  Elec       q    Type
REMARK                         _______ _______ _______ _____ _____    ______ ____
ROOT
ATOM      1  C   UNL     1       3.601   4.181  18.440  0.00  0.00    +0.000 C 
ATOM      2  C   UNL     1       3.833   5.710  18.333  0.00  0.00    +0.000 C 
ATOM      3  C   UNL     1       3.324   6.475  19.558  0.00  0.00    +0.000 C 
ATOM      4  N   UNL     1       1.903   6.194  19.828  0.00  0.00    +0.000 NA
ATOM      5  C   UNL     1       1.677   4.764  20.047  0.00  0.00    +0.000 C 
ATOM      6  C   UNL     1       2.125   3.944  18.834  0.00  0.00    +0.000 C 
ENDROOT
BRANCH   1   7
ATOM      7  C   UNL     1       4.538   3.578  19.522  0.00  0.00    +0.000 C 
BRANCH   7   8
ATOM      8  O   UNL     1       4.893   2.241  19.191  0.00  0.00    +0.000 OA
ATOM      9  H   UNL     1       5.731   2.272  18.698  0.00  0.00    +0.000 HD
ENDBRANCH   7   8
ENDBRANCH   1   7
BRANCH   1  10
ATOM     10  C   UNL     1       3.891   3.543  17.043  0.00  0.00    +0.000 C 
BRANCH  10  11
ATOM     11  C   UNL     1       4.784   4.409  16.150  0.00  0.00    +0.000 C 
BRANCH  11  12
ATOM     12  O   UNL     1       6.167   4.148  16.394  0.00  0.00    +0.000 OA
BRANCH  12  13
ATOM     13  C   UNL     1       6.809   5.161  17.063  0.00  0.00    +0.000 A 
ATOM     14  C   UNL     1       7.416   4.799  18.265  0.00  0.00    +0.000 A 
ATOM     15  C   UNL     1       8.079   5.764  19.038  0.00  0.00    +0.000 A 
ATOM     16  C   UNL     1       8.153   7.084  18.598  0.00  0.00    +0.000 A 
ATOM     17  C   UNL     1       7.568   7.444  17.387  0.00  0.00    +0.000 A 
ATOM     18  C   UNL     1       6.904   6.485  16.620  0.00  0.00    +0.000 A 
ENDBRANCH  12  13
ENDBRANCH  11  12
ENDBRANCH  10  11
ENDBRANCH   1  10
BRANCH   4  19
ATOM     19  C   UNL     1       1.471   6.978  20.994  0.00  0.00    +0.000 C 
BRANCH  19  20
ATOM     20  C   UNL     1       0.810   8.304  20.677  0.00  0.00    +0.000 A 
ATOM     21  C   UNL     1      -0.056   8.902  21.609  0.00  0.00    +0.000 A 
ATOM     22  C   UNL     1      -0.418  10.245  21.481  0.00  0.00    +0.000 A 
ATOM     23  C   UNL     1       0.117  11.004  20.445  0.00  0.00    +0.000 A 
ATOM     24  C   UNL     1       0.898  10.385  19.466  0.00  0.00    +0.000 A 
ATOM     25  C   UNL     1       1.207   9.032  19.548  0.00  0.00    +0.000 A 
ATOM     26  O   UNL     1       1.500  11.104  18.463  0.00  0.00    +0.000 OA
ATOM     27  C   UNL     1       1.920  12.345  19.034  0.00  0.00    +0.000 C 
ATOM     28  C   UNL     1       0.717  13.105  19.576  0.00  0.00    +0.000 C 
ATOM     29  O   UNL     1      -0.080  12.358  20.507  0.00  0.00    +0.000 OA
ENDBRANCH  19  20
ENDBRANCH   4  19
TORSDOF 8
ENDMDL
