MODEL 1
REMARK VINA RESULT:      -8.2      0.000      0.000
REMARK  Name = 
REMARK  6 active torsions:
REMARK  status: ('A' for Active; 'I' for Inactive)
REMARK    1  A    between atoms: C_1  and  C_2
REMARK    2  A    between atoms: C_2  and  C_3
REMARK    3  A    between atoms: N_4  and  N_5
REMARK    4  A    between atoms: C_6  and  C_8
REMARK    5  A    between atoms: C_10  and  C_11
REMARK    6  A    between atoms: C_23  and  C_24
REMARK                            x       y       z     vdW  Elec       q    Type
REMARK                         _______ _______ _______ _____ _____    ______ ____
ROOT
ATOM      1  C   UNL     1       3.072   5.259  19.487  0.00  0.00    +0.000 A 
ATOM      2  C   UNL     1       3.589   5.793  18.274  0.00  0.00    +0.000 A 
ATOM      3  C   UNL     1       4.482   4.862  17.783  0.00  0.00    +0.000 A 
ATOM      4  N   UNL     1       4.465   3.856  18.717  0.00  0.00    +0.000 N 
ATOM      5  N   UNL     1       3.621   4.057  19.751  0.00  0.00    +0.000 NA
ATOM      6  H   UNL     1       5.021   3.009  18.711  0.00  0.00    +0.000 HD
ENDROOT
BRANCH   3   7
ATOM      7  C   UNL     1       5.319   4.859  16.583  0.00  0.00    +0.000 A 
ATOM      8  C   UNL     1       6.537   5.550  16.569  0.00  0.00    +0.000 A 
ATOM      9  C   UNL     1       7.346   5.559  15.427  0.00  0.00    +0.000 A 
ATOM     10  C   UNL     1       6.954   4.882  14.264  0.00  0.00    +0.000 A 
ATOM     11  C   UNL     1       7.751   4.887  13.105  0.00  0.00    +0.000 A 
ATOM     12  C   UNL     1       7.339   4.216  11.953  0.00  0.00    +0.000 A 
ATOM     13  C   UNL     1       6.128   3.530  11.945  0.00  0.00    +0.000 A 
ATOM     14  C   UNL     1       5.327   3.514  13.087  0.00  0.00    +0.000 A 
ATOM     15  C   UNL     1       5.726   4.185  14.258  0.00  0.00    +0.000 A 
ATOM     16  C   UNL     1       4.925   4.183  15.418  0.00  0.00    +0.000 A 
ENDBRANCH   3   7
BRANCH   1  18
ATOM     17  N   UNL     1       2.187   7.289  20.418  0.00  0.00    +0.000 N 
ATOM     18  C   UNL     1       2.080   5.902  20.359  0.00  0.00    +0.000 C 
ATOM     19  O   UNL     1       1.239   5.238  20.965  0.00  0.00    +0.000 OA
ATOM     20  H   UNL     1       2.917   7.740  19.875  0.00  0.00    +0.000 HD
BRANCH  17  22
ATOM     21  C   UNL     1       0.997   9.198  20.844  0.00  0.00    +0.000 C 
ATOM     22  N   UNL     1       1.306   7.989  21.184  0.00  0.00    +0.000 NA
BRANCH  21  24
ATOM     23  C   UNL     1      -0.390   9.402  22.982  0.00  0.00    +0.000 C 
ATOM     24  C   UNL     1       0.031   9.998  21.664  0.00  0.00    +0.000 C 
ATOM     25  C   UNL     1      -0.420  11.166  21.167  0.00  0.00    +0.000 C 
BRANCH  25  26
ATOM     26  C   UNL     1      -1.301  12.016  21.902  0.00  0.00    +0.000 A 
ATOM     27  C   UNL     1      -1.011  12.923  22.919  0.00  0.00    +0.000 A 
ATOM     28  C   UNL     1      -2.227  13.522  23.336  0.00  0.00    +0.000 A 
ATOM     29  C   UNL     1      -3.208  12.947  22.573  0.00  0.00    +0.000 A 
ATOM     30  O   UNL     1      -2.670  12.046  21.720  0.00  0.00    +0.000 OA
ENDBRANCH  25  26
ENDBRANCH  21  24
ENDBRANCH  17  22
ENDBRANCH   1  18
TORSDOF 5
ENDMDL
MODEL 2
REMARK VINA RESULT:      -8.0      2.214      4.004
REMARK  Name = 
REMARK  6 active torsions:
REMARK  status: ('A' for Active; 'I' for Inactive)
REMARK    1  A    between atoms: C_1  and  C_2
REMARK    2  A    between atoms: C_2  and  C_3
REMARK    3  A    between atoms: N_4  and  N_5
REMARK    4  A    between atoms: C_6  and  C_8
REMARK    5  A    between atoms: C_10  and  C_11
REMARK    6  A    between atoms: C_23  and  C_24
REMARK                            x       y       z     vdW  Elec       q    Type
REMARK                         _______ _______ _______ _____ _____    ______ ____
ROOT
ATOM      1  C   UNL     1       1.208   8.753  20.264  0.00  0.00    +0.000 A 
ATOM      2  C   UNL     1       1.835   8.369  19.046  0.00  0.00    +0.000 A 
ATOM      3  C   UNL     1       2.347   7.103  19.249  0.00  0.00    +0.000 A 
ATOM      4  N   UNL     1       2.023   6.815  20.551  0.00  0.00    +0.000 N 
ATOM      5  N   UNL     1       1.329   7.780  21.189  0.00  0.00    +0.000 NA
ATOM      6  H   UNL     1       2.261   5.976  21.068  0.00  0.00    +0.000 HD
ENDROOT
BRANCH   3   7
ATOM      7  C   UNL     1       3.096   6.207  18.367  0.00  0.00    +0.000 A 
ATOM      8  C   UNL     1       2.633   4.909  18.118  0.00  0.00    +0.000 A 
ATOM      9  C   UNL     1       3.341   4.041  17.280  0.00  0.00    +0.000 A 
ATOM     10  C   UNL     1       4.538   4.445  16.673  0.00  0.00    +0.000 A 
ATOM     11  C   UNL     1       5.266   3.583  15.835  0.00  0.00    +0.000 A 
ATOM     12  C   UNL     1       6.463   3.999  15.249  0.00  0.00    +0.000 A 
ATOM     13  C   UNL     1       6.944   5.282  15.490  0.00  0.00    +0.000 A 
ATOM     14  C   UNL     1       6.232   6.150  16.319  0.00  0.00    +0.000 A 
ATOM     15  C   UNL     1       5.025   5.748  16.919  0.00  0.00    +0.000 A 
ATOM     16  C   UNL     1       4.297   6.611  17.762  0.00  0.00    +0.000 A 
ENDBRANCH   3   7
BRANCH   1  18
ATOM     17  N   UNL     1       0.435  10.372  21.861  0.00  0.00    +0.000 N 
ATOM     18  C   UNL     1       0.517  10.025  20.515  0.00  0.00    +0.000 C 
ATOM     19  O   UNL     1       0.069  10.700  19.588  0.00  0.00    +0.000 OA
ATOM     20  H   UNL     1       0.841   9.744  22.547  0.00  0.00    +0.000 HD
BRANCH  17  22
ATOM     21  C   UNL     1      -1.310  11.504  22.818  0.00  0.00    +0.000 C 
ATOM     22  N   UNL     1      -0.171  11.542  22.205  0.00  0.00    +0.000 NA
BRANCH  21  24
ATOM     23  C   UNL     1      -3.509  12.772  23.115  0.00  0.00    +0.000 C 
ATOM     24  C   UNL     1      -2.006  12.771  23.213  0.00  0.00    +0.000 C 
ATOM     25  C   UNL     1      -1.257  13.824  23.591  0.00  0.00    +0.000 C 
BRANCH  25  26
ATOM     26  C   UNL     1      -1.838  15.053  24.031  0.00  0.00    +0.000 A 
ATOM     27  C   UNL     1      -2.169  15.462  25.320  0.00  0.00    +0.000 A 
ATOM     28  C   UNL     1      -2.729  16.763  25.241  0.00  0.00    +0.000 A 
ATOM     29  C   UNL     1      -2.732  17.087  23.910  0.00  0.00    +0.000 A 
ATOM     30  O   UNL     1      -2.209  16.075  23.181  0.00  0.00    +0.000 OA
ENDBRANCH  25  26
ENDBRANCH  21  24
ENDBRANCH  17  22
ENDBRANCH   1  18
TORSDOF 5
ENDMDL
MODEL 3
REMARK VINA RESULT:      -8.0      3.967      6.173
REMARK  Name = 
REMARK  6 active torsions:
REMARK  status: ('A' for Active; 'I' for Inactive)
REMARK    1  A    between atoms: C_1  and  C_2
REMARK    2  A    between atoms: C_2  and  C_3
REMARK    3  A    between atoms: N_4  and  N_5
REMARK    4  A    between atoms: C_6  and  C_8
REMARK    5  A    between atoms: C_10  and  C_11
REMARK    6  A    between atoms: C_23  and  C_24
REMARK                            x       y       z     vdW  Elec       q    Type
REMARK                         _______ _______ _______ _____ _____    ______ ____
ROOT
ATOM      1  C   UNL     1       0.593  10.111  21.683  0.00  0.00    +0.000 A 
ATOM      2  C   UNL     1       0.560   9.262  20.543  0.00  0.00    +0.000 A 
ATOM      3  C   UNL     1       1.404   8.205  20.814  0.00  0.00    +0.000 A 
ATOM      4  N   UNL     1       1.898   8.483  22.064  0.00  0.00    +0.000 N 
ATOM      5  N   UNL     1       1.425   9.617  22.621  0.00  0.00    +0.000 NA
ATOM      6  H   UNL     1       2.577   7.940  22.586  0.00  0.00    +0.000 HD
ENDROOT
BRANCH   3   7
ATOM      7  C   UNL     1       1.777   7.032  20.021  0.00  0.00    +0.000 A 
ATOM      8  C   UNL     1       2.459   7.187  18.808  0.00  0.00    +0.000 A 
ATOM      9  C   UNL     1       2.819   6.075  18.039  0.00  0.00    +0.000 A 
ATOM     10  C   UNL     1       2.500   4.776  18.459  0.00  0.00    +0.000 A 
ATOM     11  C   UNL     1       2.846   3.648  17.695  0.00  0.00    +0.000 A 
ATOM     12  C   UNL     1       2.510   2.364  18.124  0.00  0.00    +0.000 A 
ATOM     13  C   UNL     1       1.826   2.190  19.324  0.00  0.00    +0.000 A 
ATOM     14  C   UNL     1       1.476   3.299  20.095  0.00  0.00    +0.000 A 
ATOM     15  C   UNL     1       1.806   4.602  19.677  0.00  0.00    +0.000 A 
ATOM     16  C   UNL     1       1.455   5.732  20.442  0.00  0.00    +0.000 A 
ENDBRANCH   3   7
BRANCH   1  18
ATOM     17  N   UNL     1      -1.477  11.184  22.261  0.00  0.00    +0.000 N 
ATOM     18  C   UNL     1      -0.159  11.362  21.849  0.00  0.00    +0.000 C 
ATOM     19  O   UNL     1       0.367  12.455  21.638  0.00  0.00    +0.000 OA
ATOM     20  H   UNL     1      -1.813  10.237  22.410  0.00  0.00    +0.000 HD
BRANCH  17  22
ATOM     21  C   UNL     1      -3.073  12.296  23.469  0.00  0.00    +0.000 C 
ATOM     22  N   UNL     1      -2.261  12.279  22.462  0.00  0.00    +0.000 NA
BRANCH  21  24
ATOM     23  C   UNL     1      -5.417  13.207  23.931  0.00  0.00    +0.000 C 
ATOM     24  C   UNL     1      -3.951  13.484  23.720  0.00  0.00    +0.000 C 
ATOM     25  C   UNL     1      -3.393  14.710  23.707  0.00  0.00    +0.000 C 
BRANCH  25  26
ATOM     26  C   UNL     1      -4.145  15.892  23.987  0.00  0.00    +0.000 A 
ATOM     27  C   UNL     1      -4.895  16.688  23.124  0.00  0.00    +0.000 A 
ATOM     28  C   UNL     1      -5.448  17.755  23.877  0.00  0.00    +0.000 A 
ATOM     29  C   UNL     1      -5.002  17.578  25.159  0.00  0.00    +0.000 A 
ATOM     30  O   UNL     1      -4.221  16.476  25.236  0.00  0.00    +0.000 OA
ENDBRANCH  25  26
ENDBRANCH  21  24
ENDBRANCH  17  22
ENDBRANCH   1  18
TORSDOF 5
ENDMDL
MODEL 4
REMARK VINA RESULT:      -7.9      3.005      5.638
REMARK  Name = 
REMARK  6 active torsions:
REMARK  status: ('A' for Active; 'I' for Inactive)
REMARK    1  A    between atoms: C_1  and  C_2
REMARK    2  A    between atoms: C_2  and  C_3
REMARK    3  A    between atoms: N_4  and  N_5
REMARK    4  A    between atoms: C_6  and  C_8
REMARK    5  A    between atoms: C_10  and  C_11
REMARK    6  A    between atoms: C_23  and  C_24
REMARK                            x       y       z     vdW  Elec       q    Type
REMARK                         _______ _______ _______ _____ _____    ______ ____
ROOT
ATOM      1  C   UNL     1       0.411   9.950  21.558  0.00  0.00    +0.000 A 
ATOM      2  C   UNL     1       0.581   9.129  20.408  0.00  0.00    +0.000 A 
ATOM      3  C   UNL     1       1.503   8.160  20.749  0.00  0.00    +0.000 A 
ATOM      4  N   UNL     1       1.839   8.459  22.046  0.00  0.00    +0.000 N 
ATOM      5  N   UNL     1       1.195   9.523  22.568  0.00  0.00    +0.000 NA
ATOM      6  H   UNL     1       2.517   7.978  22.626  0.00  0.00    +0.000 HD
ENDROOT
BRANCH   3   7
ATOM      7  C   UNL     1       2.075   7.052  19.982  0.00  0.00    +0.000 A 
ATOM      8  C   UNL     1       1.808   5.727  20.347  0.00  0.00    +0.000 A 
ATOM      9  C   UNL     1       2.351   4.659  19.625  0.00  0.00    +0.000 A 
ATOM     10  C   UNL     1       3.184   4.888  18.521  0.00  0.00    +0.000 A 
ATOM     11  C   UNL     1       3.745   3.826  17.789  0.00  0.00    +0.000 A 
ATOM     12  C   UNL     1       4.580   4.074  16.698  0.00  0.00    +0.000 A 
ATOM     13  C   UNL     1       4.864   5.384  16.324  0.00  0.00    +0.000 A 
ATOM     14  C   UNL     1       4.313   6.448  17.040  0.00  0.00    +0.000 A 
ATOM     15  C   UNL     1       3.470   6.218  18.142  0.00  0.00    +0.000 A 
ATOM     16  C   UNL     1       2.910   7.282  18.877  0.00  0.00    +0.000 A 
ENDBRANCH   3   7
BRANCH   1  18
ATOM     17  N   UNL     1      -0.988  11.325  22.944  0.00  0.00    +0.000 N 
ATOM     18  C   UNL     1      -0.483  11.110  21.664  0.00  0.00    +0.000 C 
ATOM     19  O   UNL     1      -0.736  11.812  20.685  0.00  0.00    +0.000 OA
ATOM     20  H   UNL     1      -0.714  10.687  23.684  0.00  0.00    +0.000 HD
BRANCH  17  22
ATOM     21  C   UNL     1      -3.052  12.165  23.470  0.00  0.00    +0.000 C 
ATOM     22  N   UNL     1      -1.815  12.384  23.159  0.00  0.00    +0.000 NA
BRANCH  21  24
ATOM     23  C   UNL     1      -5.408  12.948  24.080  0.00  0.00    +0.000 C 
ATOM     24  C   UNL     1      -3.991  13.306  23.713  0.00  0.00    +0.000 C 
ATOM     25  C   UNL     1      -3.529  14.563  23.558  0.00  0.00    +0.000 C 
BRANCH  25  26
ATOM     26  C   UNL     1      -4.341  15.709  23.819  0.00  0.00    +0.000 A 
ATOM     27  C   UNL     1      -4.369  16.536  24.939  0.00  0.00    +0.000 A 
ATOM     28  C   UNL     1      -5.352  17.536  24.725  0.00  0.00    +0.000 A 
ATOM     29  C   UNL     1      -5.892  17.271  23.495  0.00  0.00    +0.000 A 
ATOM     30  O   UNL     1      -5.302  16.184  22.948  0.00  0.00    +0.000 OA
ENDBRANCH  25  26
ENDBRANCH  21  24
ENDBRANCH  17  22
ENDBRANCH   1  18
TORSDOF 5
ENDMDL
MODEL 5
REMARK VINA RESULT:      -7.8      0.850      1.091
REMARK  Name = 
REMARK  6 active torsions:
REMARK  status: ('A' for Active; 'I' for Inactive)
REMARK    1  A    between atoms: C_1  and  C_2
REMARK    2  A    between atoms: C_2  and  C_3
REMARK    3  A    between atoms: N_4  and  N_5
REMARK    4  A    between atoms: C_6  and  C_8
REMARK    5  A    between atoms: C_10  and  C_11
REMARK    6  A    between atoms: C_23  and  C_24
REMARK                            x       y       z     vdW  Elec       q    Type
REMARK                         _______ _______ _______ _____ _____    ______ ____
ROOT
ATOM      1  C   UNL     1       3.057   6.013  19.371  0.00  0.00    +0.000 A 
ATOM      2  C   UNL     1       3.563   6.355  18.086  0.00  0.00    +0.000 A 
ATOM      3  C   UNL     1       4.453   5.360  17.736  0.00  0.00    +0.000 A 
ATOM      4  N   UNL     1       4.446   4.510  18.813  0.00  0.00    +0.000 N 
ATOM      5  N   UNL     1       3.611   4.866  19.811  0.00  0.00    +0.000 NA
ATOM      6  H   UNL     1       5.003   3.671  18.932  0.00  0.00    +0.000 HD
ENDROOT
BRANCH   3   7
ATOM      7  C   UNL     1       5.281   5.174  16.543  0.00  0.00    +0.000 A 
ATOM      8  C   UNL     1       6.555   5.751  16.469  0.00  0.00    +0.000 A 
ATOM      9  C   UNL     1       7.356   5.583  15.334  0.00  0.00    +0.000 A 
ATOM     10  C   UNL     1       6.899   4.840  14.236  0.00  0.00    +0.000 A 
ATOM     11  C   UNL     1       7.687   4.669  13.084  0.00  0.00    +0.000 A 
ATOM     12  C   UNL     1       7.211   3.935  11.997  0.00  0.00    +0.000 A 
ATOM     13  C   UNL     1       5.945   3.361  12.048  0.00  0.00    +0.000 A 
ATOM     14  C   UNL     1       5.151   3.521  13.185  0.00  0.00    +0.000 A 
ATOM     15  C   UNL     1       5.614   4.258  14.290  0.00  0.00    +0.000 A 
ATOM     16  C   UNL     1       4.823   4.432  15.443  0.00  0.00    +0.000 A 
ENDBRANCH   3   7
BRANCH   1  18
ATOM     17  N   UNL     1       1.951   8.112  19.747  0.00  0.00    +0.000 N 
ATOM     18  C   UNL     1       2.071   6.782  20.142  0.00  0.00    +0.000 C 
ATOM     19  O   UNL     1       1.423   6.259  21.049  0.00  0.00    +0.000 OA
ATOM     20  H   UNL     1       2.533   8.444  18.984  0.00  0.00    +0.000 HD
BRANCH  17  22
ATOM     21  C   UNL     1       0.655   9.998  19.806  0.00  0.00    +0.000 C 
ATOM     22  N   UNL     1       1.054   8.913  20.385  0.00  0.00    +0.000 NA
BRANCH  21  24
ATOM     23  C   UNL     1      -1.419  11.480  19.610  0.00  0.00    +0.000 C 
ATOM     24  C   UNL     1      -0.332  10.904  20.478  0.00  0.00    +0.000 C 
ATOM     25  C   UNL     1      -0.169  11.170  21.789  0.00  0.00    +0.000 C 
BRANCH  25  26
ATOM     26  C   UNL     1      -1.090  11.981  22.521  0.00  0.00    +0.000 A 
ATOM     27  C   UNL     1      -1.007  13.329  22.859  0.00  0.00    +0.000 A 
ATOM     28  C   UNL     1      -2.167  13.672  23.598  0.00  0.00    +0.000 A 
ATOM     29  C   UNL     1      -2.902  12.520  23.695  0.00  0.00    +0.000 A 
ATOM     30  O   UNL     1      -2.268  11.506  23.063  0.00  0.00    +0.000 OA
ENDBRANCH  25  26
ENDBRANCH  21  24
ENDBRANCH  17  22
ENDBRANCH   1  18
TORSDOF 5
ENDMDL
MODEL 6
REMARK VINA RESULT:      -7.8      2.467      4.389
REMARK  Name = 
REMARK  6 active torsions:
REMARK  status: ('A' for Active; 'I' for Inactive)
REMARK    1  A    between atoms: C_1  and  C_2
REMARK    2  A    between atoms: C_2  and  C_3
REMARK    3  A    between atoms: N_4  and  N_5
REMARK    4  A    between atoms: C_6  and  C_8
REMARK    5  A    between atoms: C_10  and  C_11
REMARK    6  A    between atoms: C_23  and  C_24
REMARK                            x       y       z     vdW  Elec       q    Type
REMARK                         _______ _______ _______ _____ _____    ______ ____
ROOT
ATOM      1  C   UNL     1       1.063   9.294  19.904  0.00  0.00    +0.000 A 
ATOM      2  C   UNL     1       1.645   8.738  18.730  0.00  0.00    +0.000 A 
ATOM      3  C   UNL     1       2.198   7.529  19.100  0.00  0.00    +0.000 A 
ATOM      4  N   UNL     1       1.939   7.439  20.444  0.00  0.00    +0.000 N 
ATOM      5  N   UNL     1       1.250   8.478  20.960  0.00  0.00    +0.000 NA
ATOM      6  H   UNL     1       2.222   6.694  21.071  0.00  0.00    +0.000 HD
ENDROOT
BRANCH   3   7
ATOM      7  C   UNL     1       2.930   6.521  18.330  0.00  0.00    +0.000 A 
ATOM      8  C   UNL     1       2.454   5.207  18.254  0.00  0.00    +0.000 A 
ATOM      9  C   UNL     1       3.145   4.233  17.525  0.00  0.00    +0.000 A 
ATOM     10  C   UNL     1       4.338   4.547  16.858  0.00  0.00    +0.000 A 
ATOM     11  C   UNL     1       5.050   3.579  16.128  0.00  0.00    +0.000 A 
ATOM     12  C   UNL     1       6.241   3.907  15.480  0.00  0.00    +0.000 A 
ATOM     13  C   UNL     1       6.735   5.206  15.551  0.00  0.00    +0.000 A 
ATOM     14  C   UNL     1       6.039   6.179  16.270  0.00  0.00    +0.000 A 
ATOM     15  C   UNL     1       4.837   5.866  16.931  0.00  0.00    +0.000 A 
ATOM     16  C   UNL     1       4.125   6.836  17.665  0.00  0.00    +0.000 A 
ENDBRANCH   3   7
BRANCH   1  18
ATOM     17  N   UNL     1      -0.285  10.794  21.209  0.00  0.00    +0.000 N 
ATOM     18  C   UNL     1       0.352  10.577  19.990  0.00  0.00    +0.000 C 
ATOM     19  O   UNL     1       0.348  11.367  19.046  0.00  0.00    +0.000 OA
ATOM     20  H   UNL     1      -0.218  10.076  21.924  0.00  0.00    +0.000 HD
BRANCH  17  22
ATOM     21  C   UNL     1      -1.279  12.310  22.606  0.00  0.00    +0.000 C 
ATOM     22  N   UNL     1      -0.961  11.959  21.402  0.00  0.00    +0.000 NA
BRANCH  21  24
ATOM     23  C   UNL     1      -1.724  14.736  21.932  0.00  0.00    +0.000 C 
ATOM     24  C   UNL     1      -2.024  13.586  22.857  0.00  0.00    +0.000 C 
ATOM     25  C   UNL     1      -2.877  13.638  23.899  0.00  0.00    +0.000 C 
BRANCH  25  26
ATOM     26  C   UNL     1      -3.665  14.795  24.181  0.00  0.00    +0.000 A 
ATOM     27  C   UNL     1      -3.361  15.902  24.969  0.00  0.00    +0.000 A 
ATOM     28  C   UNL     1      -4.472  16.782  24.943  0.00  0.00    +0.000 A 
ATOM     29  C   UNL     1      -5.413  16.173  24.156  0.00  0.00    +0.000 A 
ATOM     30  O   UNL     1      -4.946  14.987  23.702  0.00  0.00    +0.000 OA
ENDBRANCH  25  26
ENDBRANCH  21  24
ENDBRANCH  17  22
ENDBRANCH   1  18
TORSDOF 5
ENDMDL
MODEL 7
REMARK VINA RESULT:      -7.8      2.458      4.596
REMARK  Name = 
REMARK  6 active torsions:
REMARK  status: ('A' for Active; 'I' for Inactive)
REMARK    1  A    between atoms: C_1  and  C_2
REMARK    2  A    between atoms: C_2  and  C_3
REMARK    3  A    between atoms: N_4  and  N_5
REMARK    4  A    between atoms: C_6  and  C_8
REMARK    5  A    between atoms: C_10  and  C_11
REMARK    6  A    between atoms: C_23  and  C_24
REMARK                            x       y       z     vdW  Elec       q    Type
REMARK                         _______ _______ _______ _____ _____    ______ ____
ROOT
ATOM      1  C   UNL     1       0.966   9.351  20.470  0.00  0.00    +0.000 A 
ATOM      2  C   UNL     1       1.463   8.787  19.263  0.00  0.00    +0.000 A 
ATOM      3  C   UNL     1       2.085   7.604  19.609  0.00  0.00    +0.000 A 
ATOM      4  N   UNL     1       1.946   7.538  20.972  0.00  0.00    +0.000 N 
ATOM      5  N   UNL     1       1.270   8.567  21.524  0.00  0.00    +0.000 NA
ATOM      6  H   UNL     1       2.306   6.818  21.588  0.00  0.00    +0.000 HD
ENDROOT
BRANCH   3   7
ATOM      7  C   UNL     1       2.782   6.602  18.801  0.00  0.00    +0.000 A 
ATOM      8  C   UNL     1       2.596   5.237  19.053  0.00  0.00    +0.000 A 
ATOM      9  C   UNL     1       3.258   4.268  18.290  0.00  0.00    +0.000 A 
ATOM     10  C   UNL     1       4.132   4.640  17.259  0.00  0.00    +0.000 A 
ATOM     11  C   UNL     1       4.812   3.680  16.488  0.00  0.00    +0.000 A 
ATOM     12  C   UNL     1       5.686   4.068  15.472  0.00  0.00    +0.000 A 
ATOM     13  C   UNL     1       5.890   5.420  15.211  0.00  0.00    +0.000 A 
ATOM     14  C   UNL     1       5.221   6.385  15.967  0.00  0.00    +0.000 A 
ATOM     15  C   UNL     1       4.337   6.012  16.995  0.00  0.00    +0.000 A 
ATOM     16  C   UNL     1       3.659   6.974  17.769  0.00  0.00    +0.000 A 
ENDBRANCH   3   7
BRANCH   1  18
ATOM     17  N   UNL     1      -0.522  10.727  21.761  0.00  0.00    +0.000 N 
ATOM     18  C   UNL     1       0.223  10.613  20.590  0.00  0.00    +0.000 C 
ATOM     19  O   UNL     1       0.283  11.474  19.712  0.00  0.00    +0.000 OA
ATOM     20  H   UNL     1      -0.501   9.957  22.423  0.00  0.00    +0.000 HD
BRANCH  17  22
ATOM     21  C   UNL     1      -2.133  11.872  22.915  0.00  0.00    +0.000 C 
ATOM     22  N   UNL     1      -1.237  11.864  21.982  0.00  0.00    +0.000 NA
BRANCH  21  24
ATOM     23  C   UNL     1      -2.263  14.195  23.976  0.00  0.00    +0.000 C 
ATOM     24  C   UNL     1      -2.940  13.106  23.186  0.00  0.00    +0.000 C 
ATOM     25  C   UNL     1      -4.212  13.151  22.744  0.00  0.00    +0.000 C 
BRANCH  25  26
ATOM     26  C   UNL     1      -5.035  14.307  22.913  0.00  0.00    +0.000 A 
ATOM     27  C   UNL     1      -6.050  14.542  23.838  0.00  0.00    +0.000 A 
ATOM     28  C   UNL     1      -6.575  15.836  23.597  0.00  0.00    +0.000 A 
ATOM     29  C   UNL     1      -5.876  16.331  22.529  0.00  0.00    +0.000 A 
ATOM     30  O   UNL     1      -4.961  15.427  22.110  0.00  0.00    +0.000 OA
ENDBRANCH  25  26
ENDBRANCH  21  24
ENDBRANCH  17  22
ENDBRANCH   1  18
TORSDOF 5
ENDMDL
MODEL 8
REMARK VINA RESULT:      -7.7      2.548      4.843
REMARK  Name = 
REMARK  6 active torsions:
REMARK  status: ('A' for Active; 'I' for Inactive)
REMARK    1  A    between atoms: C_1  and  C_2
REMARK    2  A    between atoms: C_2  and  C_3
REMARK    3  A    between atoms: N_4  and  N_5
REMARK    4  A    between atoms: C_6  and  C_8
REMARK    5  A    between atoms: C_10  and  C_11
REMARK    6  A    between atoms: C_23  and  C_24
REMARK                            x       y       z     vdW  Elec       q    Type
REMARK                         _______ _______ _______ _____ _____    ______ ____
ROOT
ATOM      1  C   UNL     1       1.026   9.512  20.807  0.00  0.00    +0.000 A 
ATOM      2  C   UNL     1       1.613   9.035  19.603  0.00  0.00    +0.000 A 
ATOM      3  C   UNL     1       1.970   7.722  19.833  0.00  0.00    +0.000 A 
ATOM      4  N   UNL     1       1.604   7.498  21.136  0.00  0.00    +0.000 N 
ATOM      5  N   UNL     1       1.024   8.550  21.751  0.00  0.00    +0.000 NA
ATOM      6  H   UNL     1       1.738   6.646  21.670  0.00  0.00    +0.000 HD
ENDROOT
BRANCH   3   7
ATOM      7  C   UNL     1       2.615   6.727  18.974  0.00  0.00    +0.000 A 
ATOM      8  C   UNL     1       2.353   5.363  19.152  0.00  0.00    +0.000 A 
ATOM      9  C   UNL     1       2.965   4.401  18.340  0.00  0.00    +0.000 A 
ATOM     10  C   UNL     1       3.863   4.778  17.333  0.00  0.00    +0.000 A 
ATOM     11  C   UNL     1       4.494   3.824  16.514  0.00  0.00    +0.000 A 
ATOM     12  C   UNL     1       5.394   4.218  15.523  0.00  0.00    +0.000 A 
ATOM     13  C   UNL     1       5.674   5.568  15.336  0.00  0.00    +0.000 A 
ATOM     14  C   UNL     1       5.055   6.527  16.140  0.00  0.00    +0.000 A 
ATOM     15  C   UNL     1       4.146   6.149  17.144  0.00  0.00    +0.000 A 
ATOM     16  C   UNL     1       3.517   7.105  17.966  0.00  0.00    +0.000 A 
ENDBRANCH   3   7
BRANCH   1  18
ATOM     17  N   UNL     1      -0.902  10.922  21.071  0.00  0.00    +0.000 N 
ATOM     18  C   UNL     1       0.489  10.862  21.029  0.00  0.00    +0.000 C 
ATOM     19  O   UNL     1       1.236  11.830  21.167  0.00  0.00    +0.000 OA
ATOM     20  H   UNL     1      -1.426  10.061  20.947  0.00  0.00    +0.000 HD
BRANCH  17  22
ATOM     21  C   UNL     1      -2.187  12.298  22.373  0.00  0.00    +0.000 C 
ATOM     22  N   UNL     1      -1.505  12.123  21.287  0.00  0.00    +0.000 NA
BRANCH  21  24
ATOM     23  C   UNL     1      -2.734  14.667  21.583  0.00  0.00    +0.000 C 
ATOM     24  C   UNL     1      -2.865  13.607  22.644  0.00  0.00    +0.000 C 
ATOM     25  C   UNL     1      -3.512  13.764  23.815  0.00  0.00    +0.000 C 
BRANCH  25  26
ATOM     26  C   UNL     1      -4.228  14.958  24.135  0.00  0.00    +0.000 A 
ATOM     27  C   UNL     1      -5.517  15.339  23.771  0.00  0.00    +0.000 A 
ATOM     28  C   UNL     1      -5.773  16.618  24.328  0.00  0.00    +0.000 A 
ATOM     29  C   UNL     1      -4.629  16.971  24.993  0.00  0.00    +0.000 A 
ATOM     30  O   UNL     1      -3.701  15.993  24.881  0.00  0.00    +0.000 OA
ENDBRANCH  25  26
ENDBRANCH  21  24
ENDBRANCH  17  22
ENDBRANCH   1  18
TORSDOF 5
ENDMDL
MODEL 9
REMARK VINA RESULT:      -7.7      2.966      5.211
REMARK  Name = 
REMARK  6 active torsions:
REMARK  status: ('A' for Active; 'I' for Inactive)
REMARK    1  A    between atoms: C_1  and  C_2
REMARK    2  A    between atoms: C_2  and  C_3
REMARK    3  A    between atoms: N_4  and  N_5
REMARK    4  A    between atoms: C_6  and  C_8
REMARK    5  A    between atoms: C_10  and  C_11
REMARK    6  A    between atoms: C_23  and  C_24
REMARK                            x       y       z     vdW  Elec       q    Type
REMARK                         _______ _______ _______ _____ _____    ______ ____
ROOT
ATOM      1  C   UNL     1       0.444   9.725  21.157  0.00  0.00    +0.000 A 
ATOM      2  C   UNL     1       0.898   9.290  19.881  0.00  0.00    +0.000 A 
ATOM      3  C   UNL     1       1.711   8.197  20.104  0.00  0.00    +0.000 A 
ATOM      4  N   UNL     1       1.713   8.055  21.469  0.00  0.00    +0.000 N 
ATOM      5  N   UNL     1       0.954   8.950  22.134  0.00  0.00    +0.000 NA
ATOM      6  H   UNL     1       2.229   7.369  22.009  0.00  0.00    +0.000 HD
ENDROOT
BRANCH   3   7
ATOM      7  C   UNL     1       2.461   7.342  19.183  0.00  0.00    +0.000 A 
ATOM      8  C   UNL     1       3.172   7.904  18.116  0.00  0.00    +0.000 A 
ATOM      9  C   UNL     1       3.891   7.098  17.226  0.00  0.00    +0.000 A 
ATOM     10  C   UNL     1       3.912   5.705  17.376  0.00  0.00    +0.000 A 
ATOM     11  C   UNL     1       4.623   4.879  16.487  0.00  0.00    +0.000 A 
ATOM     12  C   UNL     1       4.624   3.493  16.646  0.00  0.00    +0.000 A 
ATOM     13  C   UNL     1       3.917   2.914  17.696  0.00  0.00    +0.000 A 
ATOM     14  C   UNL     1       3.208   3.720  18.588  0.00  0.00    +0.000 A 
ATOM     15  C   UNL     1       3.195   5.120  18.443  0.00  0.00    +0.000 A 
ATOM     16  C   UNL     1       2.481   5.946  19.333  0.00  0.00    +0.000 A 
ENDBRANCH   3   7
BRANCH   1  18
ATOM     17  N   UNL     1      -0.726  11.079  22.760  0.00  0.00    +0.000 N 
ATOM     18  C   UNL     1      -0.455  10.859  21.412  0.00  0.00    +0.000 C 
ATOM     19  O   UNL     1      -0.905  11.536  20.488  0.00  0.00    +0.000 OA
ATOM     20  H   UNL     1      -0.301  10.462  23.445  0.00  0.00    +0.000 HD
BRANCH  17  22
ATOM     21  C   UNL     1      -2.742  11.866  23.507  0.00  0.00    +0.000 C 
ATOM     22  N   UNL     1      -1.536  12.115  23.111  0.00  0.00    +0.000 NA
BRANCH  21  24
ATOM     23  C   UNL     1      -4.916  12.594  24.638  0.00  0.00    +0.000 C 
ATOM     24  C   UNL     1      -3.661  12.982  23.901  0.00  0.00    +0.000 C 
ATOM     25  C   UNL     1      -3.332  14.240  23.547  0.00  0.00    +0.000 C 
BRANCH  25  26
ATOM     26  C   UNL     1      -4.123  15.368  23.924  0.00  0.00    +0.000 A 
ATOM     27  C   UNL     1      -3.936  16.270  24.969  0.00  0.00    +0.000 A 
ATOM     28  C   UNL     1      -4.996  17.211  24.935  0.00  0.00    +0.000 A 
ATOM     29  C   UNL     1      -5.793  16.838  23.886  0.00  0.00    +0.000 A 
ATOM     30  O   UNL     1      -5.287  15.740  23.281  0.00  0.00    +0.000 OA
ENDBRANCH  25  26
ENDBRANCH  21  24
ENDBRANCH  17  22
ENDBRANCH   1  18
TORSDOF 5
ENDMDL
