MODEL 1
REMARK VINA RESULT:      -8.6      0.000      0.000
REMARK  Name = 
REMARK  7 active torsions:
REMARK  status: ('A' for Active; 'I' for Inactive)
REMARK    1  A    between atoms: C_1  and  C_2
REMARK    2  A    between atoms: C_2  and  N_3
REMARK    3  A    between atoms: C_2  and  C_18
REMARK    4  A    between atoms: N_3  and  C_4
REMARK    5  A    between atoms: C_4  and  C_5
REMARK    6  A    between atoms: C_10  and  C_11
REMARK    7  A    between atoms: C_11  and  N_12
REMARK                            x       y       z     vdW  Elec       q    Type
REMARK                         _______ _______ _______ _____ _____    ______ ____
ROOT
ATOM      1  C   UNL     1       2.289   7.362  19.740  0.00  0.00    +0.000 C 
ATOM      2  C   UNL     1       1.842   8.010  18.425  0.00  0.00    +0.000 C 
ENDROOT
BRANCH   2   3
ATOM      3  C   UNL     1       1.498   9.511  18.617  0.00  0.00    +0.000 C 
ATOM      4  O   UNL     1       2.275  10.316  18.064  0.00  0.00    +0.000 OA
ATOM      5  N   UNL     1       0.240   9.966  19.057  0.00  0.00    +0.000 N 
ATOM      6  C   UNL     1      -0.190  11.162  18.297  0.00  0.00    +0.000 C 
ATOM      7  C   UNL     1      -1.544  11.635  18.737  0.00  0.00    +0.000 C 
ATOM      8  O   UNL     1      -2.534  11.712  18.020  0.00  0.00    +0.000 OA
ATOM      9  N   UNL     1      -1.538  12.014  20.059  0.00  0.00    +0.000 N 
ATOM     10  C   UNL     1      -0.883  11.137  20.955  0.00  0.00    +0.000 A 
ATOM     11  C   UNL     1      -1.160  11.346  22.307  0.00  0.00    +0.000 A 
ATOM     12  C   UNL     1      -0.831  10.348  23.219  0.00  0.00    +0.000 A 
ATOM     13  C   UNL     1      -0.202   9.196  22.762  0.00  0.00    +0.000 A 
ATOM     14  C   UNL     1       0.164   9.052  21.410  0.00  0.00    +0.000 A 
ATOM     15  C   UNL     1      -0.143  10.028  20.470  0.00  0.00    +0.000 A 
ATOM     16  H   UNL     1      -1.353  12.998  20.246  0.00  0.00    +0.000 HD
ENDBRANCH   2   3
BRANCH   2  17
ATOM     17  N   UNL     1       2.751   7.658  17.317  0.00  0.00    +0.000 NA
ATOM     18  H   UNL     1       2.849   8.492  16.742  0.00  0.00    +0.000 HD
BRANCH  17  19
ATOM     19  C   UNL     1       4.107   7.259  17.767  0.00  0.00    +0.000 C 
BRANCH  19  20
ATOM     20  C   UNL     1       4.732   6.125  16.939  0.00  0.00    +0.000 A 
ATOM     21  C   UNL     1       5.193   6.367  15.628  0.00  0.00    +0.000 A 
ATOM     22  C   UNL     1       5.698   5.344  14.820  0.00  0.00    +0.000 A 
ATOM     23  C   UNL     1       5.757   4.046  15.295  0.00  0.00    +0.000 A 
ATOM     24  C   UNL     1       5.382   3.787  16.604  0.00  0.00    +0.000 A 
ATOM     25  C   UNL     1       4.930   4.818  17.464  0.00  0.00    +0.000 A 
BRANCH  25  26
ATOM     26  C   UNL     1       4.660   4.413  18.902  0.00  0.00    +0.000 C 
BRANCH  26  27
ATOM     27  N   UNL     1       3.503   3.480  19.056  0.00  0.00    +0.000 NA
ATOM     28  C   UNL     1       3.194   3.253  20.473  0.00  0.00    +0.000 C 
ATOM     29  C   UNL     1       1.866   2.537  20.705  0.00  0.00    +0.000 C 
ATOM     30  C   UNL     1       0.729   3.310  20.068  0.00  0.00    +0.000 C 
ATOM     31  C   UNL     1       0.976   3.440  18.569  0.00  0.00    +0.000 C 
ATOM     32  C   UNL     1       2.380   3.938  18.226  0.00  0.00    +0.000 C 
ENDBRANCH  26  27
ENDBRANCH  25  26
ENDBRANCH  19  20
ENDBRANCH  17  19
ENDBRANCH   2  17
TORSDOF 6
ENDMDL
MODEL 2
REMARK VINA RESULT:      -8.5      1.825      4.505
REMARK  Name = 
REMARK  7 active torsions:
REMARK  status: ('A' for Active; 'I' for Inactive)
REMARK    1  A    between atoms: C_1  and  C_2
REMARK    2  A    between atoms: C_2  and  N_3
REMARK    3  A    between atoms: C_2  and  C_18
REMARK    4  A    between atoms: N_3  and  C_4
REMARK    5  A    between atoms: C_4  and  C_5
REMARK    6  A    between atoms: C_10  and  C_11
REMARK    7  A    between atoms: C_11  and  N_12
REMARK                            x       y       z     vdW  Elec       q    Type
REMARK                         _______ _______ _______ _____ _____    ______ ____
ROOT
ATOM      1  C   UNL     1       1.222   8.923  18.246  0.00  0.00    +0.000 C 
ATOM      2  C   UNL     1       1.276   9.079  19.770  0.00  0.00    +0.000 C 
ENDROOT
BRANCH   2   3
ATOM      3  C   UNL     1      -0.036   9.693  20.327  0.00  0.00    +0.000 C 
ATOM      4  O   UNL     1      -0.348   9.336  21.482  0.00  0.00    +0.000 OA
ATOM      5  N   UNL     1      -0.659  10.825  19.769  0.00  0.00    +0.000 N 
ATOM      6  C   UNL     1      -1.153  11.737  20.825  0.00  0.00    +0.000 C 
ATOM      7  C   UNL     1      -1.790  12.963  20.239  0.00  0.00    +0.000 C 
ATOM      8  O   UNL     1      -1.415  14.113  20.427  0.00  0.00    +0.000 OA
ATOM      9  N   UNL     1      -2.889  12.642  19.477  0.00  0.00    +0.000 N 
ATOM     10  C   UNL     1      -2.732  11.555  18.585  0.00  0.00    +0.000 A 
ATOM     11  C   UNL     1      -3.712  11.446  17.598  0.00  0.00    +0.000 A 
ATOM     12  C   UNL     1      -3.467  10.627  16.499  0.00  0.00    +0.000 A 
ATOM     13  C   UNL     1      -2.276   9.915  16.441  0.00  0.00    +0.000 A 
ATOM     14  C   UNL     1      -1.347   9.958  17.499  0.00  0.00    +0.000 A 
ATOM     15  C   UNL     1      -1.558  10.760  18.614  0.00  0.00    +0.000 A 
ATOM     16  H   UNL     1      -3.787  12.646  19.957  0.00  0.00    +0.000 HD
ENDBRANCH   2   3
BRANCH   2  17
ATOM     17  N   UNL     1       1.782   7.852  20.418  0.00  0.00    +0.000 NA
ATOM     18  H   UNL     1       0.968   7.346  20.761  0.00  0.00    +0.000 HD
BRANCH  17  19
ATOM     19  C   UNL     1       2.514   6.954  19.494  0.00  0.00    +0.000 C 
BRANCH  19  20
ATOM     20  C   UNL     1       2.447   5.468  19.881  0.00  0.00    +0.000 A 
ATOM     21  C   UNL     1       1.262   4.923  20.420  0.00  0.00    +0.000 A 
ATOM     22  C   UNL     1       1.188   3.596  20.854  0.00  0.00    +0.000 A 
ATOM     23  C   UNL     1       2.296   2.771  20.765  0.00  0.00    +0.000 A 
ATOM     24  C   UNL     1       3.451   3.253  20.171  0.00  0.00    +0.000 A 
ATOM     25  C   UNL     1       3.530   4.573  19.663  0.00  0.00    +0.000 A 
BRANCH  25  26
ATOM     26  C   UNL     1       4.817   4.932  18.940  0.00  0.00    +0.000 C 
BRANCH  26  27
ATOM     27  N   UNL     1       4.669   5.008  17.455  0.00  0.00    +0.000 NA
ATOM     28  C   UNL     1       5.169   6.289  16.941  0.00  0.00    +0.000 C 
ATOM     29  C   UNL     1       5.304   6.331  15.421  0.00  0.00    +0.000 C 
ATOM     30  C   UNL     1       6.211   5.216  14.940  0.00  0.00    +0.000 C 
ATOM     31  C   UNL     1       5.631   3.869  15.357  0.00  0.00    +0.000 C 
ATOM     32  C   UNL     1       5.244   3.807  16.834  0.00  0.00    +0.000 C 
ENDBRANCH  26  27
ENDBRANCH  25  26
ENDBRANCH  19  20
ENDBRANCH  17  19
ENDBRANCH   2  17
TORSDOF 6
ENDMDL
MODEL 3
REMARK VINA RESULT:      -8.5      1.824      4.419
REMARK  Name = 
REMARK  7 active torsions:
REMARK  status: ('A' for Active; 'I' for Inactive)
REMARK    1  A    between atoms: C_1  and  C_2
REMARK    2  A    between atoms: C_2  and  N_3
REMARK    3  A    between atoms: C_2  and  C_18
REMARK    4  A    between atoms: N_3  and  C_4
REMARK    5  A    between atoms: C_4  and  C_5
REMARK    6  A    between atoms: C_10  and  C_11
REMARK    7  A    between atoms: C_11  and  N_12
REMARK                            x       y       z     vdW  Elec       q    Type
REMARK                         _______ _______ _______ _____ _____    ______ ____
ROOT
ATOM      1  C   UNL     1       1.951   9.712  17.779  0.00  0.00    +0.000 C 
ATOM      2  C   UNL     1       1.698   9.115  19.168  0.00  0.00    +0.000 C 
ENDROOT
BRANCH   2   3
ATOM      3  C   UNL     1       0.586   9.887  19.926  0.00  0.00    +0.000 C 
ATOM      4  O   UNL     1       0.554   9.709  21.161  0.00  0.00    +0.000 OA
ATOM      5  N   UNL     1      -0.115  10.977  19.374  0.00  0.00    +0.000 N 
ATOM      6  C   UNL     1      -0.301  12.053  20.374  0.00  0.00    +0.000 C 
ATOM      7  C   UNL     1      -1.019  13.232  19.785  0.00  0.00    +0.000 C 
ATOM      8  O   UNL     1      -0.568  14.367  19.709  0.00  0.00    +0.000 OA
ATOM      9  N   UNL     1      -2.282  12.890  19.362  0.00  0.00    +0.000 N 
ATOM     10  C   UNL     1      -2.387  11.687  18.625  0.00  0.00    +0.000 A 
ATOM     11  C   UNL     1      -3.584  11.517  17.926  0.00  0.00    +0.000 A 
ATOM     12  C   UNL     1      -3.645  10.546  16.932  0.00  0.00    +0.000 A 
ATOM     13  C   UNL     1      -2.530   9.751  16.695  0.00  0.00    +0.000 A 
ATOM     14  C   UNL     1      -1.369   9.868  17.483  0.00  0.00    +0.000 A 
ATOM     15  C   UNL     1      -1.271  10.823  18.488  0.00  0.00    +0.000 A 
ATOM     16  H   UNL     1      -3.034  13.021  20.035  0.00  0.00    +0.000 HD
ENDBRANCH   2   3
BRANCH   2  17
ATOM     17  N   UNL     1       1.585   7.645  19.108  0.00  0.00    +0.000 NA
ATOM     18  H   UNL     1       2.114   7.343  18.292  0.00  0.00    +0.000 HD
BRANCH  17  19
ATOM     19  C   UNL     1       2.154   6.959  20.292  0.00  0.00    +0.000 C 
BRANCH  19  20
ATOM     20  C   UNL     1       2.177   5.426  20.177  0.00  0.00    +0.000 A 
ATOM     21  C   UNL     1       1.016   4.671  20.450  0.00  0.00    +0.000 A 
ATOM     22  C   UNL     1       1.020   3.273  20.429  0.00  0.00    +0.000 A 
ATOM     23  C   UNL     1       2.184   2.584  20.137  0.00  0.00    +0.000 A 
ATOM     24  C   UNL     1       3.322   3.295  19.791  0.00  0.00    +0.000 A 
ATOM     25  C   UNL     1       3.326   4.711  19.740  0.00  0.00    +0.000 A 
BRANCH  25  26
ATOM     26  C   UNL     1       4.606   5.355  19.238  0.00  0.00    +0.000 C 
BRANCH  26  27
ATOM     27  N   UNL     1       5.252   4.610  18.115  0.00  0.00    +0.000 NA
ATOM     28  C   UNL     1       4.599   4.915  16.836  0.00  0.00    +0.000 C 
ATOM     29  C   UNL     1       5.369   4.411  15.618  0.00  0.00    +0.000 C 
ATOM     30  C   UNL     1       6.772   4.982  15.605  0.00  0.00    +0.000 C 
ATOM     31  C   UNL     1       7.507   4.562  16.873  0.00  0.00    +0.000 C 
ATOM     32  C   UNL     1       6.707   4.818  18.151  0.00  0.00    +0.000 C 
ENDBRANCH  26  27
ENDBRANCH  25  26
ENDBRANCH  19  20
ENDBRANCH  17  19
ENDBRANCH   2  17
TORSDOF 6
ENDMDL
MODEL 4
REMARK VINA RESULT:      -8.5      2.024      4.484
REMARK  Name = 
REMARK  7 active torsions:
REMARK  status: ('A' for Active; 'I' for Inactive)
REMARK    1  A    between atoms: C_1  and  C_2
REMARK    2  A    between atoms: C_2  and  N_3
REMARK    3  A    between atoms: C_2  and  C_18
REMARK    4  A    between atoms: N_3  and  C_4
REMARK    5  A    between atoms: C_4  and  C_5
REMARK    6  A    between atoms: C_10  and  C_11
REMARK    7  A    between atoms: C_11  and  N_12
REMARK                            x       y       z     vdW  Elec       q    Type
REMARK                         _______ _______ _______ _____ _____    ______ ____
ROOT
ATOM      1  C   UNL     1       1.495   9.060  18.569  0.00  0.00    +0.000 C 
ATOM      2  C   UNL     1       1.344   8.947  20.090  0.00  0.00    +0.000 C 
ENDROOT
BRANCH   2   3
ATOM      3  C   UNL     1       0.075   9.685  20.594  0.00  0.00    +0.000 C 
ATOM      4  O   UNL     1      -0.266   9.429  21.767  0.00  0.00    +0.000 OA
ATOM      5  N   UNL     1      -0.467  10.816  19.956  0.00  0.00    +0.000 N 
ATOM      6  C   UNL     1      -0.902  11.829  20.945  0.00  0.00    +0.000 C 
ATOM      7  C   UNL     1      -1.451  13.053  20.272  0.00  0.00    +0.000 C 
ATOM      8  O   UNL     1      -0.999  14.185  20.386  0.00  0.00    +0.000 OA
ATOM      9  N   UNL     1      -2.567  12.757  19.524  0.00  0.00    +0.000 N 
ATOM     10  C   UNL     1      -2.481  11.605  18.709  0.00  0.00    +0.000 A 
ATOM     11  C   UNL     1      -3.462  11.496  17.722  0.00  0.00    +0.000 A 
ATOM     12  C   UNL     1      -3.269  10.591  16.683  0.00  0.00    +0.000 A 
ATOM     13  C   UNL     1      -2.129   9.797  16.682  0.00  0.00    +0.000 A 
ATOM     14  C   UNL     1      -1.203   9.847  17.743  0.00  0.00    +0.000 A 
ATOM     15  C   UNL     1      -1.363  10.735  18.800  0.00  0.00    +0.000 A 
ATOM     16  H   UNL     1      -3.464  12.854  19.995  0.00  0.00    +0.000 HD
ENDBRANCH   2   3
BRANCH   2  17
ATOM     17  N   UNL     1       1.551   7.559  20.549  0.00  0.00    +0.000 NA
ATOM     18  H   UNL     1       0.635   7.115  20.560  0.00  0.00    +0.000 HD
BRANCH  17  19
ATOM     19  C   UNL     1       2.427   6.765  19.655  0.00  0.00    +0.000 C 
BRANCH  19  20
ATOM     20  C   UNL     1       2.126   5.257  19.663  0.00  0.00    +0.000 A 
ATOM     21  C   UNL     1       1.168   4.724  20.551  0.00  0.00    +0.000 A 
ATOM     22  C   UNL     1       0.922   3.350  20.638  0.00  0.00    +0.000 A 
ATOM     23  C   UNL     1       1.628   2.465  19.842  0.00  0.00    +0.000 A 
ATOM     24  C   UNL     1       2.522   2.961  18.907  0.00  0.00    +0.000 A 
ATOM     25  C   UNL     1       2.739   4.353  18.752  0.00  0.00    +0.000 A 
BRANCH  25  26
ATOM     26  C   UNL     1       3.659   4.760  17.616  0.00  0.00    +0.000 C 
BRANCH  26  27
ATOM     27  N   UNL     1       5.106   4.511  17.896  0.00  0.00    +0.000 NA
ATOM     28  C   UNL     1       5.928   4.792  16.713  0.00  0.00    +0.000 C 
ATOM     29  C   UNL     1       7.427   4.824  17.000  0.00  0.00    +0.000 C 
ATOM     30  C   UNL     1       7.738   5.847  18.073  0.00  0.00    +0.000 C 
ATOM     31  C   UNL     1       6.989   5.491  19.352  0.00  0.00    +0.000 C 
ATOM     32  C   UNL     1       5.503   5.210  19.126  0.00  0.00    +0.000 C 
ENDBRANCH  26  27
ENDBRANCH  25  26
ENDBRANCH  19  20
ENDBRANCH  17  19
ENDBRANCH   2  17
TORSDOF 6
ENDMDL
MODEL 5
REMARK VINA RESULT:      -8.4      1.998      4.348
REMARK  Name = 
REMARK  7 active torsions:
REMARK  status: ('A' for Active; 'I' for Inactive)
REMARK    1  A    between atoms: C_1  and  C_2
REMARK    2  A    between atoms: C_2  and  N_3
REMARK    3  A    between atoms: C_2  and  C_18
REMARK    4  A    between atoms: N_3  and  C_4
REMARK    5  A    between atoms: C_4  and  C_5
REMARK    6  A    between atoms: C_10  and  C_11
REMARK    7  A    between atoms: C_11  and  N_12
REMARK                            x       y       z     vdW  Elec       q    Type
REMARK                         _______ _______ _______ _____ _____    ______ ____
ROOT
ATOM      1  C   UNL     1       1.768   8.939  18.113  0.00  0.00    +0.000 C 
ATOM      2  C   UNL     1       1.668   8.862  19.641  0.00  0.00    +0.000 C 
ENDROOT
BRANCH   2   3
ATOM      3  C   UNL     1       0.893  10.075  20.223  0.00  0.00    +0.000 C 
ATOM      4  O   UNL     1       1.087  10.305  21.434  0.00  0.00    +0.000 OA
ATOM      5  N   UNL     1       0.300  11.070  19.424  0.00  0.00    +0.000 N 
ATOM      6  C   UNL     1       0.519  12.417  19.998  0.00  0.00    +0.000 C 
ATOM      7  C   UNL     1      -0.083  13.487  19.135  0.00  0.00    +0.000 C 
ATOM      8  O   UNL     1       0.537  14.400  18.606  0.00  0.00    +0.000 OA
ATOM      9  N   UNL     1      -1.447  13.341  19.033  0.00  0.00    +0.000 N 
ATOM     10  C   UNL     1      -1.915  12.029  18.787  0.00  0.00    +0.000 A 
ATOM     11  C   UNL     1      -3.241  11.939  18.359  0.00  0.00    +0.000 A 
ATOM     12  C   UNL     1      -3.680  10.748  17.787  0.00  0.00    +0.000 A 
ATOM     13  C   UNL     1      -2.799   9.678  17.696  0.00  0.00    +0.000 A 
ATOM     14  C   UNL     1      -1.497   9.756  18.229  0.00  0.00    +0.000 A 
ATOM     15  C   UNL     1      -1.024  10.926  18.812  0.00  0.00    +0.000 A 
ATOM     16  H   UNL     1      -2.007  13.851  19.713  0.00  0.00    +0.000 HD
ENDBRANCH   2   3
BRANCH   2  17
ATOM     17  N   UNL     1       1.258   7.516  20.086  0.00  0.00    +0.000 NA
ATOM     18  H   UNL     1       0.603   7.165  19.390  0.00  0.00    +0.000 HD
BRANCH  17  19
ATOM     19  C   UNL     1       2.382   6.553  20.172  0.00  0.00    +0.000 C 
BRANCH  19  20
ATOM     20  C   UNL     1       2.036   5.141  19.675  0.00  0.00    +0.000 A 
ATOM     21  C   UNL     1       1.066   4.365  20.345  0.00  0.00    +0.000 A 
ATOM     22  C   UNL     1       0.780   3.049  19.967  0.00  0.00    +0.000 A 
ATOM     23  C   UNL     1       1.455   2.466  18.909  0.00  0.00    +0.000 A 
ATOM     24  C   UNL     1       2.359   3.225  18.183  0.00  0.00    +0.000 A 
ATOM     25  C   UNL     1       2.617   4.581  18.504  0.00  0.00    +0.000 A 
BRANCH  25  26
ATOM     26  C   UNL     1       3.545   5.323  17.558  0.00  0.00    +0.000 C 
BRANCH  26  27
ATOM     27  N   UNL     1       4.729   4.522  17.127  0.00  0.00    +0.000 NA
ATOM     28  C   UNL     1       4.876   4.542  15.667  0.00  0.00    +0.000 C 
ATOM     29  C   UNL     1       6.207   3.980  15.175  0.00  0.00    +0.000 C 
ATOM     30  C   UNL     1       7.364   4.734  15.799  0.00  0.00    +0.000 C 
ATOM     31  C   UNL     1       7.295   4.610  17.318  0.00  0.00    +0.000 C 
ATOM     32  C   UNL     1       5.915   4.935  17.891  0.00  0.00    +0.000 C 
ENDBRANCH  26  27
ENDBRANCH  25  26
ENDBRANCH  19  20
ENDBRANCH  17  19
ENDBRANCH   2  17
TORSDOF 6
ENDMDL
MODEL 6
REMARK VINA RESULT:      -8.3      0.760      1.198
REMARK  Name = 
REMARK  7 active torsions:
REMARK  status: ('A' for Active; 'I' for Inactive)
REMARK    1  A    between atoms: C_1  and  C_2
REMARK    2  A    between atoms: C_2  and  N_3
REMARK    3  A    between atoms: C_2  and  C_18
REMARK    4  A    between atoms: N_3  and  C_4
REMARK    5  A    between atoms: C_4  and  C_5
REMARK    6  A    between atoms: C_10  and  C_11
REMARK    7  A    between atoms: C_11  and  N_12
REMARK                            x       y       z     vdW  Elec       q    Type
REMARK                         _______ _______ _______ _____ _____    ______ ____
ROOT
ATOM      1  C   UNL     1       2.077   7.323  20.085  0.00  0.00    +0.000 C 
ATOM      2  C   UNL     1       1.941   7.878  18.663  0.00  0.00    +0.000 C 
ENDROOT
BRANCH   2   3
ATOM      3  C   UNL     1       1.500   9.366  18.671  0.00  0.00    +0.000 C 
ATOM      4  O   UNL     1       2.220  10.144  18.011  0.00  0.00    +0.000 OA
ATOM      5  N   UNL     1       0.219   9.791  19.069  0.00  0.00    +0.000 N 
ATOM      6  C   UNL     1      -0.293  10.852  18.172  0.00  0.00    +0.000 C 
ATOM      7  C   UNL     1      -1.673  11.289  18.570  0.00  0.00    +0.000 C 
ATOM      8  O   UNL     1      -2.669  11.212  17.863  0.00  0.00    +0.000 OA
ATOM      9  N   UNL     1      -1.683  11.830  19.834  0.00  0.00    +0.000 N 
ATOM     10  C   UNL     1      -0.966  11.116  20.822  0.00  0.00    +0.000 A 
ATOM     11  C   UNL     1      -1.248  11.475  22.142  0.00  0.00    +0.000 A 
ATOM     12  C   UNL     1      -0.849  10.622  23.166  0.00  0.00    +0.000 A 
ATOM     13  C   UNL     1      -0.149   9.464  22.848  0.00  0.00    +0.000 A 
ATOM     14  C   UNL     1       0.217   9.175  21.518  0.00  0.00    +0.000 A 
ATOM     15  C   UNL     1      -0.159  10.004  20.468  0.00  0.00    +0.000 A 
ATOM     16  H   UNL     1      -1.561  12.839  19.894  0.00  0.00    +0.000 HD
ENDBRANCH   2   3
BRANCH   2  17
ATOM     17  N   UNL     1       3.107   7.519  17.832  0.00  0.00    +0.000 NA
ATOM     18  H   UNL     1       3.653   8.369  17.711  0.00  0.00    +0.000 HD
BRANCH  17  19
ATOM     19  C   UNL     1       3.988   6.503  18.456  0.00  0.00    +0.000 C 
BRANCH  19  20
ATOM     20  C   UNL     1       4.871   5.740  17.455  0.00  0.00    +0.000 A 
ATOM     21  C   UNL     1       6.141   6.240  17.096  0.00  0.00    +0.000 A 
ATOM     22  C   UNL     1       6.938   5.614  16.133  0.00  0.00    +0.000 A 
ATOM     23  C   UNL     1       6.492   4.470  15.496  0.00  0.00    +0.000 A 
ATOM     24  C   UNL     1       5.283   3.911  15.879  0.00  0.00    +0.000 A 
ATOM     25  C   UNL     1       4.487   4.489  16.899  0.00  0.00    +0.000 A 
BRANCH  25  26
ATOM     26  C   UNL     1       3.244   3.712  17.294  0.00  0.00    +0.000 C 
BRANCH  26  27
ATOM     27  N   UNL     1       2.819   3.937  18.708  0.00  0.00    +0.000 NA
ATOM     28  C   UNL     1       1.357   3.900  18.832  0.00  0.00    +0.000 C 
ATOM     29  C   UNL     1       0.863   3.848  20.275  0.00  0.00    +0.000 C 
ATOM     30  C   UNL     1       1.451   2.650  20.993  0.00  0.00    +0.000 C 
ATOM     31  C   UNL     1       2.972   2.745  20.985  0.00  0.00    +0.000 C 
ATOM     32  C   UNL     1       3.555   3.030  19.601  0.00  0.00    +0.000 C 
ENDBRANCH  26  27
ENDBRANCH  25  26
ENDBRANCH  19  20
ENDBRANCH  17  19
ENDBRANCH   2  17
TORSDOF 6
ENDMDL
MODEL 7
REMARK VINA RESULT:      -8.3      2.148      4.264
REMARK  Name = 
REMARK  7 active torsions:
REMARK  status: ('A' for Active; 'I' for Inactive)
REMARK    1  A    between atoms: C_1  and  C_2
REMARK    2  A    between atoms: C_2  and  N_3
REMARK    3  A    between atoms: C_2  and  C_18
REMARK    4  A    between atoms: N_3  and  C_4
REMARK    5  A    between atoms: C_4  and  C_5
REMARK    6  A    between atoms: C_10  and  C_11
REMARK    7  A    between atoms: C_11  and  N_12
REMARK                            x       y       z     vdW  Elec       q    Type
REMARK                         _______ _______ _______ _____ _____    ______ ____
ROOT
ATOM      1  C   UNL     1       2.003   9.001  17.948  0.00  0.00    +0.000 C 
ATOM      2  C   UNL     1       1.736   8.812  19.445  0.00  0.00    +0.000 C 
ENDROOT
BRANCH   2   3
ATOM      3  C   UNL     1       0.933  10.001  20.036  0.00  0.00    +0.000 C 
ATOM      4  O   UNL     1       1.087  10.199  21.259  0.00  0.00    +0.000 OA
ATOM      5  N   UNL     1       0.357  11.014  19.247  0.00  0.00    +0.000 N 
ATOM      6  C   UNL     1       0.547  12.346  19.865  0.00  0.00    +0.000 C 
ATOM      7  C   UNL     1      -0.037  13.436  19.014  0.00  0.00    +0.000 C 
ATOM      8  O   UNL     1       0.592  14.368  18.531  0.00  0.00    +0.000 OA
ATOM      9  N   UNL     1      -1.396  13.282  18.865  0.00  0.00    +0.000 N 
ATOM     10  C   UNL     1      -1.845  11.975  18.567  0.00  0.00    +0.000 A 
ATOM     11  C   UNL     1      -3.156  11.886  18.095  0.00  0.00    +0.000 A 
ATOM     12  C   UNL     1      -3.566  10.709  17.476  0.00  0.00    +0.000 A 
ATOM     13  C   UNL     1      -2.674   9.649  17.383  0.00  0.00    +0.000 A 
ATOM     14  C   UNL     1      -1.390   9.722  17.959  0.00  0.00    +0.000 A 
ATOM     15  C   UNL     1      -0.946  10.878  18.590  0.00  0.00    +0.000 A 
ATOM     16  H   UNL     1      -1.982  13.768  19.541  0.00  0.00    +0.000 HD
ENDBRANCH   2   3
BRANCH   2  17
ATOM     17  N   UNL     1       1.248   7.450  19.736  0.00  0.00    +0.000 NA
ATOM     18  H   UNL     1       0.772   7.124  18.897  0.00  0.00    +0.000 HD
BRANCH  17  19
ATOM     19  C   UNL     1       2.331   6.485  20.042  0.00  0.00    +0.000 C 
BRANCH  19  20
ATOM     20  C   UNL     1       2.048   5.053  19.561  0.00  0.00    +0.000 A 
ATOM     21  C   UNL     1       1.108   4.245  20.234  0.00  0.00    +0.000 A 
ATOM     22  C   UNL     1       0.880   2.914  19.871  0.00  0.00    +0.000 A 
ATOM     23  C   UNL     1       1.587   2.347  18.825  0.00  0.00    +0.000 A 
ATOM     24  C   UNL     1       2.463   3.135  18.096  0.00  0.00    +0.000 A 
ATOM     25  C   UNL     1       2.661   4.504  18.401  0.00  0.00    +0.000 A 
BRANCH  25  26
ATOM     26  C   UNL     1       3.562   5.273  17.452  0.00  0.00    +0.000 C 
BRANCH  26  27
ATOM     27  N   UNL     1       4.724   5.928  18.125  0.00  0.00    +0.000 NA
ATOM     28  C   UNL     1       5.562   4.937  18.811  0.00  0.00    +0.000 C 
ATOM     29  C   UNL     1       6.904   5.490  19.285  0.00  0.00    +0.000 C 
ATOM     30  C   UNL     1       7.678   6.072  18.120  0.00  0.00    +0.000 C 
ATOM     31  C   UNL     1       6.870   7.194  17.478  0.00  0.00    +0.000 C 
ATOM     32  C   UNL     1       5.424   6.802  17.174  0.00  0.00    +0.000 C 
ENDBRANCH  26  27
ENDBRANCH  25  26
ENDBRANCH  19  20
ENDBRANCH  17  19
ENDBRANCH   2  17
TORSDOF 6
ENDMDL
MODEL 8
REMARK VINA RESULT:      -8.3      1.238      3.676
REMARK  Name = 
REMARK  7 active torsions:
REMARK  status: ('A' for Active; 'I' for Inactive)
REMARK    1  A    between atoms: C_1  and  C_2
REMARK    2  A    between atoms: C_2  and  N_3
REMARK    3  A    between atoms: C_2  and  C_18
REMARK    4  A    between atoms: N_3  and  C_4
REMARK    5  A    between atoms: C_4  and  C_5
REMARK    6  A    between atoms: C_10  and  C_11
REMARK    7  A    between atoms: C_11  and  N_12
REMARK                            x       y       z     vdW  Elec       q    Type
REMARK                         _______ _______ _______ _____ _____    ______ ____
ROOT
ATOM      1  C   UNL     1       2.313   7.733  17.790  0.00  0.00    +0.000 C 
ATOM      2  C   UNL     1       1.953   8.417  19.113  0.00  0.00    +0.000 C 
ENDROOT
BRANCH   2   3
ATOM      3  C   UNL     1       1.294   9.802  18.878  0.00  0.00    +0.000 C 
ATOM      4  O   UNL     1       1.905  10.564  18.100  0.00  0.00    +0.000 OA
ATOM      5  N   UNL     1      -0.047  10.087  19.200  0.00  0.00    +0.000 N 
ATOM      6  C   UNL     1      -0.689  10.898  18.141  0.00  0.00    +0.000 C 
ATOM      7  C   UNL     1      -2.128  11.179  18.461  0.00  0.00    +0.000 C 
ATOM      8  O   UNL     1      -3.083  10.838  17.776  0.00  0.00    +0.000 OA
ATOM      9  N   UNL     1      -2.252  11.909  19.620  0.00  0.00    +0.000 N 
ATOM     10  C   UNL     1      -1.461  11.482  20.712  0.00  0.00    +0.000 A 
ATOM     11  C   UNL     1      -1.827  12.001  21.954  0.00  0.00    +0.000 A 
ATOM     12  C   UNL     1      -1.331  11.396  23.105  0.00  0.00    +0.000 A 
ATOM     13  C   UNL     1      -0.458  10.322  22.981  0.00  0.00    +0.000 A 
ATOM     14  C   UNL     1      -0.019   9.881  21.717  0.00  0.00    +0.000 A 
ATOM     15  C   UNL     1      -0.488  10.463  20.545  0.00  0.00    +0.000 A 
ATOM     16  H   UNL     1      -2.284  12.921  19.514  0.00  0.00    +0.000 HD
ENDBRANCH   2   3
BRANCH   2  17
ATOM     17  N   UNL     1       1.269   7.486  20.031  0.00  0.00    +0.000 NA
ATOM     18  H   UNL     1       0.659   6.905  19.459  0.00  0.00    +0.000 HD
BRANCH  17  19
ATOM     19  C   UNL     1       2.194   6.585  20.760  0.00  0.00    +0.000 C 
BRANCH  19  20
ATOM     20  C   UNL     1       2.131   5.119  20.301  0.00  0.00    +0.000 A 
ATOM     21  C   UNL     1       0.942   4.375  20.447  0.00  0.00    +0.000 A 
ATOM     22  C   UNL     1       0.870   3.020  20.111  0.00  0.00    +0.000 A 
ATOM     23  C   UNL     1       1.985   2.364  19.621  0.00  0.00    +0.000 A 
ATOM     24  C   UNL     1       3.148   3.084  19.395  0.00  0.00    +0.000 A 
ATOM     25  C   UNL     1       3.226   4.473  19.664  0.00  0.00    +0.000 A 
BRANCH  25  26
ATOM     26  C   UNL     1       4.522   5.156  19.264  0.00  0.00    +0.000 C 
BRANCH  26  27
ATOM     27  N   UNL     1       5.199   4.520  18.094  0.00  0.00    +0.000 NA
ATOM     28  C   UNL     1       4.600   4.968  16.831  0.00  0.00    +0.000 C 
ATOM     29  C   UNL     1       5.408   4.579  15.596  0.00  0.00    +0.000 C 
ATOM     30  C   UNL     1       6.819   5.123  15.694  0.00  0.00    +0.000 C 
ATOM     31  C   UNL     1       7.498   4.559  16.937  0.00  0.00    +0.000 C 
ATOM     32  C   UNL     1       6.654   4.696  18.204  0.00  0.00    +0.000 C 
ENDBRANCH  26  27
ENDBRANCH  25  26
ENDBRANCH  19  20
ENDBRANCH  17  19
ENDBRANCH   2  17
TORSDOF 6
ENDMDL
MODEL 9
REMARK VINA RESULT:      -8.3      1.966      4.414
REMARK  Name = 
REMARK  7 active torsions:
REMARK  status: ('A' for Active; 'I' for Inactive)
REMARK    1  A    between atoms: C_1  and  C_2
REMARK    2  A    between atoms: C_2  and  N_3
REMARK    3  A    between atoms: C_2  and  C_18
REMARK    4  A    between atoms: N_3  and  C_4
REMARK    5  A    between atoms: C_4  and  C_5
REMARK    6  A    between atoms: C_10  and  C_11
REMARK    7  A    between atoms: C_11  and  N_12
REMARK                            x       y       z     vdW  Elec       q    Type
REMARK                         _______ _______ _______ _____ _____    ______ ____
ROOT
ATOM      1  C   UNL     1       1.224   8.776  18.059  0.00  0.00    +0.000 C 
ATOM      2  C   UNL     1       1.385   8.964  19.571  0.00  0.00    +0.000 C 
ENDROOT
BRANCH   2   3
ATOM      3  C   UNL     1       0.122   9.608  20.203  0.00  0.00    +0.000 C 
ATOM      4  O   UNL     1      -0.134   9.255  21.373  0.00  0.00    +0.000 OA
ATOM      5  N   UNL     1      -0.504  10.757  19.684  0.00  0.00    +0.000 N 
ATOM      6  C   UNL     1      -0.915  11.677  20.768  0.00  0.00    +0.000 C 
ATOM      7  C   UNL     1      -1.554  12.920  20.222  0.00  0.00    +0.000 C 
ATOM      8  O   UNL     1      -1.141  14.060  20.391  0.00  0.00    +0.000 OA
ATOM      9  N   UNL     1      -2.702  12.628  19.523  0.00  0.00    +0.000 N 
ATOM     10  C   UNL     1      -2.622  11.542  18.621  0.00  0.00    +0.000 A 
ATOM     11  C   UNL     1      -3.659  11.460  17.690  0.00  0.00    +0.000 A 
ATOM     12  C   UNL     1      -3.497  10.640  16.578  0.00  0.00    +0.000 A 
ATOM     13  C   UNL     1      -2.328   9.899  16.450  0.00  0.00    +0.000 A 
ATOM     14  C   UNL     1      -1.340   9.915  17.454  0.00  0.00    +0.000 A 
ATOM     15  C   UNL     1      -1.468  10.718  18.581  0.00  0.00    +0.000 A 
ATOM     16  H   UNL     1      -3.571  12.653  20.052  0.00  0.00    +0.000 HD
ENDBRANCH   2   3
BRANCH   2  17
ATOM     17  N   UNL     1       1.919   7.746  20.210  0.00  0.00    +0.000 NA
ATOM     18  H   UNL     1       1.128   7.270  20.640  0.00  0.00    +0.000 HD
BRANCH  17  19
ATOM     19  C   UNL     1       2.547   6.803  19.255  0.00  0.00    +0.000 C 
BRANCH  19  20
ATOM     20  C   UNL     1       2.255   5.323  19.552  0.00  0.00    +0.000 A 
ATOM     21  C   UNL     1       1.500   4.958  20.687  0.00  0.00    +0.000 A 
ATOM     22  C   UNL     1       1.279   3.621  21.031  0.00  0.00    +0.000 A 
ATOM     23  C   UNL     1       1.807   2.605  20.252  0.00  0.00    +0.000 A 
ATOM     24  C   UNL     1       2.489   2.929  19.090  0.00  0.00    +0.000 A 
ATOM     25  C   UNL     1       2.668   4.275  18.685  0.00  0.00    +0.000 A 
BRANCH  25  26
ATOM     26  C   UNL     1       3.335   4.480  17.336  0.00  0.00    +0.000 C 
BRANCH  26  27
ATOM     27  N   UNL     1       4.687   5.108  17.424  0.00  0.00    +0.000 NA
ATOM     28  C   UNL     1       5.510   4.447  18.444  0.00  0.00    +0.000 C 
ATOM     29  C   UNL     1       6.982   4.850  18.402  0.00  0.00    +0.000 C 
ATOM     30  C   UNL     1       7.569   4.568  17.034  0.00  0.00    +0.000 C 
ATOM     31  C   UNL     1       6.802   5.355  15.976  0.00  0.00    +0.000 C 
ATOM     32  C   UNL     1       5.285   5.195  16.084  0.00  0.00    +0.000 C 
ENDBRANCH  26  27
ENDBRANCH  25  26
ENDBRANCH  19  20
ENDBRANCH  17  19
ENDBRANCH   2  17
TORSDOF 6
ENDMDL
