MODEL 1
REMARK VINA RESULT:      -7.1      0.000      0.000
REMARK  Name = 
REMARK  6 active torsions:
REMARK  status: ('A' for Active; 'I' for Inactive)
REMARK    1  A    between atoms: C_1  and  C_2
REMARK    2  A    between atoms: C_3  and  C_4
REMARK    3  A    between atoms: C_4  and  C_5
REMARK    4  A    between atoms: C_15  and  C_16
REMARK    5  A    between atoms: C_16  and  O_18
REMARK    6  A    between atoms: C_21  and  C_22
REMARK                            x       y       z     vdW  Elec       q    Type
REMARK                         _______ _______ _______ _____ _____    ______ ____
ROOT
ATOM      1  C   UNL     1       5.212   3.863  17.005  0.00  0.00    +0.000 C 
ATOM      2  C   UNL     1       4.326   4.779  17.835  0.00  0.00    +0.000 A 
ATOM      3  C   UNL     1       3.715   4.322  19.110  0.00  0.00    +0.000 A 
ATOM      4  C   UNL     1       2.927   5.201  19.793  0.00  0.00    +0.000 A 
ATOM      5 CL   UNL     1       2.185   4.717  21.287  0.00  0.00    +0.000 Cl
ATOM      6  N   UNL     1       2.707   6.506  19.290  0.00  0.00    +0.000 N 
ATOM      7  C   UNL     1       3.273   6.941  18.089  0.00  0.00    +0.000 A 
ATOM      8  N   UNL     1       2.942   8.179  17.799  0.00  0.00    +0.000 NA
ATOM      9  C   UNL     1       2.156   8.598  18.826  0.00  0.00    +0.000 A 
ATOM     10  C   UNL     1       1.572   9.863  19.003  0.00  0.00    +0.000 A 
ATOM     11  C   UNL     1       0.807  10.111  20.147  0.00  0.00    +0.000 A 
ATOM     12  C   UNL     1       0.610   9.101  21.092  0.00  0.00    +0.000 A 
ATOM     13  C   UNL     1       1.200   7.831  20.929  0.00  0.00    +0.000 A 
ATOM     14  C   UNL     1       1.977   7.594  19.779  0.00  0.00    +0.000 A 
ATOM     15  C   UNL     1       4.093   6.037  17.375  0.00  0.00    +0.000 A 
ENDROOT
BRANCH  12  16
ATOM     16  C   UNL     1      -0.176   9.338  22.333  0.00  0.00    +0.000 C 
ATOM     17  O   UNL     1      -0.978   8.528  22.766  0.00  0.00    +0.000 OA
BRANCH  16  18
ATOM     18  O   UNL     1       0.046  10.534  22.914  0.00  0.00    +0.000 OA
ATOM     19  H   UNL     1      -0.284  10.628  23.826  0.00  0.00    +0.000 HD
ENDBRANCH  16  18
ENDBRANCH  12  16
BRANCH  15  20
ATOM     20  C   UNL     1       4.716   6.461  16.056  0.00  0.00    +0.000 C 
ATOM     21  N   UNL     1       5.234   6.813  14.962  0.00  0.00    +0.000 NA
ENDBRANCH  15  20
BRANCH   3  22
ATOM     22  C   UNL     1       4.038   2.924  19.636  0.00  0.00    +0.000 C 
BRANCH  22  23
ATOM     23  C   UNL     1       3.242   1.774  19.011  0.00  0.00    +0.000 C 
ATOM     24 CL   UNL     1       1.515   2.138  18.796  0.00  0.00    +0.000 Cl
ENDBRANCH  22  23
ENDBRANCH   3  22
TORSDOF 5
ENDMDL
MODEL 2
REMARK VINA RESULT:      -7.0      2.764      4.126
REMARK  Name = 
REMARK  6 active torsions:
REMARK  status: ('A' for Active; 'I' for Inactive)
REMARK    1  A    between atoms: C_1  and  C_2
REMARK    2  A    between atoms: C_3  and  C_4
REMARK    3  A    between atoms: C_4  and  C_5
REMARK    4  A    between atoms: C_15  and  C_16
REMARK    5  A    between atoms: C_16  and  O_18
REMARK    6  A    between atoms: C_21  and  C_22
REMARK                            x       y       z     vdW  Elec       q    Type
REMARK                         _______ _______ _______ _____ _____    ______ ____
ROOT
ATOM      1  C   UNL     1       3.948   2.302  18.991  0.00  0.00    +0.000 C 
ATOM      2  C   UNL     1       3.520   3.761  18.971  0.00  0.00    +0.000 A 
ATOM      3  C   UNL     1       3.939   4.677  17.879  0.00  0.00    +0.000 A 
ATOM      4  C   UNL     1       3.520   5.974  17.936  0.00  0.00    +0.000 A 
ATOM      5 CL   UNL     1       3.984   7.089  16.688  0.00  0.00    +0.000 Cl
ATOM      6  N   UNL     1       2.710   6.418  19.009  0.00  0.00    +0.000 N 
ATOM      7  C   UNL     1       2.317   5.564  20.042  0.00  0.00    +0.000 A 
ATOM      8  N   UNL     1       1.574   6.172  20.940  0.00  0.00    +0.000 NA
ATOM      9  C   UNL     1       1.445   7.452  20.501  0.00  0.00    +0.000 A 
ATOM     10  C   UNL     1       0.717   8.496  21.094  0.00  0.00    +0.000 A 
ATOM     11  C   UNL     1       0.685   9.749  20.475  0.00  0.00    +0.000 A 
ATOM     12  C   UNL     1       1.392   9.963  19.288  0.00  0.00    +0.000 A 
ATOM     13  C   UNL     1       2.118   8.919  18.679  0.00  0.00    +0.000 A 
ATOM     14  C   UNL     1       2.135   7.658  19.305  0.00  0.00    +0.000 A 
ATOM     15  C   UNL     1       2.745   4.217  19.990  0.00  0.00    +0.000 A 
ENDROOT
BRANCH  12  16
ATOM     16  C   UNL     1       1.360  11.275  18.589  0.00  0.00    +0.000 C 
ATOM     17  O   UNL     1       0.485  12.102  18.786  0.00  0.00    +0.000 OA
BRANCH  16  18
ATOM     18  O   UNL     1       2.354  11.457  17.696  0.00  0.00    +0.000 OA
ATOM     19  H   UNL     1       2.420  10.784  16.995  0.00  0.00    +0.000 HD
ENDBRANCH  16  18
ENDBRANCH  12  16
BRANCH  15  20
ATOM     20  C   UNL     1       2.355   3.256  21.100  0.00  0.00    +0.000 C 
ATOM     21  N   UNL     1       2.031   2.459  22.022  0.00  0.00    +0.000 NA
ENDBRANCH  15  20
BRANCH   3  22
ATOM     22  C   UNL     1       4.761   4.128  16.714  0.00  0.00    +0.000 C 
BRANCH  22  23
ATOM     23  C   UNL     1       6.264   4.425  16.758  0.00  0.00    +0.000 C 
ATOM     24 CL   UNL     1       6.965   4.784  15.164  0.00  0.00    +0.000 Cl
ENDBRANCH  22  23
ENDBRANCH   3  22
TORSDOF 5
ENDMDL
MODEL 3
REMARK VINA RESULT:      -6.6      0.973      1.182
REMARK  Name = 
REMARK  6 active torsions:
REMARK  status: ('A' for Active; 'I' for Inactive)
REMARK    1  A    between atoms: C_1  and  C_2
REMARK    2  A    between atoms: C_3  and  C_4
REMARK    3  A    between atoms: C_4  and  C_5
REMARK    4  A    between atoms: C_15  and  C_16
REMARK    5  A    between atoms: C_16  and  O_18
REMARK    6  A    between atoms: C_21  and  C_22
REMARK                            x       y       z     vdW  Elec       q    Type
REMARK                         _______ _______ _______ _____ _____    ______ ____
ROOT
ATOM      1  C   UNL     1       4.969   3.709  17.499  0.00  0.00    +0.000 C 
ATOM      2  C   UNL     1       4.105   4.839  18.038  0.00  0.00    +0.000 A 
ATOM      3  C   UNL     1       3.260   4.661  19.247  0.00  0.00    +0.000 A 
ATOM      4  C   UNL     1       2.508   5.720  19.663  0.00  0.00    +0.000 A 
ATOM      5 CL   UNL     1       1.500   5.565  21.069  0.00  0.00    +0.000 Cl
ATOM      6  N   UNL     1       2.543   6.946  18.955  0.00  0.00    +0.000 N 
ATOM      7  C   UNL     1       3.330   7.118  17.815  0.00  0.00    +0.000 A 
ATOM      8  N   UNL     1       3.216   8.325  17.305  0.00  0.00    +0.000 NA
ATOM      9  C   UNL     1       2.355   8.986  18.122  0.00  0.00    +0.000 A 
ATOM     10  C   UNL     1       1.928  10.321  18.024  0.00  0.00    +0.000 A 
ATOM     11  C   UNL     1       1.047  10.832  18.982  0.00  0.00    +0.000 A 
ATOM     12  C   UNL     1       0.580  10.013  20.014  0.00  0.00    +0.000 A 
ATOM     13  C   UNL     1       1.009   8.674  20.126  0.00  0.00    +0.000 A 
ATOM     14  C   UNL     1       1.904   8.172  19.163  0.00  0.00    +0.000 A 
ATOM     15  C   UNL     1       4.115   6.026  17.377  0.00  0.00    +0.000 A 
ENDROOT
BRANCH  12  16
ATOM     16  C   UNL     1      -0.337  10.530  21.064  0.00  0.00    +0.000 C 
ATOM     17  O   UNL     1      -0.986  11.553  20.922  0.00  0.00    +0.000 OA
BRANCH  16  18
ATOM     18  O   UNL     1      -0.362   9.797  22.195  0.00  0.00    +0.000 OA
ATOM     19  H   UNL     1      -1.245   9.629  22.570  0.00  0.00    +0.000 HD
ENDBRANCH  16  18
ENDBRANCH  12  16
BRANCH  15  20
ATOM     20  C   UNL     1       4.974   6.164  16.131  0.00  0.00    +0.000 C 
ATOM     21  N   UNL     1       5.687   6.278  15.097  0.00  0.00    +0.000 NA
ENDBRANCH  15  20
BRANCH   3  22
ATOM     22  C   UNL     1       3.310   3.337  20.008  0.00  0.00    +0.000 C 
BRANCH  22  23
ATOM     23  C   UNL     1       2.249   2.302  19.619  0.00  0.00    +0.000 C 
ATOM     24 CL   UNL     1       1.126   2.872  18.363  0.00  0.00    +0.000 Cl
ENDBRANCH  22  23
ENDBRANCH   3  22
TORSDOF 5
ENDMDL
MODEL 4
REMARK VINA RESULT:      -6.0      2.582      4.040
REMARK  Name = 
REMARK  6 active torsions:
REMARK  status: ('A' for Active; 'I' for Inactive)
REMARK    1  A    between atoms: C_1  and  C_2
REMARK    2  A    between atoms: C_3  and  C_4
REMARK    3  A    between atoms: C_4  and  C_5
REMARK    4  A    between atoms: C_15  and  C_16
REMARK    5  A    between atoms: C_16  and  O_18
REMARK    6  A    between atoms: C_21  and  C_22
REMARK                            x       y       z     vdW  Elec       q    Type
REMARK                         _______ _______ _______ _____ _____    ______ ____
ROOT
ATOM      1  C   UNL     1       4.249   3.181  18.974  0.00  0.00    +0.000 C 
ATOM      2  C   UNL     1       3.615   4.558  19.089  0.00  0.00    +0.000 A 
ATOM      3  C   UNL     1       3.877   5.620  18.084  0.00  0.00    +0.000 A 
ATOM      4  C   UNL     1       3.275   6.832  18.262  0.00  0.00    +0.000 A 
ATOM      5 CL   UNL     1       3.550   8.110  17.119  0.00  0.00    +0.000 Cl
ATOM      6  N   UNL     1       2.429   7.055  19.375  0.00  0.00    +0.000 N 
ATOM      7  C   UNL     1       2.182   6.063  20.327  0.00  0.00    +0.000 A 
ATOM      8  N   UNL     1       1.376   6.473  21.280  0.00  0.00    +0.000 NA
ATOM      9  C   UNL     1       1.055   7.755  20.961  0.00  0.00    +0.000 A 
ATOM     10  C   UNL     1       0.194   8.624  21.652  0.00  0.00    +0.000 A 
ATOM     11  C   UNL     1      -0.029   9.910  21.150  0.00  0.00    +0.000 A 
ATOM     12  C   UNL     1       0.617  10.330  19.984  0.00  0.00    +0.000 A 
ATOM     13  C   UNL     1       1.476   9.462  19.279  0.00  0.00    +0.000 A 
ATOM     14  C   UNL     1       1.686   8.166  19.787  0.00  0.00    +0.000 A 
ATOM     15  C   UNL     1       2.800   4.803  20.150  0.00  0.00    +0.000 A 
ENDROOT
BRANCH  12  16
ATOM     16  C   UNL     1       0.383  11.681  19.409  0.00  0.00    +0.000 C 
ATOM     17  O   UNL     1       0.865  12.033  18.345  0.00  0.00    +0.000 OA
BRANCH  16  18
ATOM     18  O   UNL     1      -0.372  12.492  20.176  0.00  0.00    +0.000 OA
ATOM     19  H   UNL     1       0.088  12.915  20.923  0.00  0.00    +0.000 HD
ENDBRANCH  16  18
ENDBRANCH  12  16
BRANCH  15  20
ATOM     20  C   UNL     1       2.574   3.700  21.169  0.00  0.00    +0.000 C 
ATOM     21  N   UNL     1       2.385   2.784  22.016  0.00  0.00    +0.000 NA
ENDBRANCH  15  20
BRANCH   3  22
ATOM     22  C   UNL     1       4.748   5.304  16.870  0.00  0.00    +0.000 C 
BRANCH  22  23
ATOM     23  C   UNL     1       6.261   5.419  17.085  0.00  0.00    +0.000 C 
ATOM     24 CL   UNL     1       6.778   7.020  17.662  0.00  0.00    +0.000 Cl
ENDBRANCH  22  23
ENDBRANCH   3  22
TORSDOF 5
ENDMDL
MODEL 5
REMARK VINA RESULT:      -6.0      1.455      1.817
REMARK  Name = 
REMARK  6 active torsions:
REMARK  status: ('A' for Active; 'I' for Inactive)
REMARK    1  A    between atoms: C_1  and  C_2
REMARK    2  A    between atoms: C_3  and  C_4
REMARK    3  A    between atoms: C_4  and  C_5
REMARK    4  A    between atoms: C_15  and  C_16
REMARK    5  A    between atoms: C_16  and  O_18
REMARK    6  A    between atoms: C_21  and  C_22
REMARK                            x       y       z     vdW  Elec       q    Type
REMARK                         _______ _______ _______ _____ _____    ______ ____
ROOT
ATOM      1  C   UNL     1       4.422   4.192  18.009  0.00  0.00    +0.000 C 
ATOM      2  C   UNL     1       3.616   5.411  18.428  0.00  0.00    +0.000 A 
ATOM      3  C   UNL     1       2.717   5.379  19.610  0.00  0.00    +0.000 A 
ATOM      4  C   UNL     1       2.023   6.513  19.917  0.00  0.00    +0.000 A 
ATOM      5 CL   UNL     1       0.955   6.529  21.287  0.00  0.00    +0.000 Cl
ATOM      6  N   UNL     1       2.165   7.677  19.123  0.00  0.00    +0.000 N 
ATOM      7  C   UNL     1       3.004   7.712  18.007  0.00  0.00    +0.000 A 
ATOM      8  N   UNL     1       2.989   8.882  17.407  0.00  0.00    +0.000 NA
ATOM      9  C   UNL     1       2.144   9.657  18.137  0.00  0.00    +0.000 A 
ATOM     10  C   UNL     1       1.811  11.005  17.924  0.00  0.00    +0.000 A 
ATOM     11  C   UNL     1       0.932  11.642  18.805  0.00  0.00    +0.000 A 
ATOM     12  C   UNL     1       0.373  10.933  19.873  0.00  0.00    +0.000 A 
ATOM     13  C   UNL     1       0.707   9.583  20.100  0.00  0.00    +0.000 A 
ATOM     14  C   UNL     1       1.602   8.953  19.214  0.00  0.00    +0.000 A 
ATOM     15  C   UNL     1       3.729   6.543  17.683  0.00  0.00    +0.000 A 
ENDROOT
BRANCH  12  16
ATOM     16  C   UNL     1      -0.545  11.586  20.843  0.00  0.00    +0.000 C 
ATOM     17  O   UNL     1      -0.936  11.027  21.855  0.00  0.00    +0.000 OA
BRANCH  16  18
ATOM     18  O   UNL     1      -0.937  12.828  20.494  0.00  0.00    +0.000 OA
ATOM     19  H   UNL     1      -1.893  13.002  20.559  0.00  0.00    +0.000 HD
ENDBRANCH  16  18
ENDBRANCH  12  16
BRANCH  15  20
ATOM     20  C   UNL     1       4.641   6.531  16.467  0.00  0.00    +0.000 C 
ATOM     21  N   UNL     1       5.398   6.521  15.459  0.00  0.00    +0.000 NA
ENDBRANCH  15  20
BRANCH   3  22
ATOM     22  C   UNL     1       2.651   4.116  20.467  0.00  0.00    +0.000 C 
BRANCH  22  23
ATOM     23  C   UNL     1       1.320   3.358  20.437  0.00  0.00    +0.000 C 
ATOM     24 CL   UNL     1       0.863   2.786  18.817  0.00  0.00    +0.000 Cl
ENDBRANCH  22  23
ENDBRANCH   3  22
TORSDOF 5
ENDMDL
MODEL 6
REMARK VINA RESULT:      -6.0      4.453      5.716
REMARK  Name = 
REMARK  6 active torsions:
REMARK  status: ('A' for Active; 'I' for Inactive)
REMARK    1  A    between atoms: C_1  and  C_2
REMARK    2  A    between atoms: C_3  and  C_4
REMARK    3  A    between atoms: C_4  and  C_5
REMARK    4  A    between atoms: C_15  and  C_16
REMARK    5  A    between atoms: C_16  and  O_18
REMARK    6  A    between atoms: C_21  and  C_22
REMARK                            x       y       z     vdW  Elec       q    Type
REMARK                         _______ _______ _______ _____ _____    ______ ____
ROOT
ATOM      1  C   UNL     1       7.495   5.705  14.557  0.00  0.00    +0.000 C 
ATOM      2  C   UNL     1       6.573   5.233  15.670  0.00  0.00    +0.000 A 
ATOM      3  C   UNL     1       6.747   5.694  17.071  0.00  0.00    +0.000 A 
ATOM      4  C   UNL     1       5.882   5.219  18.013  0.00  0.00    +0.000 A 
ATOM      5 CL   UNL     1       6.043   5.723  19.668  0.00  0.00    +0.000 Cl
ATOM      6  N   UNL     1       4.855   4.314  17.651  0.00  0.00    +0.000 N 
ATOM      7  C   UNL     1       4.688   3.872  16.337  0.00  0.00    +0.000 A 
ATOM      8  N   UNL     1       3.683   3.035  16.214  0.00  0.00    +0.000 NA
ATOM      9  C   UNL     1       3.147   2.922  17.458  0.00  0.00    +0.000 A 
ATOM     10  C   UNL     1       2.029   2.165  17.849  0.00  0.00    +0.000 A 
ATOM     11  C   UNL     1       1.613   2.195  19.183  0.00  0.00    +0.000 A 
ATOM     12  C   UNL     1       2.319   2.954  20.121  0.00  0.00    +0.000 A 
ATOM     13  C   UNL     1       3.436   3.724  19.738  0.00  0.00    +0.000 A 
ATOM     14  C   UNL     1       3.841   3.696  18.389  0.00  0.00    +0.000 A 
ATOM     15  C   UNL     1       5.579   4.361  15.353  0.00  0.00    +0.000 A 
ENDROOT
BRANCH  12  16
ATOM     16  C   UNL     1       1.890   3.029  21.543  0.00  0.00    +0.000 C 
ATOM     17  O   UNL     1       2.595   3.506  22.417  0.00  0.00    +0.000 OA
BRANCH  16  18
ATOM     18  O   UNL     1       0.677   2.494  21.789  0.00  0.00    +0.000 OA
ATOM     19  H   UNL     1       0.649   1.817  22.489  0.00  0.00    +0.000 HD
ENDBRANCH  16  18
ENDBRANCH  12  16
BRANCH  15  20
ATOM     20  C   UNL     1       5.445   3.894  13.914  0.00  0.00    +0.000 C 
ATOM     21  N   UNL     1       5.335   3.506  12.719  0.00  0.00    +0.000 NA
ENDBRANCH  15  20
BRANCH   3  22
ATOM     22  C   UNL     1       7.833   6.719  17.393  0.00  0.00    +0.000 C 
BRANCH  22  23
ATOM     23  C   UNL     1       7.361   8.170  17.532  0.00  0.00    +0.000 C 
ATOM     24 CL   UNL     1       8.533   9.224  18.356  0.00  0.00    +0.000 Cl
ENDBRANCH  22  23
ENDBRANCH   3  22
TORSDOF 5
ENDMDL
MODEL 7
REMARK VINA RESULT:      -6.0      0.987      1.223
REMARK  Name = 
REMARK  6 active torsions:
REMARK  status: ('A' for Active; 'I' for Inactive)
REMARK    1  A    between atoms: C_1  and  C_2
REMARK    2  A    between atoms: C_3  and  C_4
REMARK    3  A    between atoms: C_4  and  C_5
REMARK    4  A    between atoms: C_15  and  C_16
REMARK    5  A    between atoms: C_16  and  O_18
REMARK    6  A    between atoms: C_21  and  C_22
REMARK                            x       y       z     vdW  Elec       q    Type
REMARK                         _______ _______ _______ _____ _____    ______ ____
ROOT
ATOM      1  C   UNL     1       4.822   3.638  17.020  0.00  0.00    +0.000 C 
ATOM      2  C   UNL     1       3.968   4.620  17.806  0.00  0.00    +0.000 A 
ATOM      3  C   UNL     1       3.166   4.186  18.978  0.00  0.00    +0.000 A 
ATOM      4  C   UNL     1       2.420   5.127  19.627  0.00  0.00    +0.000 A 
ATOM      5 CL   UNL     1       1.460   4.672  21.001  0.00  0.00    +0.000 Cl
ATOM      6  N   UNL     1       2.421   6.471  19.184  0.00  0.00    +0.000 N 
ATOM      7  C   UNL     1       3.168   6.886  18.080  0.00  0.00    +0.000 A 
ATOM      8  N   UNL     1       3.028   8.169  17.833  0.00  0.00    +0.000 NA
ATOM      9  C   UNL     1       2.189   8.637  18.794  0.00  0.00    +0.000 A 
ATOM     10  C   UNL     1       1.748   9.957  18.986  0.00  0.00    +0.000 A 
ATOM     11  C   UNL     1       0.896  10.248  20.056  0.00  0.00    +0.000 A 
ATOM     12  C   UNL     1       0.470   9.227  20.910  0.00  0.00    +0.000 A 
ATOM     13  C   UNL     1       0.913   7.901  20.732  0.00  0.00    +0.000 A 
ATOM     14  C   UNL     1       1.780   7.620  19.659  0.00  0.00    +0.000 A 
ATOM     15  C   UNL     1       3.946   5.918  17.403  0.00  0.00    +0.000 A 
ENDROOT
BRANCH  12  16
ATOM     16  C   UNL     1      -0.416   9.505  22.072  0.00  0.00    +0.000 C 
ATOM     17  O   UNL     1      -0.695  10.638  22.428  0.00  0.00    +0.000 OA
BRANCH  16  18
ATOM     18  O   UNL     1      -0.851   8.405  22.719  0.00  0.00    +0.000 OA
ATOM     19  H   UNL     1      -0.712   7.560  22.254  0.00  0.00    +0.000 HD
ENDBRANCH  16  18
ENDBRANCH  12  16
BRANCH  15  20
ATOM     20  C   UNL     1       4.762   6.321  16.186  0.00  0.00    +0.000 C 
ATOM     21  N   UNL     1       5.440   6.655  15.176  0.00  0.00    +0.000 NA
ENDBRANCH  15  20
BRANCH   3  22
ATOM     22  C   UNL     1       3.252   2.735  19.449  0.00  0.00    +0.000 C 
BRANCH  22  23
ATOM     23  C   UNL     1       4.234   2.462  20.593  0.00  0.00    +0.000 C 
ATOM     24 CL   UNL     1       5.187   0.977  20.374  0.00  0.00    +0.000 Cl
ENDBRANCH  22  23
ENDBRANCH   3  22
TORSDOF 5
ENDMDL
MODEL 8
REMARK VINA RESULT:      -5.7      4.164      7.702
REMARK  Name = 
REMARK  6 active torsions:
REMARK  status: ('A' for Active; 'I' for Inactive)
REMARK    1  A    between atoms: C_1  and  C_2
REMARK    2  A    between atoms: C_3  and  C_4
REMARK    3  A    between atoms: C_4  and  C_5
REMARK    4  A    between atoms: C_15  and  C_16
REMARK    5  A    between atoms: C_16  and  O_18
REMARK    6  A    between atoms: C_21  and  C_22
REMARK                            x       y       z     vdW  Elec       q    Type
REMARK                         _______ _______ _______ _____ _____    ______ ____
ROOT
ATOM      1  C   UNL     1      -1.549  14.180  21.470  0.00  0.00    +0.000 C 
ATOM      2  C   UNL     1      -0.874  12.841  21.216  0.00  0.00    +0.000 A 
ATOM      3  C   UNL     1      -0.882  11.762  22.238  0.00  0.00    +0.000 A 
ATOM      4  C   UNL     1      -0.248  10.592  21.937  0.00  0.00    +0.000 A 
ATOM      5 CL   UNL     1      -0.223   9.299  23.096  0.00  0.00    +0.000 Cl
ATOM      6  N   UNL     1       0.391  10.425  20.685  0.00  0.00    +0.000 N 
ATOM      7  C   UNL     1       0.407  11.436  19.722  0.00  0.00    +0.000 A 
ATOM      8  N   UNL     1       1.056  11.083  18.635  0.00  0.00    +0.000 NA
ATOM      9  C   UNL     1       1.469   9.807  18.854  0.00  0.00    +0.000 A 
ATOM     10  C   UNL     1       2.180   8.969  17.979  0.00  0.00    +0.000 A 
ATOM     11  C   UNL     1       2.498   7.668  18.381  0.00  0.00    +0.000 A 
ATOM     12  C   UNL     1       2.130   7.217  19.652  0.00  0.00    +0.000 A 
ATOM     13  C   UNL     1       1.409   8.047  20.534  0.00  0.00    +0.000 A 
ATOM     14  C   UNL     1       1.084   9.352  20.116  0.00  0.00    +0.000 A 
ATOM     15  C   UNL     1      -0.249  12.652  20.024  0.00  0.00    +0.000 A 
ENDROOT
BRANCH  12  16
ATOM     16  C   UNL     1       2.430   5.832  20.102  0.00  0.00    +0.000 C 
ATOM     17  O   UNL     1       1.575   5.091  20.558  0.00  0.00    +0.000 OA
BRANCH  16  18
ATOM     18  O   UNL     1       3.727   5.479  19.999  0.00  0.00    +0.000 OA
ATOM     19  H   UNL     1       3.943   4.877  19.265  0.00  0.00    +0.000 HD
ENDBRANCH  16  18
ENDBRANCH  12  16
BRANCH  15  20
ATOM     20  C   UNL     1      -0.243  13.787  19.013  0.00  0.00    +0.000 C 
ATOM     21  N   UNL     1      -0.237  14.728  18.174  0.00  0.00    +0.000 NA
ENDBRANCH  15  20
BRANCH   3  22
ATOM     22  C   UNL     1      -1.641  11.974  23.546  0.00  0.00    +0.000 C 
BRANCH  22  23
ATOM     23  C   UNL     1      -3.169  12.000  23.434  0.00  0.00    +0.000 C 
ATOM     24 CL   UNL     1      -3.938  13.233  24.460  0.00  0.00    +0.000 Cl
ENDBRANCH  22  23
ENDBRANCH   3  22
TORSDOF 5
ENDMDL
MODEL 9
REMARK VINA RESULT:      -5.6      2.911      4.278
REMARK  Name = 
REMARK  6 active torsions:
REMARK  status: ('A' for Active; 'I' for Inactive)
REMARK    1  A    between atoms: C_1  and  C_2
REMARK    2  A    between atoms: C_3  and  C_4
REMARK    3  A    between atoms: C_4  and  C_5
REMARK    4  A    between atoms: C_15  and  C_16
REMARK    5  A    between atoms: C_16  and  O_18
REMARK    6  A    between atoms: C_21  and  C_22
REMARK                            x       y       z     vdW  Elec       q    Type
REMARK                         _______ _______ _______ _____ _____    ______ ____
ROOT
ATOM      1  C   UNL     1       3.545   4.565  18.587  0.00  0.00    +0.000 C 
ATOM      2  C   UNL     1       2.887   5.875  18.991  0.00  0.00    +0.000 A 
ATOM      3  C   UNL     1       3.003   7.093  18.149  0.00  0.00    +0.000 A 
ATOM      4  C   UNL     1       2.389   8.232  18.584  0.00  0.00    +0.000 A 
ATOM      5 CL   UNL     1       2.496   9.686  17.640  0.00  0.00    +0.000 Cl
ATOM      6  N   UNL     1       1.668   8.236  19.802  0.00  0.00    +0.000 N 
ATOM      7  C   UNL     1       1.560   7.096  20.601  0.00  0.00    +0.000 A 
ATOM      8  N   UNL     1       0.855   7.312  21.689  0.00  0.00    +0.000 NA
ATOM      9  C   UNL     1       0.462   8.612  21.618  0.00  0.00    +0.000 A 
ATOM     10  C   UNL     1      -0.341   9.320  22.528  0.00  0.00    +0.000 A 
ATOM     11  C   UNL     1      -0.657  10.656  22.267  0.00  0.00    +0.000 A 
ATOM     12  C   UNL     1      -0.159  11.285  21.123  0.00  0.00    +0.000 A 
ATOM     13  C   UNL     1       0.640  10.581  20.199  0.00  0.00    +0.000 A 
ATOM     14  C   UNL     1       0.944   9.232  20.465  0.00  0.00    +0.000 A 
ATOM     15  C   UNL     1       2.191   5.911  20.158  0.00  0.00    +0.000 A 
ENDROOT
BRANCH  12  16
ATOM     16  C   UNL     1      -0.497  12.697  20.802  0.00  0.00    +0.000 C 
ATOM     17  O   UNL     1      -1.059  13.019  19.768  0.00  0.00    +0.000 OA
BRANCH  16  18
ATOM     18  O   UNL     1      -0.097  13.592  21.728  0.00  0.00    +0.000 OA
ATOM     19  H   UNL     1       0.400  14.358  21.389  0.00  0.00    +0.000 HD
ENDBRANCH  16  18
ENDBRANCH  12  16
BRANCH  15  20
ATOM     20  C   UNL     1       2.114   4.651  21.003  0.00  0.00    +0.000 C 
ATOM     21  N   UNL     1       2.049   3.606  21.706  0.00  0.00    +0.000 NA
ENDBRANCH  15  20
BRANCH   3  22
ATOM     22  C   UNL     1       3.740   7.014  16.813  0.00  0.00    +0.000 C 
BRANCH  22  23
ATOM     23  C   UNL     1       5.267   6.921  16.898  0.00  0.00    +0.000 C 
ATOM     24 CL   UNL     1       5.967   5.696  15.815  0.00  0.00    +0.000 Cl
ENDBRANCH  22  23
ENDBRANCH   3  22
TORSDOF 5
ENDMDL
