MODEL 1
REMARK VINA RESULT:      -7.4      0.000      0.000
REMARK  Name = 
REMARK  7 active torsions:
REMARK  status: ('A' for Active; 'I' for Inactive)
REMARK    1  A    between atoms: C_1  and  C_2
REMARK    2  A    between atoms: N_5  and  S_6
REMARK    3  A    between atoms: S_6  and  C_9
REMARK    4  A    between atoms: C_10  and  C_11
REMARK    5  A    between atoms: C_12  and  C_13
REMARK    6  A    between atoms: C_16  and  C_17
REMARK    7  A    between atoms: C_18  and  C_19
REMARK                            x       y       z     vdW  Elec       q    Type
REMARK                         _______ _______ _______ _____ _____    ______ ____
ROOT
ATOM      1  C   UNL     1      -5.224  12.399  20.360  0.00  0.00    +0.000 A 
ATOM      2  C   UNL     1      -6.406  12.298  21.169  0.00  0.00    +0.000 A 
ATOM      3  C   UNL     1      -7.736  11.837  20.609  0.00  0.00    +0.000 C 
ATOM      4  C   UNL     1      -6.360  12.642  22.541  0.00  0.00    +0.000 A 
ATOM      5  C   UNL     1      -7.542  12.562  23.478  0.00  0.00    +0.000 C 
ATOM      6  C   UNL     1      -5.161  13.097  23.112  0.00  0.00    +0.000 A 
ATOM      7  C   UNL     1      -4.006  13.219  22.328  0.00  0.00    +0.000 A 
ATOM      8  C   UNL     1      -2.679  13.653  22.600  0.00  0.00    +0.000 A 
ATOM      9  C   UNL     1      -2.165  14.142  23.909  0.00  0.00    +0.000 C 
ATOM     10  C   UNL     1      -1.966  13.493  21.421  0.00  0.00    +0.000 A 
ATOM     11  O   UNL     1      -2.824  13.074  20.430  0.00  0.00    +0.000 OA
ATOM     12  C   UNL     1      -4.062  12.870  20.986  0.00  0.00    +0.000 A 
ENDROOT
BRANCH  10  13
ATOM     13  C   UNL     1      -0.558  13.784  21.156  0.00  0.00    +0.000 C 
ATOM     14  O   UNL     1      -0.074  14.853  21.536  0.00  0.00    +0.000 OA
ATOM     15  N   UNL     1       0.262  12.844  20.518  0.00  0.00    +0.000 N 
ATOM     16  C   UNL     1       1.689  13.145  20.374  0.00  0.00    +0.000 C 
ATOM     17  C   UNL     1       2.184  12.815  18.968  0.00  0.00    +0.000 C 
ATOM     18  C   UNL     1       1.816  11.392  18.563  0.00  0.00    +0.000 C 
ATOM     19  C   UNL     1       0.327  11.133  18.775  0.00  0.00    +0.000 C 
ATOM     20  C   UNL     1      -0.087  11.459  20.208  0.00  0.00    +0.000 C 
ENDBRANCH  10  13
BRANCH   1  21
ATOM     21  S   UNL     1      -5.306  11.930  18.648  0.00  0.00    +0.000 S 
ATOM     22  O   UNL     1      -6.043  12.976  17.966  0.00  0.00    +0.000 OA
ATOM     23  O   UNL     1      -5.742  10.550  18.595  0.00  0.00    +0.000 OA
BRANCH  21  28
ATOM     24  C   UNL     1      -3.047   9.750  13.623  0.00  0.00    +0.000 C 
ATOM     25  C   UNL     1      -3.152  10.244  15.008  0.00  0.00    +0.000 A 
ATOM     26  C   UNL     1      -3.685  11.361  15.607  0.00  0.00    +0.000 A 
ATOM     27  C   UNL     1      -3.443  11.160  16.983  0.00  0.00    +0.000 A 
ATOM     28  N   UNL     1      -3.738  12.040  18.024  0.00  0.00    +0.000 N 
ATOM     29  N   UNL     1      -2.808  10.007  17.206  0.00  0.00    +0.000 NA
ATOM     30  O   UNL     1      -2.614   9.439  15.963  0.00  0.00    +0.000 OA
ATOM     31  H   UNL     1      -3.629  13.018  17.759  0.00  0.00    +0.000 HD
ENDBRANCH  21  28
ENDBRANCH   1  21
TORSDOF 3
ENDMDL
MODEL 2
REMARK VINA RESULT:      -7.3      1.289      1.664
REMARK  Name = 
REMARK  7 active torsions:
REMARK  status: ('A' for Active; 'I' for Inactive)
REMARK    1  A    between atoms: C_1  and  C_2
REMARK    2  A    between atoms: N_5  and  S_6
REMARK    3  A    between atoms: S_6  and  C_9
REMARK    4  A    between atoms: C_10  and  C_11
REMARK    5  A    between atoms: C_12  and  C_13
REMARK    6  A    between atoms: C_16  and  C_17
REMARK    7  A    between atoms: C_18  and  C_19
REMARK                            x       y       z     vdW  Elec       q    Type
REMARK                         _______ _______ _______ _____ _____    ______ ____
ROOT
ATOM      1  C   UNL     1      -4.889  12.405  20.173  0.00  0.00    +0.000 A 
ATOM      2  C   UNL     1      -6.068  12.545  20.980  0.00  0.00    +0.000 A 
ATOM      3  C   UNL     1      -7.457  12.271  20.441  0.00  0.00    +0.000 C 
ATOM      4  C   UNL     1      -5.961  12.962  22.328  0.00  0.00    +0.000 A 
ATOM      5  C   UNL     1      -7.136  13.131  23.261  0.00  0.00    +0.000 C 
ATOM      6  C   UNL     1      -4.702  13.252  22.877  0.00  0.00    +0.000 A 
ATOM      7  C   UNL     1      -3.546  13.138  22.094  0.00  0.00    +0.000 A 
ATOM      8  C   UNL     1      -2.165  13.369  22.346  0.00  0.00    +0.000 A 
ATOM      9  C   UNL     1      -1.574  13.849  23.625  0.00  0.00    +0.000 C 
ATOM     10  C   UNL     1      -1.493  13.024  21.184  0.00  0.00    +0.000 A 
ATOM     11  O   UNL     1      -2.411  12.688  20.215  0.00  0.00    +0.000 OA
ATOM     12  C   UNL     1      -3.663  12.720  20.775  0.00  0.00    +0.000 A 
ENDROOT
BRANCH  10  13
ATOM     13  C   UNL     1      -0.057  13.067  20.909  0.00  0.00    +0.000 C 
ATOM     14  O   UNL     1       0.700  12.292  21.499  0.00  0.00    +0.000 OA
ATOM     15  N   UNL     1       0.466  13.946  19.951  0.00  0.00    +0.000 N 
ATOM     16  C   UNL     1       1.895  13.871  19.641  0.00  0.00    +0.000 C 
ATOM     17  C   UNL     1       2.520  15.264  19.574  0.00  0.00    +0.000 C 
ATOM     18  C   UNL     1       1.739  16.184  18.642  0.00  0.00    +0.000 C 
ATOM     19  C   UNL     1       0.254  16.184  18.993  0.00  0.00    +0.000 C 
ATOM     20  C   UNL     1      -0.304  14.763  19.014  0.00  0.00    +0.000 C 
ENDBRANCH  10  13
BRANCH   1  21
ATOM     21  S   UNL     1      -5.052  11.851  18.492  0.00  0.00    +0.000 S 
ATOM     22  O   UNL     1      -5.889  12.821  17.815  0.00  0.00    +0.000 OA
ATOM     23  O   UNL     1      -5.411  10.448  18.529  0.00  0.00    +0.000 OA
BRANCH  21  28
ATOM     24  C   UNL     1      -3.015   9.606  13.402  0.00  0.00    +0.000 C 
ATOM     25  C   UNL     1      -3.055  10.143  14.773  0.00  0.00    +0.000 A 
ATOM     26  C   UNL     1      -3.605  11.254  15.370  0.00  0.00    +0.000 A 
ATOM     27  C   UNL     1      -3.264  11.114  16.733  0.00  0.00    +0.000 A 
ATOM     28  N   UNL     1      -3.536  12.015  17.761  0.00  0.00    +0.000 N 
ATOM     29  N   UNL     1      -2.556  10.003  16.950  0.00  0.00    +0.000 NA
ATOM     30  O   UNL     1      -2.415   9.401  15.716  0.00  0.00    +0.000 OA
ATOM     31  H   UNL     1      -3.494  12.988  17.458  0.00  0.00    +0.000 HD
ENDBRANCH  21  28
ENDBRANCH   1  21
TORSDOF 3
ENDMDL
MODEL 3
REMARK VINA RESULT:      -7.3      2.358      5.841
REMARK  Name = 
REMARK  7 active torsions:
REMARK  status: ('A' for Active; 'I' for Inactive)
REMARK    1  A    between atoms: C_1  and  C_2
REMARK    2  A    between atoms: N_5  and  S_6
REMARK    3  A    between atoms: S_6  and  C_9
REMARK    4  A    between atoms: C_10  and  C_11
REMARK    5  A    between atoms: C_12  and  C_13
REMARK    6  A    between atoms: C_16  and  C_17
REMARK    7  A    between atoms: C_18  and  C_19
REMARK                            x       y       z     vdW  Elec       q    Type
REMARK                         _______ _______ _______ _____ _____    ______ ____
ROOT
ATOM      1  C   UNL     1       0.095  12.864  20.916  0.00  0.00    +0.000 A 
ATOM      2  C   UNL     1       1.210  13.750  21.097  0.00  0.00    +0.000 A 
ATOM      3  C   UNL     1       2.549  13.517  20.428  0.00  0.00    +0.000 C 
ATOM      4  C   UNL     1       1.088  14.885  21.933  0.00  0.00    +0.000 A 
ATOM      5  C   UNL     1       2.195  15.881  22.182  0.00  0.00    +0.000 C 
ATOM      6  C   UNL     1      -0.121  15.142  22.598  0.00  0.00    +0.000 A 
ATOM      7  C   UNL     1      -1.211  14.275  22.444  0.00  0.00    +0.000 A 
ATOM      8  C   UNL     1      -2.528  14.252  22.981  0.00  0.00    +0.000 A 
ATOM      9  C   UNL     1      -3.104  15.235  23.938  0.00  0.00    +0.000 C 
ATOM     10  C   UNL     1      -3.164  13.161  22.407  0.00  0.00    +0.000 A 
ATOM     11  O   UNL     1      -2.264  12.474  21.625  0.00  0.00    +0.000 OA
ATOM     12  C   UNL     1      -1.081  13.169  21.615  0.00  0.00    +0.000 A 
ENDROOT
BRANCH  10  13
ATOM     13  C   UNL     1      -4.533  12.689  22.611  0.00  0.00    +0.000 C 
ATOM     14  O   UNL     1      -4.842  12.160  23.681  0.00  0.00    +0.000 OA
ATOM     15  N   UNL     1      -5.511  12.870  21.624  0.00  0.00    +0.000 N 
ATOM     16  C   UNL     1      -6.889  12.474  21.924  0.00  0.00    +0.000 C 
ATOM     17  C   UNL     1      -7.508  11.703  20.760  0.00  0.00    +0.000 C 
ATOM     18  C   UNL     1      -7.363  12.461  19.445  0.00  0.00    +0.000 C 
ATOM     19  C   UNL     1      -5.914  12.878  19.214  0.00  0.00    +0.000 C 
ATOM     20  C   UNL     1      -5.374  13.666  20.405  0.00  0.00    +0.000 C 
ENDBRANCH  10  13
BRANCH   1  21
ATOM     21  S   UNL     1       0.271  11.464  19.836  0.00  0.00    +0.000 S 
ATOM     22  O   UNL     1       1.082  10.493  20.544  0.00  0.00    +0.000 OA
ATOM     23  O   UNL     1       0.664  11.964  18.535  0.00  0.00    +0.000 OA
BRANCH  21  28
ATOM     24  C   UNL     1      -2.891  10.044  15.030  0.00  0.00    +0.000 C 
ATOM     25  C   UNL     1      -2.545  10.424  16.411  0.00  0.00    +0.000 A 
ATOM     26  C   UNL     1      -1.679   9.946  17.367  0.00  0.00    +0.000 A 
ATOM     27  C   UNL     1      -1.858  10.821  18.460  0.00  0.00    +0.000 A 
ATOM     28  N   UNL     1      -1.250  10.734  19.712  0.00  0.00    +0.000 N 
ATOM     29  N   UNL     1      -2.768  11.761  18.192  0.00  0.00    +0.000 NA
ATOM     30  O   UNL     1      -3.207  11.503  16.909  0.00  0.00    +0.000 OA
ATOM     31  H   UNL     1      -1.106   9.772  20.017  0.00  0.00    +0.000 HD
ENDBRANCH  21  28
ENDBRANCH   1  21
TORSDOF 3
ENDMDL
MODEL 4
REMARK VINA RESULT:      -7.2      4.983      7.514
REMARK  Name = 
REMARK  7 active torsions:
REMARK  status: ('A' for Active; 'I' for Inactive)
REMARK    1  A    between atoms: C_1  and  C_2
REMARK    2  A    between atoms: N_5  and  S_6
REMARK    3  A    between atoms: S_6  and  C_9
REMARK    4  A    between atoms: C_10  and  C_11
REMARK    5  A    between atoms: C_12  and  C_13
REMARK    6  A    between atoms: C_16  and  C_17
REMARK    7  A    between atoms: C_18  and  C_19
REMARK                            x       y       z     vdW  Elec       q    Type
REMARK                         _______ _______ _______ _____ _____    ______ ____
ROOT
ATOM      1  C   UNL     1       0.869   9.439  19.541  0.00  0.00    +0.000 A 
ATOM      2  C   UNL     1       0.401   9.889  20.821  0.00  0.00    +0.000 A 
ATOM      3  C   UNL     1      -0.215  11.258  21.025  0.00  0.00    +0.000 C 
ATOM      4  C   UNL     1       0.514   9.050  21.954  0.00  0.00    +0.000 A 
ATOM      5  C   UNL     1       0.044   9.425  23.340  0.00  0.00    +0.000 C 
ATOM      6  C   UNL     1       1.096   7.778  21.833  0.00  0.00    +0.000 A 
ATOM      7  C   UNL     1       1.574   7.335  20.593  0.00  0.00    +0.000 A 
ATOM      8  C   UNL     1       2.212   6.140  20.159  0.00  0.00    +0.000 A 
ATOM      9  C   UNL     1       2.568   4.974  21.014  0.00  0.00    +0.000 C 
ATOM     10  C   UNL     1       2.396   6.270  18.791  0.00  0.00    +0.000 A 
ATOM     11  O   UNL     1       1.986   7.524  18.398  0.00  0.00    +0.000 OA
ATOM     12  C   UNL     1       1.450   8.165  19.487  0.00  0.00    +0.000 A 
ENDROOT
BRANCH  10  13
ATOM     13  C   UNL     1       3.002   5.324  17.855  0.00  0.00    +0.000 C 
ATOM     14  O   UNL     1       2.398   4.291  17.556  0.00  0.00    +0.000 OA
ATOM     15  N   UNL     1       4.238   5.597  17.255  0.00  0.00    +0.000 N 
ATOM     16  C   UNL     1       4.746   4.666  16.245  0.00  0.00    +0.000 C 
ATOM     17  C   UNL     1       6.226   4.361  16.468  0.00  0.00    +0.000 C 
ATOM     18  C   UNL     1       7.049   5.640  16.590  0.00  0.00    +0.000 C 
ATOM     19  C   UNL     1       6.444   6.580  17.627  0.00  0.00    +0.000 C 
ATOM     20  C   UNL     1       4.974   6.859  17.324  0.00  0.00    +0.000 C 
ENDBRANCH  10  13
BRANCH   1  21
ATOM     21  S   UNL     1       0.686  10.504  18.130  0.00  0.00    +0.000 S 
ATOM     22  O   UNL     1       1.934  10.439  17.396  0.00  0.00    +0.000 OA
ATOM     23  O   UNL     1       0.160  11.768  18.604  0.00  0.00    +0.000 OA
BRANCH  21  28
ATOM     24  C   UNL     1      -4.933  12.011  17.005  0.00  0.00    +0.000 C 
ATOM     25  C   UNL     1      -3.710  11.206  17.169  0.00  0.00    +0.000 A 
ATOM     26  C   UNL     1      -2.411  11.303  16.726  0.00  0.00    +0.000 A 
ATOM     27  C   UNL     1      -1.771  10.181  17.295  0.00  0.00    +0.000 A 
ATOM     28  N   UNL     1      -0.448   9.784  17.103  0.00  0.00    +0.000 N 
ATOM     29  N   UNL     1      -2.616   9.452  18.028  0.00  0.00    +0.000 NA
ATOM     30  O   UNL     1      -3.837  10.091  17.937  0.00  0.00    +0.000 OA
ATOM     31  H   UNL     1      -0.109   9.976  16.161  0.00  0.00    +0.000 HD
ENDBRANCH  21  28
ENDBRANCH   1  21
TORSDOF 3
ENDMDL
MODEL 5
REMARK VINA RESULT:      -7.0      2.406      7.730
REMARK  Name = 
REMARK  7 active torsions:
REMARK  status: ('A' for Active; 'I' for Inactive)
REMARK    1  A    between atoms: C_1  and  C_2
REMARK    2  A    between atoms: N_5  and  S_6
REMARK    3  A    between atoms: S_6  and  C_9
REMARK    4  A    between atoms: C_10  and  C_11
REMARK    5  A    between atoms: C_12  and  C_13
REMARK    6  A    between atoms: C_16  and  C_17
REMARK    7  A    between atoms: C_18  and  C_19
REMARK                            x       y       z     vdW  Elec       q    Type
REMARK                         _______ _______ _______ _____ _____    ______ ____
ROOT
ATOM      1  C   UNL     1      -0.845  10.903  20.021  0.00  0.00    +0.000 A 
ATOM      2  C   UNL     1       0.358  10.177  19.730  0.00  0.00    +0.000 A 
ATOM      3  C   UNL     1       1.483  10.033  20.736  0.00  0.00    +0.000 C 
ATOM      4  C   UNL     1       0.534   9.569  18.465  0.00  0.00    +0.000 A 
ATOM      5  C   UNL     1       1.755   8.777  18.064  0.00  0.00    +0.000 C 
ATOM      6  C   UNL     1      -0.464   9.686  17.484  0.00  0.00    +0.000 A 
ATOM      7  C   UNL     1      -1.634  10.409  17.749  0.00  0.00    +0.000 A 
ATOM      8  C   UNL     1      -2.791  10.716  16.980  0.00  0.00    +0.000 A 
ATOM      9  C   UNL     1      -3.042  10.311  15.569  0.00  0.00    +0.000 C 
ATOM     10  C   UNL     1      -3.639  11.427  17.817  0.00  0.00    +0.000 A 
ATOM     11  O   UNL     1      -3.007  11.643  19.020  0.00  0.00    +0.000 OA
ATOM     12  C   UNL     1      -1.798  10.994  18.998  0.00  0.00    +0.000 A 
ENDROOT
BRANCH  10  13
ATOM     13  C   UNL     1      -4.962  11.976  17.527  0.00  0.00    +0.000 C 
ATOM     14  O   UNL     1      -5.239  12.325  16.377  0.00  0.00    +0.000 OA
ATOM     15  N   UNL     1      -5.938  12.068  18.528  0.00  0.00    +0.000 N 
ATOM     16  C   UNL     1      -7.279  12.526  18.157  0.00  0.00    +0.000 C 
ATOM     17  C   UNL     1      -7.810  13.550  19.158  0.00  0.00    +0.000 C 
ATOM     18  C   UNL     1      -7.713  13.037  20.591  0.00  0.00    +0.000 C 
ATOM     19  C   UNL     1      -6.304  12.539  20.897  0.00  0.00    +0.000 C 
ATOM     20  C   UNL     1      -5.854  11.500  19.873  0.00  0.00    +0.000 C 
ENDBRANCH  10  13
BRANCH   1  21
ATOM     21  S   UNL     1      -1.049  11.629  21.630  0.00  0.00    +0.000 S 
ATOM     22  O   UNL     1      -0.140  12.757  21.695  0.00  0.00    +0.000 OA
ATOM     23  O   UNL     1      -0.985  10.558  22.603  0.00  0.00    +0.000 OA
BRANCH  21  28
ATOM     24  C   UNL     1      -3.328  15.606  25.385  0.00  0.00    +0.000 C 
ATOM     25  C   UNL     1      -3.224  14.496  24.421  0.00  0.00    +0.000 A 
ATOM     26  C   UNL     1      -2.631  14.324  23.192  0.00  0.00    +0.000 A 
ATOM     27  C   UNL     1      -2.920  12.983  22.858  0.00  0.00    +0.000 A 
ATOM     28  N   UNL     1      -2.590  12.325  21.673  0.00  0.00    +0.000 N 
ATOM     29  N   UNL     1      -3.637  12.383  23.810  0.00  0.00    +0.000 NA
ATOM     30  O   UNL     1      -3.838  13.339  24.786  0.00  0.00    +0.000 OA
ATOM     31  H   UNL     1      -2.626  12.935  20.857  0.00  0.00    +0.000 HD
ENDBRANCH  21  28
ENDBRANCH   1  21
TORSDOF 3
ENDMDL
MODEL 6
REMARK VINA RESULT:      -7.0      3.084      4.947
REMARK  Name = 
REMARK  7 active torsions:
REMARK  status: ('A' for Active; 'I' for Inactive)
REMARK    1  A    between atoms: C_1  and  C_2
REMARK    2  A    between atoms: N_5  and  S_6
REMARK    3  A    between atoms: S_6  and  C_9
REMARK    4  A    between atoms: C_10  and  C_11
REMARK    5  A    between atoms: C_12  and  C_13
REMARK    6  A    between atoms: C_16  and  C_17
REMARK    7  A    between atoms: C_18  and  C_19
REMARK                            x       y       z     vdW  Elec       q    Type
REMARK                         _______ _______ _______ _____ _____    ______ ____
ROOT
ATOM      1  C   UNL     1      -0.669  11.536  20.255  0.00  0.00    +0.000 A 
ATOM      2  C   UNL     1      -0.250  10.468  21.118  0.00  0.00    +0.000 A 
ATOM      3  C   UNL     1       0.454   9.232  20.597  0.00  0.00    +0.000 C 
ATOM      4  C   UNL     1      -0.497  10.540  22.509  0.00  0.00    +0.000 A 
ATOM      5  C   UNL     1      -0.090   9.477  23.502  0.00  0.00    +0.000 C 
ATOM      6  C   UNL     1      -1.166  11.650  23.049  0.00  0.00    +0.000 A 
ATOM      7  C   UNL     1      -1.597  12.690  22.214  0.00  0.00    +0.000 A 
ATOM      8  C   UNL     1      -2.295  13.907  22.447  0.00  0.00    +0.000 A 
ATOM      9  C   UNL     1      -2.792  14.398  23.761  0.00  0.00    +0.000 C 
ATOM     10  C   UNL     1      -2.382  14.548  21.220  0.00  0.00    +0.000 A 
ATOM     11  O   UNL     1      -1.854  13.731  20.247  0.00  0.00    +0.000 OA
ATOM     12  C   UNL     1      -1.340  12.612  20.852  0.00  0.00    +0.000 A 
ENDROOT
BRANCH  10  13
ATOM     13  C   UNL     1      -2.997  15.836  20.901  0.00  0.00    +0.000 C 
ATOM     14  O   UNL     1      -4.137  16.083  21.302  0.00  0.00    +0.000 OA
ATOM     15  N   UNL     1      -2.291  16.812  20.187  0.00  0.00    +0.000 N 
ATOM     16  C   UNL     1      -2.916  18.122  19.989  0.00  0.00    +0.000 C 
ATOM     17  C   UNL     1      -2.752  18.601  18.548  0.00  0.00    +0.000 C 
ATOM     18  C   UNL     1      -1.295  18.546  18.101  0.00  0.00    +0.000 C 
ATOM     19  C   UNL     1      -0.694  17.170  18.372  0.00  0.00    +0.000 C 
ATOM     20  C   UNL     1      -0.872  16.772  19.835  0.00  0.00    +0.000 C 
ENDBRANCH  10  13
BRANCH   1  21
ATOM     21  S   UNL     1      -0.316  11.431  18.517  0.00  0.00    +0.000 S 
ATOM     22  O   UNL     1      -0.590  10.064  18.119  0.00  0.00    +0.000 OA
ATOM     23  O   UNL     1       0.985  12.029  18.299  0.00  0.00    +0.000 OA
BRANCH  21  28
ATOM     24  C   UNL     1      -6.185  10.681  18.201  0.00  0.00    +0.000 C 
ATOM     25  C   UNL     1      -4.808  11.075  17.856  0.00  0.00    +0.000 A 
ATOM     26  C   UNL     1      -3.795  11.747  18.499  0.00  0.00    +0.000 A 
ATOM     27  C   UNL     1      -2.734  11.739  17.568  0.00  0.00    +0.000 A 
ATOM     28  N   UNL     1      -1.488  12.348  17.713  0.00  0.00    +0.000 N 
ATOM     29  N   UNL     1      -3.075  11.112  16.440  0.00  0.00    +0.000 NA
ATOM     30  O   UNL     1      -4.382  10.706  16.618  0.00  0.00    +0.000 OA
ATOM     31  H   UNL     1      -1.533  13.227  18.228  0.00  0.00    +0.000 HD
ENDBRANCH  21  28
ENDBRANCH   1  21
TORSDOF 3
ENDMDL
MODEL 7
REMARK VINA RESULT:      -6.8      3.169      5.629
REMARK  Name = 
REMARK  7 active torsions:
REMARK  status: ('A' for Active; 'I' for Inactive)
REMARK    1  A    between atoms: C_1  and  C_2
REMARK    2  A    between atoms: N_5  and  S_6
REMARK    3  A    between atoms: S_6  and  C_9
REMARK    4  A    between atoms: C_10  and  C_11
REMARK    5  A    between atoms: C_12  and  C_13
REMARK    6  A    between atoms: C_16  and  C_17
REMARK    7  A    between atoms: C_18  and  C_19
REMARK                            x       y       z     vdW  Elec       q    Type
REMARK                         _______ _______ _______ _____ _____    ______ ____
ROOT
ATOM      1  C   UNL     1      -1.737  15.159  20.502  0.00  0.00    +0.000 A 
ATOM      2  C   UNL     1      -1.555  16.392  19.790  0.00  0.00    +0.000 A 
ATOM      3  C   UNL     1      -2.556  17.527  19.863  0.00  0.00    +0.000 C 
ATOM      4  C   UNL     1      -0.415  16.580  18.974  0.00  0.00    +0.000 A 
ATOM      5  C   UNL     1      -0.126  17.841  18.193  0.00  0.00    +0.000 C 
ATOM      6  C   UNL     1       0.537  15.556  18.848  0.00  0.00    +0.000 A 
ATOM      7  C   UNL     1       0.361  14.341  19.522  0.00  0.00    +0.000 A 
ATOM      8  C   UNL     1       1.116  13.137  19.585  0.00  0.00    +0.000 A 
ATOM      9  C   UNL     1       2.387  12.858  18.862  0.00  0.00    +0.000 C 
ATOM     10  C   UNL     1       0.452  12.305  20.474  0.00  0.00    +0.000 A 
ATOM     11  O   UNL     1      -0.715  12.914  20.875  0.00  0.00    +0.000 OA
ATOM     12  C   UNL     1      -0.758  14.172  20.327  0.00  0.00    +0.000 A 
ENDROOT
BRANCH  10  13
ATOM     13  C   UNL     1       0.807  10.953  20.902  0.00  0.00    +0.000 C 
ATOM     14  O   UNL     1       0.988  10.721  22.100  0.00  0.00    +0.000 OA
ATOM     15  N   UNL     1       0.900   9.906  19.976  0.00  0.00    +0.000 N 
ATOM     16  C   UNL     1       1.154   8.552  20.474  0.00  0.00    +0.000 C 
ATOM     17  C   UNL     1       2.218   7.846  19.637  0.00  0.00    +0.000 C 
ATOM     18  C   UNL     1       1.887   7.898  18.149  0.00  0.00    +0.000 C 
ATOM     19  C   UNL     1       1.594   9.328  17.706  0.00  0.00    +0.000 C 
ATOM     20  C   UNL     1       0.504   9.957  18.569  0.00  0.00    +0.000 C 
ENDBRANCH  10  13
BRANCH   1  21
ATOM     21  S   UNL     1      -3.164  14.964  21.542  0.00  0.00    +0.000 S 
ATOM     22  O   UNL     1      -4.318  15.308  20.733  0.00  0.00    +0.000 OA
ATOM     23  O   UNL     1      -2.892  15.650  22.788  0.00  0.00    +0.000 OA
BRANCH  21  28
ATOM     24  C   UNL     1      -7.446  11.217  19.890  0.00  0.00    +0.000 C 
ATOM     25  C   UNL     1      -6.351  11.833  20.659  0.00  0.00    +0.000 A 
ATOM     26  C   UNL     1      -5.093  12.302  20.361  0.00  0.00    +0.000 A 
ATOM     27  C   UNL     1      -4.605  12.782  21.595  0.00  0.00    +0.000 A 
ATOM     28  N   UNL     1      -3.339  13.310  21.847  0.00  0.00    +0.000 N 
ATOM     29  N   UNL     1      -5.496  12.615  22.574  0.00  0.00    +0.000 NA
ATOM     30  O   UNL     1      -6.588  12.007  21.987  0.00  0.00    +0.000 OA
ATOM     31  H   UNL     1      -2.605  12.862  21.298  0.00  0.00    +0.000 HD
ENDBRANCH  21  28
ENDBRANCH   1  21
TORSDOF 3
ENDMDL
MODEL 8
REMARK VINA RESULT:      -6.8      2.655      7.311
REMARK  Name = 
REMARK  7 active torsions:
REMARK  status: ('A' for Active; 'I' for Inactive)
REMARK    1  A    between atoms: C_1  and  C_2
REMARK    2  A    between atoms: N_5  and  S_6
REMARK    3  A    between atoms: S_6  and  C_9
REMARK    4  A    between atoms: C_10  and  C_11
REMARK    5  A    between atoms: C_12  and  C_13
REMARK    6  A    between atoms: C_16  and  C_17
REMARK    7  A    between atoms: C_18  and  C_19
REMARK                            x       y       z     vdW  Elec       q    Type
REMARK                         _______ _______ _______ _____ _____    ______ ____
ROOT
ATOM      1  C   UNL     1      -2.453  11.670  19.034  0.00  0.00    +0.000 A 
ATOM      2  C   UNL     1      -2.147  10.770  17.958  0.00  0.00    +0.000 A 
ATOM      3  C   UNL     1      -0.785  10.125  17.801  0.00  0.00    +0.000 C 
ATOM      4  C   UNL     1      -3.130  10.462  16.988  0.00  0.00    +0.000 A 
ATOM      5  C   UNL     1      -2.912   9.522  15.826  0.00  0.00    +0.000 C 
ATOM      6  C   UNL     1      -4.404  11.046  17.067  0.00  0.00    +0.000 A 
ATOM      7  C   UNL     1      -4.708  11.941  18.101  0.00  0.00    +0.000 A 
ATOM      8  C   UNL     1      -5.870  12.690  18.438  0.00  0.00    +0.000 A 
ATOM      9  C   UNL     1      -7.153  12.709  17.683  0.00  0.00    +0.000 C 
ATOM     10  C   UNL     1      -5.575  13.359  19.616  0.00  0.00    +0.000 A 
ATOM     11  O   UNL     1      -4.262  13.122  19.952  0.00  0.00    +0.000 OA
ATOM     12  C   UNL     1      -3.738  12.229  19.052  0.00  0.00    +0.000 A 
ENDROOT
BRANCH  10  13
ATOM     13  C   UNL     1      -6.423  14.261  20.394  0.00  0.00    +0.000 C 
ATOM     14  O   UNL     1      -6.678  15.386  19.958  0.00  0.00    +0.000 OA
ATOM     15  N   UNL     1      -6.990  13.848  21.607  0.00  0.00    +0.000 N 
ATOM     16  C   UNL     1      -7.916  14.753  22.290  0.00  0.00    +0.000 C 
ATOM     17  C   UNL     1      -7.616  14.827  23.786  0.00  0.00    +0.000 C 
ATOM     18  C   UNL     1      -7.544  13.439  24.413  0.00  0.00    +0.000 C 
ATOM     19  C   UNL     1      -6.595  12.536  23.631  0.00  0.00    +0.000 C 
ATOM     20  C   UNL     1      -6.974  12.491  22.153  0.00  0.00    +0.000 C 
ENDBRANCH  10  13
BRANCH   1  21
ATOM     21  S   UNL     1      -1.207  12.014  20.253  0.00  0.00    +0.000 S 
ATOM     22  O   UNL     1      -0.217  12.856  19.610  0.00  0.00    +0.000 OA
ATOM     23  O   UNL     1      -0.837  10.754  20.865  0.00  0.00    +0.000 OA
BRANCH  21  28
ATOM     24  C   UNL     1       0.451  17.353  22.217  0.00  0.00    +0.000 C 
ATOM     25  C   UNL     1      -0.144  16.006  22.171  0.00  0.00    +0.000 A 
ATOM     26  C   UNL     1      -0.979  15.337  21.306  0.00  0.00    +0.000 A 
ATOM     27  C   UNL     1      -1.116  14.057  21.884  0.00  0.00    +0.000 A 
ATOM     28  N   UNL     1      -1.914  13.010  21.424  0.00  0.00    +0.000 N 
ATOM     29  N   UNL     1      -0.419  13.953  23.018  0.00  0.00    +0.000 NA
ATOM     30  O   UNL     1       0.181  15.182  23.203  0.00  0.00    +0.000 OA
ATOM     31  H   UNL     1      -2.786  13.331  21.004  0.00  0.00    +0.000 HD
ENDBRANCH  21  28
ENDBRANCH   1  21
TORSDOF 3
ENDMDL
MODEL 9
REMARK VINA RESULT:      -6.8      6.786      9.482
REMARK  Name = 
REMARK  7 active torsions:
REMARK  status: ('A' for Active; 'I' for Inactive)
REMARK    1  A    between atoms: C_1  and  C_2
REMARK    2  A    between atoms: N_5  and  S_6
REMARK    3  A    between atoms: S_6  and  C_9
REMARK    4  A    between atoms: C_10  and  C_11
REMARK    5  A    between atoms: C_12  and  C_13
REMARK    6  A    between atoms: C_16  and  C_17
REMARK    7  A    between atoms: C_18  and  C_19
REMARK                            x       y       z     vdW  Elec       q    Type
REMARK                         _______ _______ _______ _____ _____    ______ ____
ROOT
ATOM      1  C   UNL     1       3.474   5.937  19.040  0.00  0.00    +0.000 A 
ATOM      2  C   UNL     1       3.396   4.636  19.641  0.00  0.00    +0.000 A 
ATOM      3  C   UNL     1       4.294   3.491  19.219  0.00  0.00    +0.000 C 
ATOM      4  C   UNL     1       2.450   4.380  20.662  0.00  0.00    +0.000 A 
ATOM      5  C   UNL     1       2.294   3.052  21.363  0.00  0.00    +0.000 C 
ATOM      6  C   UNL     1       1.575   5.395  21.080  0.00  0.00    +0.000 A 
ATOM      7  C   UNL     1       1.628   6.663  20.487  0.00  0.00    +0.000 A 
ATOM      8  C   UNL     1       0.888   7.864  20.673  0.00  0.00    +0.000 A 
ATOM      9  C   UNL     1      -0.238   8.063  21.626  0.00  0.00    +0.000 C 
ATOM     10  C   UNL     1       1.449   8.804  19.822  0.00  0.00    +0.000 A 
ATOM     11  O   UNL     1       2.428   8.201  19.067  0.00  0.00    +0.000 OA
ATOM     12  C   UNL     1       2.567   6.904  19.493  0.00  0.00    +0.000 A 
ENDROOT
BRANCH  10  13
ATOM     13  C   UNL     1       1.069  10.202  19.625  0.00  0.00    +0.000 C 
ATOM     14  O   UNL     1       1.650  11.087  20.258  0.00  0.00    +0.000 OA
ATOM     15  N   UNL     1       0.085  10.555  18.692  0.00  0.00    +0.000 N 
ATOM     16  C   UNL     1      -0.179  11.977  18.459  0.00  0.00    +0.000 C 
ATOM     17  C   UNL     1      -1.679  12.261  18.419  0.00  0.00    +0.000 C 
ATOM     18  C   UNL     1      -2.398  11.337  17.441  0.00  0.00    +0.000 C 
ATOM     19  C   UNL     1      -2.048   9.878  17.712  0.00  0.00    +0.000 C 
ATOM     20  C   UNL     1      -0.536   9.667  17.711  0.00  0.00    +0.000 C 
ENDBRANCH  10  13
BRANCH   1  21
ATOM     21  S   UNL     1       4.693   6.235  17.782  0.00  0.00    +0.000 S 
ATOM     22  O   UNL     1       5.867   6.756  18.456  0.00  0.00    +0.000 OA
ATOM     23  O   UNL     1       4.049   6.977  16.718  0.00  0.00    +0.000 OA
BRANCH  21  28
ATOM     24  C   UNL     1       7.791   4.875  12.918  0.00  0.00    +0.000 C 
ATOM     25  C   UNL     1       6.849   4.774  14.046  0.00  0.00    +0.000 A 
ATOM     26  C   UNL     1       6.925   4.986  15.403  0.00  0.00    +0.000 A 
ATOM     27  C   UNL     1       5.619   4.716  15.865  0.00  0.00    +0.000 A 
ATOM     28  N   UNL     1       5.180   4.728  17.189  0.00  0.00    +0.000 N 
ATOM     29  N   UNL     1       4.808   4.363  14.866  0.00  0.00    +0.000 NA
ATOM     30  O   UNL     1       5.585   4.388  13.726  0.00  0.00    +0.000 OA
ATOM     31  H   UNL     1       5.888   4.403  17.846  0.00  0.00    +0.000 HD
ENDBRANCH  21  28
ENDBRANCH   1  21
TORSDOF 3
ENDMDL
