MODEL 1
REMARK VINA RESULT:      -8.3      0.000      0.000
REMARK  Name = 
REMARK  10 active torsions:
REMARK  status: ('A' for Active; 'I' for Inactive)
REMARK    1  A    between atoms: C_1  and  C_2
REMARK    2  A    between atoms: C_2  and  C_3
REMARK    3  A    between atoms: C_3  and  C_4
REMARK    4  A    between atoms: C_4  and  N_5
REMARK    5  A    between atoms: N_5  and  C_6
REMARK    6  A    between atoms: C_8  and  C_9
REMARK    7  A    between atoms: C_14  and  C_15
REMARK    8  A    between atoms: N_21  and  C_22
REMARK    9  A    between atoms: C_22  and  C_23
REMARK   10  A    between atoms: N_26  and  C_27
REMARK                            x       y       z     vdW  Elec       q    Type
REMARK                         _______ _______ _______ _____ _____    ______ ____
ROOT
ATOM      1  C   UNL     1       6.964   5.351  16.220  0.00  0.00    +0.000 A 
ATOM      2  N   UNL     1       7.623   6.532  16.408  0.00  0.00    +0.000 NA
ATOM      3  C   UNL     1       7.233   7.389  17.364  0.00  0.00    +0.000 A 
ATOM      4  C   UNL     1       7.988   8.676  17.479  0.00  0.00    +0.000 C 
ATOM      5  N   UNL     1       6.222   7.199  18.217  0.00  0.00    +0.000 NA
ATOM      6  C   UNL     1       5.548   6.069  17.974  0.00  0.00    +0.000 A 
ATOM      7  C   UNL     1       5.837   5.098  17.034  0.00  0.00    +0.000 A 
ATOM      8  N   UNL     1       4.915   4.061  17.133  0.00  0.00    +0.000 NA
ATOM      9  C   UNL     1       4.071   4.397  18.109  0.00  0.00    +0.000 A 
ATOM     10  N   UNL     1       4.405   5.662  18.603  0.00  0.00    +0.000 N 
ENDROOT
BRANCH   9  11
ATOM     11  C   UNL     1       2.904   3.600  18.569  0.00  0.00    +0.000 A 
ATOM     12  C   UNL     1       2.943   2.828  19.746  0.00  0.00    +0.000 A 
ATOM     13  C   UNL     1       1.793   2.236  20.277  0.00  0.00    +0.000 A 
ATOM     14  C   UNL     1       0.590   2.329  19.590  0.00  0.00    +0.000 A 
ATOM     15  C   UNL     1       0.547   3.001  18.371  0.00  0.00    +0.000 A 
ATOM     16  C   UNL     1       1.694   3.635  17.865  0.00  0.00    +0.000 A 
ENDBRANCH   9  11
BRANCH   1  17
ATOM     17  N   UNL     1       7.454   4.473  15.234  0.00  0.00    +0.000 N 
ATOM     18  H   UNL     1       8.467   4.416  15.288  0.00  0.00    +0.000 HD
BRANCH  17  19
ATOM     19  C   UNL     1       6.884   4.749  13.915  0.00  0.00    +0.000 C 
BRANCH  19  20
ATOM     20  C   UNL     1       5.735   3.807  13.578  0.00  0.00    +0.000 C 
BRANCH  20  22
ATOM     21  C   UNL     1       4.436   3.190  11.517  0.00  0.00    +0.000 C 
ATOM     22  C   UNL     1       5.817   3.270  12.149  0.00  0.00    +0.000 C 
ENDBRANCH  20  22
ENDBRANCH  19  20
ENDBRANCH  17  19
ENDBRANCH   1  17
BRANCH  10  23
ATOM     23  C   UNL     1       3.697   6.409  19.614  0.00  0.00    +0.000 C 
BRANCH  23  24
ATOM     24  C   UNL     1       2.373   7.122  19.281  0.00  0.00    +0.000 C 
ATOM     25  C   UNL     1       2.639   8.050  18.081  0.00  0.00    +0.000 C 
ATOM     26  C   UNL     1       1.526   9.060  17.837  0.00  0.00    +0.000 C 
ATOM     27  N   UNL     1       1.226   9.803  19.064  0.00  0.00    +0.000 NA
ATOM     28  C   UNL     1       0.229  10.839  18.798  0.00  0.00    +0.000 C 
ATOM     29  C   UNL     1       0.745   8.895  20.109  0.00  0.00    +0.000 C 
ATOM     30  C   UNL     1       1.831   7.897  20.490  0.00  0.00    +0.000 C 
ENDBRANCH  23  24
ENDBRANCH  10  23
TORSDOF 7
ENDMDL
MODEL 2
REMARK VINA RESULT:      -7.5      0.606      1.101
REMARK  Name = 
REMARK  10 active torsions:
REMARK  status: ('A' for Active; 'I' for Inactive)
REMARK    1  A    between atoms: C_1  and  C_2
REMARK    2  A    between atoms: C_2  and  C_3
REMARK    3  A    between atoms: C_3  and  C_4
REMARK    4  A    between atoms: C_4  and  N_5
REMARK    5  A    between atoms: N_5  and  C_6
REMARK    6  A    between atoms: C_8  and  C_9
REMARK    7  A    between atoms: C_14  and  C_15
REMARK    8  A    between atoms: N_21  and  C_22
REMARK    9  A    between atoms: C_22  and  C_23
REMARK   10  A    between atoms: N_26  and  C_27
REMARK                            x       y       z     vdW  Elec       q    Type
REMARK                         _______ _______ _______ _____ _____    ______ ____
ROOT
ATOM      1  C   UNL     1       6.961   5.418  16.032  0.00  0.00    +0.000 A 
ATOM      2  N   UNL     1       7.624   6.560  16.379  0.00  0.00    +0.000 NA
ATOM      3  C   UNL     1       7.204   7.309  17.411  0.00  0.00    +0.000 A 
ATOM      4  C   UNL     1       7.967   8.563  17.702  0.00  0.00    +0.000 C 
ATOM      5  N   UNL     1       6.157   7.038  18.196  0.00  0.00    +0.000 NA
ATOM      6  C   UNL     1       5.481   5.953  17.800  0.00  0.00    +0.000 A 
ATOM      7  C   UNL     1       5.799   5.091  16.767  0.00  0.00    +0.000 A 
ATOM      8  N   UNL     1       4.863   4.064  16.710  0.00  0.00    +0.000 NA
ATOM      9  C   UNL     1       3.983   4.299  17.684  0.00  0.00    +0.000 A 
ATOM     10  N   UNL     1       4.310   5.494  18.332  0.00  0.00    +0.000 N 
ENDROOT
BRANCH   9  11
ATOM     11  C   UNL     1       2.790   3.472  18.004  0.00  0.00    +0.000 A 
ATOM     12  C   UNL     1       2.898   2.121  18.386  0.00  0.00    +0.000 A 
ATOM     13  C   UNL     1       1.800   1.403  18.869  0.00  0.00    +0.000 A 
ATOM     14  C   UNL     1       0.545   1.997  18.894  0.00  0.00    +0.000 A 
ATOM     15  C   UNL     1       0.393   3.299  18.425  0.00  0.00    +0.000 A 
ATOM     16  C   UNL     1       1.508   4.034  17.986  0.00  0.00    +0.000 A 
ENDBRANCH   9  11
BRANCH   1  17
ATOM     17  N   UNL     1       7.481   4.651  14.972  0.00  0.00    +0.000 N 
ATOM     18  H   UNL     1       8.475   4.835  14.861  0.00  0.00    +0.000 HD
BRANCH  17  19
ATOM     19  C   UNL     1       6.660   4.745  13.766  0.00  0.00    +0.000 C 
BRANCH  19  20
ATOM     20  C   UNL     1       6.076   3.396  13.361  0.00  0.00    +0.000 C 
BRANCH  20  22
ATOM     21  C   UNL     1       4.414   3.286  11.480  0.00  0.00    +0.000 C 
ATOM     22  C   UNL     1       5.889   3.267  11.850  0.00  0.00    +0.000 C 
ENDBRANCH  20  22
ENDBRANCH  19  20
ENDBRANCH  17  19
ENDBRANCH   1  17
BRANCH  10  23
ATOM     23  C   UNL     1       3.569   6.132  19.393  0.00  0.00    +0.000 C 
BRANCH  23  24
ATOM     24  C   UNL     1       3.069   7.580  19.241  0.00  0.00    +0.000 C 
ATOM     25  C   UNL     1       1.933   7.784  20.262  0.00  0.00    +0.000 C 
ATOM     26  C   UNL     1       1.119   9.048  20.019  0.00  0.00    +0.000 C 
ATOM     27  N   UNL     1       0.642   9.096  18.634  0.00  0.00    +0.000 NA
ATOM     28  C   UNL     1      -0.221  10.259  18.435  0.00  0.00    +0.000 C 
ATOM     29  C   UNL     1       1.774   9.142  17.703  0.00  0.00    +0.000 C 
ATOM     30  C   UNL     1       2.603   7.868  17.807  0.00  0.00    +0.000 C 
ENDBRANCH  23  24
ENDBRANCH  10  23
TORSDOF 7
ENDMDL
MODEL 3
REMARK VINA RESULT:      -7.1      2.551      7.950
REMARK  Name = 
REMARK  10 active torsions:
REMARK  status: ('A' for Active; 'I' for Inactive)
REMARK    1  A    between atoms: C_1  and  C_2
REMARK    2  A    between atoms: C_2  and  C_3
REMARK    3  A    between atoms: C_3  and  C_4
REMARK    4  A    between atoms: C_4  and  N_5
REMARK    5  A    between atoms: N_5  and  C_6
REMARK    6  A    between atoms: C_8  and  C_9
REMARK    7  A    between atoms: C_14  and  C_15
REMARK    8  A    between atoms: N_21  and  C_22
REMARK    9  A    between atoms: C_22  and  C_23
REMARK   10  A    between atoms: N_26  and  C_27
REMARK                            x       y       z     vdW  Elec       q    Type
REMARK                         _______ _______ _______ _____ _____    ______ ____
ROOT
ATOM      1  C   UNL     1       0.836   9.901  21.433  0.00  0.00    +0.000 A 
ATOM      2  N   UNL     1       1.011  10.975  20.610  0.00  0.00    +0.000 NA
ATOM      3  C   UNL     1       1.413  10.808  19.340  0.00  0.00    +0.000 A 
ATOM      4  C   UNL     1       1.615  12.042  18.518  0.00  0.00    +0.000 C 
ATOM      5  N   UNL     1       1.661   9.635  18.749  0.00  0.00    +0.000 NA
ATOM      6  C   UNL     1       1.548   8.600  19.589  0.00  0.00    +0.000 A 
ATOM      7  C   UNL     1       1.142   8.623  20.910  0.00  0.00    +0.000 A 
ATOM      8  N   UNL     1       1.121   7.329  21.417  0.00  0.00    +0.000 NA
ATOM      9  C   UNL     1       1.518   6.528  20.427  0.00  0.00    +0.000 A 
ATOM     10  N   UNL     1       1.847   7.297  19.306  0.00  0.00    +0.000 N 
ENDROOT
BRANCH   9  11
ATOM     11  C   UNL     1       1.667   5.052  20.502  0.00  0.00    +0.000 A 
ATOM     12  C   UNL     1       2.548   4.435  21.411  0.00  0.00    +0.000 A 
ATOM     13  C   UNL     1       2.547   3.052  21.614  0.00  0.00    +0.000 A 
ATOM     14  C   UNL     1       1.724   2.242  20.843  0.00  0.00    +0.000 A 
ATOM     15  C   UNL     1       0.917   2.819  19.865  0.00  0.00    +0.000 A 
ATOM     16  C   UNL     1       0.885   4.214  19.697  0.00  0.00    +0.000 A 
ENDBRANCH   9  11
BRANCH   1  17
ATOM     17  N   UNL     1       0.364  10.140  22.738  0.00  0.00    +0.000 N 
ATOM     18  H   UNL     1       0.689   9.411  23.367  0.00  0.00    +0.000 HD
BRANCH  17  19
ATOM     19  C   UNL     1      -1.068  10.434  22.763  0.00  0.00    +0.000 C 
BRANCH  19  20
ATOM     20  C   UNL     1      -1.348  11.909  23.024  0.00  0.00    +0.000 C 
BRANCH  20  22
ATOM     21  C   UNL     1      -3.101  13.670  23.397  0.00  0.00    +0.000 C 
ATOM     22  C   UNL     1      -2.812  12.177  23.369  0.00  0.00    +0.000 C 
ENDBRANCH  20  22
ENDBRANCH  19  20
ENDBRANCH  17  19
ENDBRANCH   1  17
BRANCH  10  23
ATOM     23  C   UNL     1       2.381   6.816  18.055  0.00  0.00    +0.000 C 
BRANCH  23  24
ATOM     24  C   UNL     1       3.782   6.178  17.993  0.00  0.00    +0.000 C 
ATOM     25  C   UNL     1       4.661   7.083  17.108  0.00  0.00    +0.000 C 
ATOM     26  C   UNL     1       5.969   6.430  16.684  0.00  0.00    +0.000 C 
ATOM     27  N   UNL     1       5.717   5.123  16.071  0.00  0.00    +0.000 NA
ATOM     28  C   UNL     1       6.966   4.547  15.574  0.00  0.00    +0.000 C 
ATOM     29  C   UNL     1       5.091   4.215  17.037  0.00  0.00    +0.000 C 
ATOM     30  C   UNL     1       3.724   4.742  17.455  0.00  0.00    +0.000 C 
ENDBRANCH  23  24
ENDBRANCH  10  23
TORSDOF 7
ENDMDL
MODEL 4
REMARK VINA RESULT:      -7.0      2.267      7.727
REMARK  Name = 
REMARK  10 active torsions:
REMARK  status: ('A' for Active; 'I' for Inactive)
REMARK    1  A    between atoms: C_1  and  C_2
REMARK    2  A    between atoms: C_2  and  C_3
REMARK    3  A    between atoms: C_3  and  C_4
REMARK    4  A    between atoms: C_4  and  N_5
REMARK    5  A    between atoms: N_5  and  C_6
REMARK    6  A    between atoms: C_8  and  C_9
REMARK    7  A    between atoms: C_14  and  C_15
REMARK    8  A    between atoms: N_21  and  C_22
REMARK    9  A    between atoms: C_22  and  C_23
REMARK   10  A    between atoms: N_26  and  C_27
REMARK                            x       y       z     vdW  Elec       q    Type
REMARK                         _______ _______ _______ _____ _____    ______ ____
ROOT
ATOM      1  C   UNL     1       0.856   9.837  21.500  0.00  0.00    +0.000 A 
ATOM      2  N   UNL     1       1.041  10.924  20.696  0.00  0.00    +0.000 NA
ATOM      3  C   UNL     1       1.441  10.775  19.423  0.00  0.00    +0.000 A 
ATOM      4  C   UNL     1       1.654  12.021  18.622  0.00  0.00    +0.000 C 
ATOM      5  N   UNL     1       1.678   9.611  18.812  0.00  0.00    +0.000 NA
ATOM      6  C   UNL     1       1.556   8.561  19.634  0.00  0.00    +0.000 A 
ATOM      7  C   UNL     1       1.150   8.566  20.955  0.00  0.00    +0.000 A 
ATOM      8  N   UNL     1       1.118   7.263  21.440  0.00  0.00    +0.000 NA
ATOM      9  C   UNL     1       1.507   6.477  20.436  0.00  0.00    +0.000 A 
ATOM     10  N   UNL     1       1.842   7.261  19.328  0.00  0.00    +0.000 N 
ENDROOT
BRANCH   9  11
ATOM     11  C   UNL     1       1.642   4.997  20.486  0.00  0.00    +0.000 A 
ATOM     12  C   UNL     1       0.689   4.140  19.902  0.00  0.00    +0.000 A 
ATOM     13  C   UNL     1       0.912   2.765  19.783  0.00  0.00    +0.000 A 
ATOM     14  C   UNL     1       2.059   2.202  20.327  0.00  0.00    +0.000 A 
ATOM     15  C   UNL     1       2.968   3.015  20.999  0.00  0.00    +0.000 A 
ATOM     16  C   UNL     1       2.764   4.403  21.075  0.00  0.00    +0.000 A 
ENDBRANCH   9  11
BRANCH   1  17
ATOM     17  N   UNL     1       0.387  10.058  22.809  0.00  0.00    +0.000 N 
ATOM     18  H   UNL     1       0.693   9.307  23.423  0.00  0.00    +0.000 HD
BRANCH  17  19
ATOM     19  C   UNL     1      -1.038  10.387  22.838  0.00  0.00    +0.000 C 
BRANCH  19  20
ATOM     20  C   UNL     1      -1.280  11.883  22.999  0.00  0.00    +0.000 C 
BRANCH  20  22
ATOM     21  C   UNL     1      -2.113  12.671  20.764  0.00  0.00    +0.000 C 
ATOM     22  C   UNL     1      -2.491  12.370  22.205  0.00  0.00    +0.000 C 
ENDBRANCH  20  22
ENDBRANCH  19  20
ENDBRANCH  17  19
ENDBRANCH   1  17
BRANCH  10  23
ATOM     23  C   UNL     1       2.372   6.797  18.069  0.00  0.00    +0.000 C 
BRANCH  23  24
ATOM     24  C   UNL     1       3.758   6.130  17.998  0.00  0.00    +0.000 C 
ATOM     25  C   UNL     1       4.666   7.043  17.152  0.00  0.00    +0.000 C 
ATOM     26  C   UNL     1       5.963   6.375  16.718  0.00  0.00    +0.000 C 
ATOM     27  N   UNL     1       5.688   5.094  16.060  0.00  0.00    +0.000 NA
ATOM     28  C   UNL     1       6.928   4.506  15.556  0.00  0.00    +0.000 C 
ATOM     29  C   UNL     1       5.032   4.170  16.990  0.00  0.00    +0.000 C 
ATOM     30  C   UNL     1       3.673   4.713  17.413  0.00  0.00    +0.000 C 
ENDBRANCH  23  24
ENDBRANCH  10  23
TORSDOF 7
ENDMDL
MODEL 5
REMARK VINA RESULT:      -6.8      0.673      1.141
REMARK  Name = 
REMARK  10 active torsions:
REMARK  status: ('A' for Active; 'I' for Inactive)
REMARK    1  A    between atoms: C_1  and  C_2
REMARK    2  A    between atoms: C_2  and  C_3
REMARK    3  A    between atoms: C_3  and  C_4
REMARK    4  A    between atoms: C_4  and  N_5
REMARK    5  A    between atoms: N_5  and  C_6
REMARK    6  A    between atoms: C_8  and  C_9
REMARK    7  A    between atoms: C_14  and  C_15
REMARK    8  A    between atoms: N_21  and  C_22
REMARK    9  A    between atoms: C_22  and  C_23
REMARK   10  A    between atoms: N_26  and  C_27
REMARK                            x       y       z     vdW  Elec       q    Type
REMARK                         _______ _______ _______ _____ _____    ______ ____
ROOT
ATOM      1  C   UNL     1       6.722   5.257  16.473  0.00  0.00    +0.000 A 
ATOM      2  N   UNL     1       7.443   6.411  16.576  0.00  0.00    +0.000 NA
ATOM      3  C   UNL     1       7.096   7.360  17.460  0.00  0.00    +0.000 A 
ATOM      4  C   UNL     1       7.919   8.609  17.483  0.00  0.00    +0.000 C 
ATOM      5  N   UNL     1       6.071   7.291  18.315  0.00  0.00    +0.000 NA
ATOM      6  C   UNL     1       5.338   6.183  18.153  0.00  0.00    +0.000 A 
ATOM      7  C   UNL     1       5.578   5.129  17.293  0.00  0.00    +0.000 A 
ATOM      8  N   UNL     1       4.600   4.154  17.462  0.00  0.00    +0.000 NA
ATOM      9  C   UNL     1       3.771   4.610  18.402  0.00  0.00    +0.000 A 
ATOM     10  N   UNL     1       4.171   5.889  18.800  0.00  0.00    +0.000 N 
ENDROOT
BRANCH   9  11
ATOM     11  C   UNL     1       2.560   3.915  18.910  0.00  0.00    +0.000 A 
ATOM     12  C   UNL     1       1.635   3.296  18.047  0.00  0.00    +0.000 A 
ATOM     13  C   UNL     1       0.605   2.484  18.530  0.00  0.00    +0.000 A 
ATOM     14  C   UNL     1       0.422   2.345  19.900  0.00  0.00    +0.000 A 
ATOM     15  C   UNL     1       1.261   3.029  20.777  0.00  0.00    +0.000 A 
ATOM     16  C   UNL     1       2.325   3.806  20.286  0.00  0.00    +0.000 A 
ENDBRANCH   9  11
BRANCH   1  17
ATOM     17  N   UNL     1       7.168   4.281  15.562  0.00  0.00    +0.000 N 
ATOM     18  H   UNL     1       8.108   3.979  15.804  0.00  0.00    +0.000 HD
BRANCH  17  19
ATOM     19  C   UNL     1       6.948   4.679  14.172  0.00  0.00    +0.000 C 
BRANCH  19  20
ATOM     20  C   UNL     1       6.301   3.569  13.351  0.00  0.00    +0.000 C 
BRANCH  20  22
ATOM     21  C   UNL     1       7.308   4.972  11.526  0.00  0.00    +0.000 C 
ATOM     22  C   UNL     1       6.694   3.625  11.875  0.00  0.00    +0.000 C 
ENDBRANCH  20  22
ENDBRANCH  19  20
ENDBRANCH  17  19
ENDBRANCH   1  17
BRANCH  10  23
ATOM     23  C   UNL     1       3.500   6.749  19.745  0.00  0.00    +0.000 C 
BRANCH  23  24
ATOM     24  C   UNL     1       2.159   7.416  19.384  0.00  0.00    +0.000 C 
ATOM     25  C   UNL     1       2.387   8.247  18.107  0.00  0.00    +0.000 C 
ATOM     26  C   UNL     1       1.255   9.219  17.807  0.00  0.00    +0.000 C 
ATOM     27  N   UNL     1       0.970  10.056  18.976  0.00  0.00    +0.000 NA
ATOM     28  C   UNL     1      -0.047  11.055  18.649  0.00  0.00    +0.000 C 
ATOM     29  C   UNL     1       0.524   9.230  20.102  0.00  0.00    +0.000 C 
ATOM     30  C   UNL     1       1.632   8.280  20.538  0.00  0.00    +0.000 C 
ENDBRANCH  23  24
ENDBRANCH  10  23
TORSDOF 7
ENDMDL
MODEL 6
REMARK VINA RESULT:      -6.5      2.233      5.345
REMARK  Name = 
REMARK  10 active torsions:
REMARK  status: ('A' for Active; 'I' for Inactive)
REMARK    1  A    between atoms: C_1  and  C_2
REMARK    2  A    between atoms: C_2  and  C_3
REMARK    3  A    between atoms: C_3  and  C_4
REMARK    4  A    between atoms: C_4  and  N_5
REMARK    5  A    between atoms: N_5  and  C_6
REMARK    6  A    between atoms: C_8  and  C_9
REMARK    7  A    between atoms: C_14  and  C_15
REMARK    8  A    between atoms: N_21  and  C_22
REMARK    9  A    between atoms: C_22  and  C_23
REMARK   10  A    between atoms: N_26  and  C_27
REMARK                            x       y       z     vdW  Elec       q    Type
REMARK                         _______ _______ _______ _____ _____    ______ ____
ROOT
ATOM      1  C   UNL     1       4.360   4.767  18.825  0.00  0.00    +0.000 A 
ATOM      2  N   UNL     1       4.906   4.764  17.574  0.00  0.00    +0.000 NA
ATOM      3  C   UNL     1       4.681   5.778  16.725  0.00  0.00    +0.000 A 
ATOM      4  C   UNL     1       5.288   5.678  15.361  0.00  0.00    +0.000 C 
ATOM      5  N   UNL     1       3.950   6.866  16.987  0.00  0.00    +0.000 NA
ATOM      6  C   UNL     1       3.369   6.821  18.192  0.00  0.00    +0.000 A 
ATOM      7  C   UNL     1       3.515   5.849  19.164  0.00  0.00    +0.000 A 
ATOM      8  N   UNL     1       2.773   6.196  20.287  0.00  0.00    +0.000 NA
ATOM      9  C   UNL     1       2.176   7.354  20.004  0.00  0.00    +0.000 A 
ATOM     10  N   UNL     1       2.479   7.729  18.692  0.00  0.00    +0.000 N 
ENDROOT
BRANCH   9  11
ATOM     11  C   UNL     1       1.264   8.110  20.901  0.00  0.00    +0.000 A 
ATOM     12  C   UNL     1      -0.125   7.879  20.921  0.00  0.00    +0.000 A 
ATOM     13  C   UNL     1      -0.952   8.450  21.894  0.00  0.00    +0.000 A 
ATOM     14  C   UNL     1      -0.418   9.339  22.817  0.00  0.00    +0.000 A 
ATOM     15  C   UNL     1       0.935   9.663  22.755  0.00  0.00    +0.000 A 
ATOM     16  C   UNL     1       1.772   9.050  21.806  0.00  0.00    +0.000 A 
ENDBRANCH   9  11
BRANCH   1  17
ATOM     17  N   UNL     1       4.676   3.698  19.685  0.00  0.00    +0.000 N 
ATOM     18  H   UNL     1       5.606   3.344  19.477  0.00  0.00    +0.000 HD
BRANCH  17  19
ATOM     19  C   UNL     1       3.601   2.709  19.757  0.00  0.00    +0.000 C 
BRANCH  19  20
ATOM     20  C   UNL     1       2.959   2.657  21.138  0.00  0.00    +0.000 C 
BRANCH  20  22
ATOM     21  C   UNL     1       0.924   3.030  19.712  0.00  0.00    +0.000 C 
ATOM     22  C   UNL     1       1.494   3.091  21.120  0.00  0.00    +0.000 C 
ENDBRANCH  20  22
ENDBRANCH  19  20
ENDBRANCH  17  19
ENDBRANCH   1  17
BRANCH  10  23
ATOM     23  C   UNL     1       1.975   8.880  17.984  0.00  0.00    +0.000 C 
BRANCH  23  24
ATOM     24  C   UNL     1       1.563  10.153  18.748  0.00  0.00    +0.000 C 
ATOM     25  C   UNL     1       0.048  10.343  18.541  0.00  0.00    +0.000 C 
ATOM     26  C   UNL     1      -0.452  11.720  18.956  0.00  0.00    +0.000 C 
ATOM     27  N   UNL     1       0.337  12.772  18.309  0.00  0.00    +0.000 NA
ATOM     28  C   UNL     1      -0.211  14.089  18.631  0.00  0.00    +0.000 C 
ATOM     29  C   UNL     1       1.740  12.693  18.729  0.00  0.00    +0.000 C 
ATOM     30  C   UNL     1       2.359  11.377  18.274  0.00  0.00    +0.000 C 
ENDBRANCH  23  24
ENDBRANCH  10  23
TORSDOF 7
ENDMDL
MODEL 7
REMARK VINA RESULT:      -6.5      2.692      7.135
REMARK  Name = 
REMARK  10 active torsions:
REMARK  status: ('A' for Active; 'I' for Inactive)
REMARK    1  A    between atoms: C_1  and  C_2
REMARK    2  A    between atoms: C_2  and  C_3
REMARK    3  A    between atoms: C_3  and  C_4
REMARK    4  A    between atoms: C_4  and  N_5
REMARK    5  A    between atoms: N_5  and  C_6
REMARK    6  A    between atoms: C_8  and  C_9
REMARK    7  A    between atoms: C_14  and  C_15
REMARK    8  A    between atoms: N_21  and  C_22
REMARK    9  A    between atoms: C_22  and  C_23
REMARK   10  A    between atoms: N_26  and  C_27
REMARK                            x       y       z     vdW  Elec       q    Type
REMARK                         _______ _______ _______ _____ _____    ______ ____
ROOT
ATOM      1  C   UNL     1       0.623   9.737  18.970  0.00  0.00    +0.000 A 
ATOM      2  N   UNL     1       0.031   9.895  20.190  0.00  0.00    +0.000 NA
ATOM      3  C   UNL     1       0.381   9.119  21.228  0.00  0.00    +0.000 A 
ATOM      4  C   UNL     1      -0.342   9.335  22.520  0.00  0.00    +0.000 C 
ATOM      5  N   UNL     1       1.313   8.161  21.205  0.00  0.00    +0.000 NA
ATOM      6  C   UNL     1       1.834   7.975  19.987  0.00  0.00    +0.000 A 
ATOM      7  C   UNL     1       1.573   8.698  18.838  0.00  0.00    +0.000 A 
ATOM      8  N   UNL     1       2.351   8.213  17.793  0.00  0.00    +0.000 NA
ATOM      9  C   UNL     1       3.068   7.205  18.291  0.00  0.00    +0.000 A 
ATOM     10  N   UNL     1       2.720   6.999  19.629  0.00  0.00    +0.000 N 
ENDROOT
BRANCH   9  11
ATOM     11  C   UNL     1       4.038   6.366  17.540  0.00  0.00    +0.000 A 
ATOM     12  C   UNL     1       3.720   5.067  17.101  0.00  0.00    +0.000 A 
ATOM     13  C   UNL     1       4.556   4.356  16.235  0.00  0.00    +0.000 A 
ATOM     14  C   UNL     1       5.779   4.898  15.859  0.00  0.00    +0.000 A 
ATOM     15  C   UNL     1       6.163   6.138  16.362  0.00  0.00    +0.000 A 
ATOM     16  C   UNL     1       5.298   6.870  17.193  0.00  0.00    +0.000 A 
ENDBRANCH   9  11
BRANCH   1  17
ATOM     17  N   UNL     1       0.247  10.616  17.937  0.00  0.00    +0.000 N 
ATOM     18  H   UNL     1       0.814  11.459  17.971  0.00  0.00    +0.000 HD
BRANCH  17  19
ATOM     19  C   UNL     1      -1.202  10.805  17.871  0.00  0.00    +0.000 C 
BRANCH  19  20
ATOM     20  C   UNL     1      -1.877   9.768  16.980  0.00  0.00    +0.000 C 
BRANCH  20  22
ATOM     21  C   UNL     1      -3.338  10.477  15.063  0.00  0.00    +0.000 C 
ATOM     22  C   UNL     1      -3.284  10.187  16.555  0.00  0.00    +0.000 C 
ENDBRANCH  20  22
ENDBRANCH  19  20
ENDBRANCH  17  19
ENDBRANCH   1  17
BRANCH  10  23
ATOM     23  C   UNL     1       3.217   5.963  20.502  0.00  0.00    +0.000 C 
BRANCH  23  24
ATOM     24  C   UNL     1       2.505   4.600  20.588  0.00  0.00    +0.000 C 
ATOM     25  C   UNL     1       3.394   3.570  19.865  0.00  0.00    +0.000 C 
ATOM     26  C   UNL     1       2.687   2.253  19.579  0.00  0.00    +0.000 C 
ATOM     27  N   UNL     1       1.421   2.489  18.879  0.00  0.00    +0.000 NA
ATOM     28  C   UNL     1       0.796   1.217  18.519  0.00  0.00    +0.000 C 
ATOM     29  C   UNL     1       0.512   3.279  19.715  0.00  0.00    +0.000 C 
ATOM     30  C   UNL     1       1.097   4.661  19.981  0.00  0.00    +0.000 C 
ENDBRANCH  23  24
ENDBRANCH  10  23
TORSDOF 7
ENDMDL
MODEL 8
REMARK VINA RESULT:      -6.5      3.327      7.238
REMARK  Name = 
REMARK  10 active torsions:
REMARK  status: ('A' for Active; 'I' for Inactive)
REMARK    1  A    between atoms: C_1  and  C_2
REMARK    2  A    between atoms: C_2  and  C_3
REMARK    3  A    between atoms: C_3  and  C_4
REMARK    4  A    between atoms: C_4  and  N_5
REMARK    5  A    between atoms: N_5  and  C_6
REMARK    6  A    between atoms: C_8  and  C_9
REMARK    7  A    between atoms: C_14  and  C_15
REMARK    8  A    between atoms: N_21  and  C_22
REMARK    9  A    between atoms: C_22  and  C_23
REMARK   10  A    between atoms: N_26  and  C_27
REMARK                            x       y       z     vdW  Elec       q    Type
REMARK                         _______ _______ _______ _____ _____    ______ ____
ROOT
ATOM      1  C   UNL     1       2.047   6.831  20.180  0.00  0.00    +0.000 A 
ATOM      2  N   UNL     1       2.897   6.597  19.138  0.00  0.00    +0.000 NA
ATOM      3  C   UNL     1       3.145   7.553  18.229  0.00  0.00    +0.000 A 
ATOM      4  C   UNL     1       4.062   7.201  17.100  0.00  0.00    +0.000 C 
ATOM      5  N   UNL     1       2.636   8.788  18.237  0.00  0.00    +0.000 NA
ATOM      6  C   UNL     1       1.754   8.977  19.226  0.00  0.00    +0.000 A 
ATOM      7  C   UNL     1       1.408   8.091  20.229  0.00  0.00    +0.000 A 
ATOM      8  N   UNL     1       0.486   8.688  21.083  0.00  0.00    +0.000 NA
ATOM      9  C   UNL     1       0.265   9.913  20.604  0.00  0.00    +0.000 A 
ATOM     10  N   UNL     1       0.990  10.092  19.423  0.00  0.00    +0.000 N 
ENDROOT
BRANCH   9  11
ATOM     11  C   UNL     1      -0.661  10.922  21.180  0.00  0.00    +0.000 A 
ATOM     12  C   UNL     1      -0.542  11.375  22.508  0.00  0.00    +0.000 A 
ATOM     13  C   UNL     1      -1.288  12.456  22.987  0.00  0.00    +0.000 A 
ATOM     14  C   UNL     1      -2.238  13.053  22.170  0.00  0.00    +0.000 A 
ATOM     15  C   UNL     1      -2.448  12.558  20.885  0.00  0.00    +0.000 A 
ATOM     16  C   UNL     1      -1.663  11.502  20.391  0.00  0.00    +0.000 A 
ENDBRANCH   9  11
BRANCH   1  17
ATOM     17  N   UNL     1       1.868   5.805  21.128  0.00  0.00    +0.000 N 
ATOM     18  H   UNL     1       2.338   6.045  21.997  0.00  0.00    +0.000 HD
BRANCH  17  19
ATOM     19  C   UNL     1       2.157   4.483  20.573  0.00  0.00    +0.000 C 
BRANCH  19  20
ATOM     20  C   UNL     1       0.900   3.785  20.067  0.00  0.00    +0.000 C 
BRANCH  20  22
ATOM     21  C   UNL     1       1.575   3.924  17.651  0.00  0.00    +0.000 C 
ATOM     22  C   UNL     1       1.143   3.000  18.779  0.00  0.00    +0.000 C 
ENDBRANCH  20  22
ENDBRANCH  19  20
ENDBRANCH  17  19
ENDBRANCH   1  17
BRANCH  10  23
ATOM     23  C   UNL     1       0.971  11.252  18.565  0.00  0.00    +0.000 C 
BRANCH  23  24
ATOM     24  C   UNL     1       1.667  12.557  18.993  0.00  0.00    +0.000 C 
ATOM     25  C   UNL     1       0.641  13.696  18.846  0.00  0.00    +0.000 C 
ATOM     26  C   UNL     1       1.261  15.085  18.917  0.00  0.00    +0.000 C 
ATOM     27  N   UNL     1       2.368  15.204  17.964  0.00  0.00    +0.000 NA
ATOM     28  C   UNL     1       2.894  16.569  17.965  0.00  0.00    +0.000 C 
ATOM     29  C   UNL     1       3.434  14.252  18.294  0.00  0.00    +0.000 C 
ATOM     30  C   UNL     1       2.931  12.820  18.161  0.00  0.00    +0.000 C 
ENDBRANCH  23  24
ENDBRANCH  10  23
TORSDOF 7
ENDMDL
MODEL 9
REMARK VINA RESULT:      -6.4      2.148      7.419
REMARK  Name = 
REMARK  10 active torsions:
REMARK  status: ('A' for Active; 'I' for Inactive)
REMARK    1  A    between atoms: C_1  and  C_2
REMARK    2  A    between atoms: C_2  and  C_3
REMARK    3  A    between atoms: C_3  and  C_4
REMARK    4  A    between atoms: C_4  and  N_5
REMARK    5  A    between atoms: N_5  and  C_6
REMARK    6  A    between atoms: C_8  and  C_9
REMARK    7  A    between atoms: C_14  and  C_15
REMARK    8  A    between atoms: N_21  and  C_22
REMARK    9  A    between atoms: C_22  and  C_23
REMARK   10  A    between atoms: N_26  and  C_27
REMARK                            x       y       z     vdW  Elec       q    Type
REMARK                         _______ _______ _______ _____ _____    ______ ____
ROOT
ATOM      1  C   UNL     1       1.175   8.771  20.772  0.00  0.00    +0.000 A 
ATOM      2  N   UNL     1       1.181  10.032  20.249  0.00  0.00    +0.000 NA
ATOM      3  C   UNL     1       1.634  10.256  19.006  0.00  0.00    +0.000 A 
ATOM      4  C   UNL     1       1.638  11.672  18.523  0.00  0.00    +0.000 C 
ATOM      5  N   UNL     1       2.094   9.325  18.164  0.00  0.00    +0.000 NA
ATOM      6  C   UNL     1       2.143   8.108  18.717  0.00  0.00    +0.000 A 
ATOM      7  C   UNL     1       1.708   7.733  19.975  0.00  0.00    +0.000 A 
ATOM      8  N   UNL     1       1.900   6.367  20.148  0.00  0.00    +0.000 NA
ATOM      9  C   UNL     1       2.451   5.916  19.021  0.00  0.00    +0.000 A 
ATOM     10  N   UNL     1       2.668   6.984  18.145  0.00  0.00    +0.000 N 
ENDROOT
BRANCH   9  11
ATOM     11  C   UNL     1       2.851   4.512  18.744  0.00  0.00    +0.000 A 
ATOM     12  C   UNL     1       3.910   3.887  19.431  0.00  0.00    +0.000 A 
ATOM     13  C   UNL     1       4.160   2.516  19.309  0.00  0.00    +0.000 A 
ATOM     14  C   UNL     1       3.410   1.756  18.422  0.00  0.00    +0.000 A 
ATOM     15  C   UNL     1       2.424   2.370  17.655  0.00  0.00    +0.000 A 
ATOM     16  C   UNL     1       2.143   3.738  17.816  0.00  0.00    +0.000 A 
ENDBRANCH   9  11
BRANCH   1  17
ATOM     17  N   UNL     1       0.640   8.596  22.063  0.00  0.00    +0.000 N 
ATOM     18  H   UNL     1      -0.207   8.035  22.018  0.00  0.00    +0.000 HD
BRANCH  17  19
ATOM     19  C   UNL     1       0.550   9.856  22.801  0.00  0.00    +0.000 C 
BRANCH  19  20
ATOM     20  C   UNL     1      -0.890  10.221  23.140  0.00  0.00    +0.000 C 
BRANCH  20  22
ATOM     21  C   UNL     1      -2.526  12.127  23.212  0.00  0.00    +0.000 C 
ATOM     22  C   UNL     1      -1.334  11.528  22.482  0.00  0.00    +0.000 C 
ENDBRANCH  20  22
ENDBRANCH  19  20
ENDBRANCH  17  19
ENDBRANCH   1  17
BRANCH  10  23
ATOM     23  C   UNL     1       3.305   6.925  16.852  0.00  0.00    +0.000 C 
BRANCH  23  24
ATOM     24  C   UNL     1       4.823   6.690  16.735  0.00  0.00    +0.000 C 
ATOM     25  C   UNL     1       5.028   5.250  16.229  0.00  0.00    +0.000 C 
ATOM     26  C   UNL     1       6.462   4.757  16.369  0.00  0.00    +0.000 C 
ATOM     27  N   UNL     1       6.939   4.940  17.743  0.00  0.00    +0.000 NA
ATOM     28  C   UNL     1       8.278   4.373  17.895  0.00  0.00    +0.000 C 
ATOM     29  C   UNL     1       6.950   6.363  18.096  0.00  0.00    +0.000 C 
ATOM     30  C   UNL     1       5.535   6.929  18.074  0.00  0.00    +0.000 C 
ENDBRANCH  23  24
ENDBRANCH  10  23
TORSDOF 7
ENDMDL
