MODEL 1
REMARK VINA RESULT:      -7.4      0.000      0.000
REMARK  Name = 
REMARK  10 active torsions:
REMARK  status: ('A' for Active; 'I' for Inactive)
REMARK    1  A    between atoms: C_2  and  C_3
REMARK    2  A    between atoms: C_3  and  N_4
REMARK    3  A    between atoms: N_4  and  C_5
REMARK    4  A    between atoms: N_4  and  C_13
REMARK    5  A    between atoms: C_5  and  C_6
REMARK    6  A    between atoms: C_13  and  C_14
REMARK    7  A    between atoms: C_14  and  O_15
REMARK    8  A    between atoms: C_14  and  C_16
REMARK    9  A    between atoms: C_14  and  C_22
REMARK   10  A    between atoms: C_16  and  N_17
REMARK                            x       y       z     vdW  Elec       q    Type
REMARK                         _______ _______ _______ _____ _____    ______ ____
ROOT
ATOM      1  C   UNL     1       6.361   4.972  17.344  0.00  0.00    +0.000 C 
ENDROOT
BRANCH   1   2
ATOM      2  C   UNL     1       7.124   6.271  17.723  0.00  0.00    +0.000 A 
ATOM      3  C   UNL     1       6.865   7.468  17.017  0.00  0.00    +0.000 A 
ATOM      4  C   UNL     1       7.441   8.682  17.406  0.00  0.00    +0.000 A 
ATOM      5  C   UNL     1       8.325   8.714  18.473  0.00  0.00    +0.000 A 
ATOM      6  F   UNL     1       8.881   9.875  18.841  0.00  0.00    +0.000 F 
ATOM      7  C   UNL     1       8.643   7.558  19.160  0.00  0.00    +0.000 A 
ATOM      8  C   UNL     1       8.039   6.359  18.792  0.00  0.00    +0.000 A 
ATOM      9  F   UNL     1       8.370   5.292  19.529  0.00  0.00    +0.000 F 
ENDBRANCH   1   2
BRANCH   1  10
ATOM     10  O   UNL     1       7.375   4.000  16.987  0.00  0.00    +0.000 OA
ATOM     11  H   UNL     1       8.223   4.486  16.974  0.00  0.00    +0.000 HD
ENDBRANCH   1  10
BRANCH   1  12
ATOM     12  C   UNL     1       5.564   4.366  18.571  0.00  0.00    +0.000 C 
BRANCH  12  13
ATOM     13  N   UNL     1       4.062   4.324  18.668  0.00  0.00    +0.000 NA
BRANCH  13  14
ATOM     14  C   UNL     1       3.690   2.956  19.152  0.00  0.00    +0.000 C 
BRANCH  14  16
ATOM     15  C   UNL     1       1.373   3.206  18.197  0.00  0.00    +0.000 C 
ATOM     16  C   UNL     1       2.217   2.649  19.076  0.00  0.00    +0.000 C 
ENDBRANCH  14  16
ENDBRANCH  13  14
BRANCH  13  17
ATOM     17  C   UNL     1       3.605   5.292  19.690  0.00  0.00    +0.000 C 
BRANCH  17  18
ATOM     18  C   UNL     1       2.899   6.531  19.207  0.00  0.00    +0.000 A 
ATOM     19  C   UNL     1       3.229   7.127  17.982  0.00  0.00    +0.000 A 
ATOM     20  C   UNL     1       2.671   8.358  17.631  0.00  0.00    +0.000 A 
ATOM     21  C   UNL     1       1.780   9.000  18.494  0.00  0.00    +0.000 A 
ATOM     22  C   UNL     1       1.434   8.406  19.705  0.00  0.00    +0.000 A 
ATOM     23  C   UNL     1       1.995   7.183  20.051  0.00  0.00    +0.000 A 
ATOM     24  F   UNL     1       1.673   6.644  21.237  0.00  0.00    +0.000 F 
ENDBRANCH  17  18
ENDBRANCH  13  17
ENDBRANCH  12  13
ENDBRANCH   1  12
BRANCH   1  25
ATOM     25  C   UNL     1       5.559   5.229  16.041  0.00  0.00    +0.000 C 
BRANCH  25  26
ATOM     26  N   UNL     1       6.176   4.796  14.815  0.00  0.00    +0.000 N 
ATOM     27  C   UNL     1       5.675   3.918  13.907  0.00  0.00    +0.000 A 
ATOM     28  N   UNL     1       6.508   3.806  12.900  0.00  0.00    +0.000 NA
ATOM     29  C   UNL     1       7.512   4.669  13.237  0.00  0.00    +0.000 A 
ATOM     30  N   UNL     1       7.342   5.310  14.394  0.00  0.00    +0.000 NA
ENDBRANCH  25  26
ENDBRANCH   1  25
TORSDOF 10
ENDMDL
MODEL 2
REMARK VINA RESULT:      -7.4      1.291      1.689
REMARK  Name = 
REMARK  10 active torsions:
REMARK  status: ('A' for Active; 'I' for Inactive)
REMARK    1  A    between atoms: C_2  and  C_3
REMARK    2  A    between atoms: C_3  and  N_4
REMARK    3  A    between atoms: N_4  and  C_5
REMARK    4  A    between atoms: N_4  and  C_13
REMARK    5  A    between atoms: C_5  and  C_6
REMARK    6  A    between atoms: C_13  and  C_14
REMARK    7  A    between atoms: C_14  and  O_15
REMARK    8  A    between atoms: C_14  and  C_16
REMARK    9  A    between atoms: C_14  and  C_22
REMARK   10  A    between atoms: C_16  and  N_17
REMARK                            x       y       z     vdW  Elec       q    Type
REMARK                         _______ _______ _______ _____ _____    ______ ____
ROOT
ATOM      1  C   UNL     1       5.243   4.465  16.392  0.00  0.00    +0.000 C 
ENDROOT
BRANCH   1   2
ATOM      2  C   UNL     1       6.286   5.330  17.150  0.00  0.00    +0.000 A 
ATOM      3  C   UNL     1       6.769   6.522  16.564  0.00  0.00    +0.000 A 
ATOM      4  C   UNL     1       7.615   7.388  17.264  0.00  0.00    +0.000 A 
ATOM      5  C   UNL     1       8.038   7.054  18.542  0.00  0.00    +0.000 A 
ATOM      6  F   UNL     1       8.853   7.880  19.209  0.00  0.00    +0.000 F 
ATOM      7  C   UNL     1       7.629   5.875  19.133  0.00  0.00    +0.000 A 
ATOM      8  C   UNL     1       6.756   5.034  18.447  0.00  0.00    +0.000 A 
ATOM      9  F   UNL     1       6.378   3.930  19.101  0.00  0.00    +0.000 F 
ENDBRANCH   1   2
BRANCH   1  10
ATOM     10  O   UNL     1       5.892   3.199  16.118  0.00  0.00    +0.000 OA
ATOM     11  H   UNL     1       5.517   2.880  15.274  0.00  0.00    +0.000 HD
ENDBRANCH   1  10
BRANCH   1  12
ATOM     12  C   UNL     1       3.974   4.140  17.283  0.00  0.00    +0.000 C 
BRANCH  12  13
ATOM     13  N   UNL     1       2.857   5.112  17.554  0.00  0.00    +0.000 NA
BRANCH  13  14
ATOM     14  C   UNL     1       1.704   4.320  18.091  0.00  0.00    +0.000 C 
BRANCH  14  16
ATOM     15  C   UNL     1       0.970   3.402  20.319  0.00  0.00    +0.000 C 
ATOM     16  C   UNL     1       1.942   3.723  19.454  0.00  0.00    +0.000 C 
ENDBRANCH  14  16
ENDBRANCH  13  14
BRANCH  13  17
ATOM     17  C   UNL     1       3.271   6.060  18.612  0.00  0.00    +0.000 C 
BRANCH  17  18
ATOM     18  C   UNL     1       2.472   7.328  18.760  0.00  0.00    +0.000 A 
ATOM     19  C   UNL     1       2.463   8.306  17.756  0.00  0.00    +0.000 A 
ATOM     20  C   UNL     1       1.843   9.536  17.984  0.00  0.00    +0.000 A 
ATOM     21  C   UNL     1       1.225   9.797  19.208  0.00  0.00    +0.000 A 
ATOM     22  C   UNL     1       1.214   8.825  20.204  0.00  0.00    +0.000 A 
ATOM     23  C   UNL     1       1.836   7.604  19.975  0.00  0.00    +0.000 A 
ATOM     24  F   UNL     1       1.842   6.693  20.959  0.00  0.00    +0.000 F 
ENDBRANCH  17  18
ENDBRANCH  13  17
ENDBRANCH  12  13
ENDBRANCH   1  12
BRANCH   1  25
ATOM     25  C   UNL     1       4.982   5.105  15.003  0.00  0.00    +0.000 C 
BRANCH  25  26
ATOM     26  N   UNL     1       5.597   4.456  13.876  0.00  0.00    +0.000 N 
ATOM     27  C   UNL     1       6.877   4.601  13.440  0.00  0.00    +0.000 A 
ATOM     28  N   UNL     1       7.079   3.816  12.408  0.00  0.00    +0.000 NA
ATOM     29  C   UNL     1       5.876   3.185  12.263  0.00  0.00    +0.000 A 
ATOM     30  N   UNL     1       4.944   3.534  13.152  0.00  0.00    +0.000 NA
ENDBRANCH  25  26
ENDBRANCH   1  25
TORSDOF 10
ENDMDL
MODEL 3
REMARK VINA RESULT:      -7.2      2.036      3.692
REMARK  Name = 
REMARK  10 active torsions:
REMARK  status: ('A' for Active; 'I' for Inactive)
REMARK    1  A    between atoms: C_2  and  C_3
REMARK    2  A    between atoms: C_3  and  N_4
REMARK    3  A    between atoms: N_4  and  C_5
REMARK    4  A    between atoms: N_4  and  C_13
REMARK    5  A    between atoms: C_5  and  C_6
REMARK    6  A    between atoms: C_13  and  C_14
REMARK    7  A    between atoms: C_14  and  O_15
REMARK    8  A    between atoms: C_14  and  C_16
REMARK    9  A    between atoms: C_14  and  C_22
REMARK   10  A    between atoms: C_16  and  N_17
REMARK                            x       y       z     vdW  Elec       q    Type
REMARK                         _______ _______ _______ _____ _____    ______ ____
ROOT
ATOM      1  C   UNL     1       5.639   4.272  15.597  0.00  0.00    +0.000 C 
ENDROOT
BRANCH   1   2
ATOM      2  C   UNL     1       6.379   5.213  16.586  0.00  0.00    +0.000 A 
ATOM      3  C   UNL     1       7.334   4.679  17.481  0.00  0.00    +0.000 A 
ATOM      4  C   UNL     1       8.107   5.508  18.301  0.00  0.00    +0.000 A 
ATOM      5  C   UNL     1       7.905   6.880  18.280  0.00  0.00    +0.000 A 
ATOM      6  F   UNL     1       8.640   7.672  19.070  0.00  0.00    +0.000 F 
ATOM      7  C   UNL     1       6.948   7.438  17.456  0.00  0.00    +0.000 A 
ATOM      8  C   UNL     1       6.207   6.613  16.614  0.00  0.00    +0.000 A 
ATOM      9  F   UNL     1       5.326   7.233  15.820  0.00  0.00    +0.000 F 
ENDBRANCH   1   2
BRANCH   1  10
ATOM     10  O   UNL     1       6.383   3.028  15.592  0.00  0.00    +0.000 OA
ATOM     11  H   UNL     1       5.930   2.445  14.951  0.00  0.00    +0.000 HD
ENDBRANCH   1  10
BRANCH   1  12
ATOM     12  C   UNL     1       4.174   3.922  16.087  0.00  0.00    +0.000 C 
BRANCH  12  13
ATOM     13  N   UNL     1       3.724   3.978  17.522  0.00  0.00    +0.000 NA
BRANCH  13  14
ATOM     14  C   UNL     1       2.898   5.218  17.676  0.00  0.00    +0.000 C 
BRANCH  14  16
ATOM     15  C   UNL     1       2.405   6.574  19.741  0.00  0.00    +0.000 C 
ATOM     16  C   UNL     1       3.279   6.076  18.855  0.00  0.00    +0.000 C 
ENDBRANCH  14  16
ENDBRANCH  13  14
BRANCH  13  17
ATOM     17  C   UNL     1       2.845   2.824  17.811  0.00  0.00    +0.000 C 
BRANCH  17  18
ATOM     18  C   UNL     1       2.326   2.681  19.218  0.00  0.00    +0.000 A 
ATOM     19  C   UNL     1       0.969   2.867  19.517  0.00  0.00    +0.000 A 
ATOM     20  C   UNL     1       0.542   2.883  20.846  0.00  0.00    +0.000 A 
ATOM     21  C   UNL     1       1.461   2.710  21.883  0.00  0.00    +0.000 A 
ATOM     22  C   UNL     1       2.808   2.508  21.594  0.00  0.00    +0.000 A 
ATOM     23  C   UNL     1       3.228   2.497  20.270  0.00  0.00    +0.000 A 
ATOM     24  F   UNL     1       4.535   2.333  20.014  0.00  0.00    +0.000 F 
ENDBRANCH  17  18
ENDBRANCH  13  17
ENDBRANCH  12  13
ENDBRANCH   1  12
BRANCH   1  25
ATOM     25  C   UNL     1       5.784   4.846  14.163  0.00  0.00    +0.000 C 
BRANCH  25  26
ATOM     26  N   UNL     1       5.808   3.886  13.090  0.00  0.00    +0.000 N 
ATOM     27  C   UNL     1       4.743   3.365  12.428  0.00  0.00    +0.000 A 
ATOM     28  N   UNL     1       5.166   2.553  11.488  0.00  0.00    +0.000 NA
ATOM     29  C   UNL     1       6.524   2.630  11.606  0.00  0.00    +0.000 A 
ATOM     30  N   UNL     1       6.963   3.450  12.564  0.00  0.00    +0.000 NA
ENDBRANCH  25  26
ENDBRANCH   1  25
TORSDOF 10
ENDMDL
MODEL 4
REMARK VINA RESULT:      -7.1      2.682      3.720
REMARK  Name = 
REMARK  10 active torsions:
REMARK  status: ('A' for Active; 'I' for Inactive)
REMARK    1  A    between atoms: C_2  and  C_3
REMARK    2  A    between atoms: C_3  and  N_4
REMARK    3  A    between atoms: N_4  and  C_5
REMARK    4  A    between atoms: N_4  and  C_13
REMARK    5  A    between atoms: C_5  and  C_6
REMARK    6  A    between atoms: C_13  and  C_14
REMARK    7  A    between atoms: C_14  and  O_15
REMARK    8  A    between atoms: C_14  and  C_16
REMARK    9  A    between atoms: C_14  and  C_22
REMARK   10  A    between atoms: C_16  and  N_17
REMARK                            x       y       z     vdW  Elec       q    Type
REMARK                         _______ _______ _______ _____ _____    ______ ____
ROOT
ATOM      1  C   UNL     1       4.759   4.395  18.950  0.00  0.00    +0.000 C 
ENDROOT
BRANCH   1   2
ATOM      2  C   UNL     1       5.704   5.534  18.480  0.00  0.00    +0.000 A 
ATOM      3  C   UNL     1       7.003   5.639  19.027  0.00  0.00    +0.000 A 
ATOM      4  C   UNL     1       7.924   6.574  18.544  0.00  0.00    +0.000 A 
ATOM      5  C   UNL     1       7.549   7.456  17.542  0.00  0.00    +0.000 A 
ATOM      6  F   UNL     1       8.429   8.354  17.084  0.00  0.00    +0.000 F 
ATOM      7  C   UNL     1       6.274   7.419  17.012  0.00  0.00    +0.000 A 
ATOM      8  C   UNL     1       5.372   6.462  17.470  0.00  0.00    +0.000 A 
ATOM      9  F   UNL     1       4.170   6.467  16.882  0.00  0.00    +0.000 F 
ENDBRANCH   1   2
BRANCH   1  10
ATOM     10  O   UNL     1       5.616   3.353  19.478  0.00  0.00    +0.000 OA
ATOM     11  H   UNL     1       6.271   3.804  20.046  0.00  0.00    +0.000 HD
ENDBRANCH   1  10
BRANCH   1  12
ATOM     12  C   UNL     1       3.816   4.852  20.138  0.00  0.00    +0.000 C 
BRANCH  12  13
ATOM     13  N   UNL     1       2.497   5.552  19.952  0.00  0.00    +0.000 NA
BRANCH  13  14
ATOM     14  C   UNL     1       1.489   4.823  20.787  0.00  0.00    +0.000 C 
BRANCH  14  16
ATOM     15  C   UNL     1       1.379   2.530  21.825  0.00  0.00    +0.000 C 
ATOM     16  C   UNL     1       2.051   3.660  21.563  0.00  0.00    +0.000 C 
ENDBRANCH  14  16
ENDBRANCH  13  14
BRANCH  13  17
ATOM     17  C   UNL     1       2.590   6.932  20.479  0.00  0.00    +0.000 C 
BRANCH  17  18
ATOM     18  C   UNL     1       1.824   8.006  19.753  0.00  0.00    +0.000 A 
ATOM     19  C   UNL     1       2.085   8.304  18.408  0.00  0.00    +0.000 A 
ATOM     20  C   UNL     1       1.473   9.405  17.806  0.00  0.00    +0.000 A 
ATOM     21  C   UNL     1       0.597  10.211  18.535  0.00  0.00    +0.000 A 
ATOM     22  C   UNL     1       0.319   9.911  19.866  0.00  0.00    +0.000 A 
ATOM     23  C   UNL     1       0.934   8.817  20.463  0.00  0.00    +0.000 A 
ATOM     24  F   UNL     1       0.678   8.566  21.755  0.00  0.00    +0.000 F 
ENDBRANCH  17  18
ENDBRANCH  13  17
ENDBRANCH  12  13
ENDBRANCH   1  12
BRANCH   1  25
ATOM     25  C   UNL     1       4.072   3.774  17.705  0.00  0.00    +0.000 C 
BRANCH  25  26
ATOM     26  N   UNL     1       2.864   3.030  17.947  0.00  0.00    +0.000 N 
ATOM     27  C   UNL     1       1.597   3.386  17.610  0.00  0.00    +0.000 A 
ATOM     28  N   UNL     1       0.767   2.432  17.959  0.00  0.00    +0.000 NA
ATOM     29  C   UNL     1       1.594   1.488  18.497  0.00  0.00    +0.000 A 
ATOM     30  N   UNL     1       2.891   1.805  18.493  0.00  0.00    +0.000 NA
ENDBRANCH  25  26
ENDBRANCH   1  25
TORSDOF 10
ENDMDL
MODEL 5
REMARK VINA RESULT:      -7.1      1.117      1.509
REMARK  Name = 
REMARK  10 active torsions:
REMARK  status: ('A' for Active; 'I' for Inactive)
REMARK    1  A    between atoms: C_2  and  C_3
REMARK    2  A    between atoms: C_3  and  N_4
REMARK    3  A    between atoms: N_4  and  C_5
REMARK    4  A    between atoms: N_4  and  C_13
REMARK    5  A    between atoms: C_5  and  C_6
REMARK    6  A    between atoms: C_13  and  C_14
REMARK    7  A    between atoms: C_14  and  O_15
REMARK    8  A    between atoms: C_14  and  C_16
REMARK    9  A    between atoms: C_14  and  C_22
REMARK   10  A    between atoms: C_16  and  N_17
REMARK                            x       y       z     vdW  Elec       q    Type
REMARK                         _______ _______ _______ _____ _____    ______ ____
ROOT
ATOM      1  C   UNL     1       5.920   5.241  17.265  0.00  0.00    +0.000 C 
ENDROOT
BRANCH   1   2
ATOM      2  C   UNL     1       6.863   6.399  17.691  0.00  0.00    +0.000 A 
ATOM      3  C   UNL     1       6.755   7.659  17.061  0.00  0.00    +0.000 A 
ATOM      4  C   UNL     1       7.502   8.758  17.498  0.00  0.00    +0.000 A 
ATOM      5  C   UNL     1       8.408   8.606  18.536  0.00  0.00    +0.000 A 
ATOM      6  F   UNL     1       9.127   9.657  18.950  0.00  0.00    +0.000 F 
ATOM      7  C   UNL     1       8.579   7.380  19.148  0.00  0.00    +0.000 A 
ATOM      8  C   UNL     1       7.807   6.298  18.734  0.00  0.00    +0.000 A 
ATOM      9  F   UNL     1       8.005   5.154  19.400  0.00  0.00    +0.000 F 
ENDBRANCH   1   2
BRANCH   1  10
ATOM     10  O   UNL     1       6.768   4.081  17.071  0.00  0.00    +0.000 OA
ATOM     11  H   UNL     1       6.623   3.508  17.849  0.00  0.00    +0.000 HD
ENDBRANCH   1  10
BRANCH   1  12
ATOM     12  C   UNL     1       4.887   4.860  18.404  0.00  0.00    +0.000 C 
BRANCH  12  13
ATOM     13  N   UNL     1       3.434   5.256  18.397  0.00  0.00    +0.000 NA
BRANCH  13  14
ATOM     14  C   UNL     1       2.634   3.992  18.485  0.00  0.00    +0.000 C 
BRANCH  14  16
ATOM     15  C   UNL     1       3.336   1.605  18.093  0.00  0.00    +0.000 C 
ATOM     16  C   UNL     1       3.167   2.858  17.649  0.00  0.00    +0.000 C 
ENDBRANCH  14  16
ENDBRANCH  13  14
BRANCH  13  17
ATOM     17  C   UNL     1       3.132   6.054  19.605  0.00  0.00    +0.000 C 
BRANCH  17  18
ATOM     18  C   UNL     1       2.461   7.388  19.406  0.00  0.00    +0.000 A 
ATOM     19  C   UNL     1       1.609   7.928  20.379  0.00  0.00    +0.000 A 
ATOM     20  C   UNL     1       0.881   9.087  20.105  0.00  0.00    +0.000 A 
ATOM     21  C   UNL     1       1.000   9.717  18.864  0.00  0.00    +0.000 A 
ATOM     22  C   UNL     1       1.858   9.197  17.899  0.00  0.00    +0.000 A 
ATOM     23  C   UNL     1       2.577   8.041  18.175  0.00  0.00    +0.000 A 
ATOM     24  F   UNL     1       3.373   7.539  17.220  0.00  0.00    +0.000 F 
ENDBRANCH  17  18
ENDBRANCH  13  17
ENDBRANCH  12  13
ENDBRANCH   1  12
BRANCH   1  25
ATOM     25  C   UNL     1       5.336   5.565  15.865  0.00  0.00    +0.000 C 
BRANCH  25  26
ATOM     26  N   UNL     1       6.013   4.978  14.739  0.00  0.00    +0.000 N 
ATOM     27  C   UNL     1       5.521   4.056  13.870  0.00  0.00    +0.000 A 
ATOM     28  N   UNL     1       6.421   3.794  12.953  0.00  0.00    +0.000 NA
ATOM     29  C   UNL     1       7.458   4.613  13.299  0.00  0.00    +0.000 A 
ATOM     30  N   UNL     1       7.245   5.369  14.378  0.00  0.00    +0.000 NA
ENDBRANCH  25  26
ENDBRANCH   1  25
TORSDOF 10
ENDMDL
MODEL 6
REMARK VINA RESULT:      -7.1      1.610      3.315
REMARK  Name = 
REMARK  10 active torsions:
REMARK  status: ('A' for Active; 'I' for Inactive)
REMARK    1  A    between atoms: C_2  and  C_3
REMARK    2  A    between atoms: C_3  and  N_4
REMARK    3  A    between atoms: N_4  and  C_5
REMARK    4  A    between atoms: N_4  and  C_13
REMARK    5  A    between atoms: C_5  and  C_6
REMARK    6  A    between atoms: C_13  and  C_14
REMARK    7  A    between atoms: C_14  and  O_15
REMARK    8  A    between atoms: C_14  and  C_16
REMARK    9  A    between atoms: C_14  and  C_22
REMARK   10  A    between atoms: C_16  and  N_17
REMARK                            x       y       z     vdW  Elec       q    Type
REMARK                         _______ _______ _______ _____ _____    ______ ____
ROOT
ATOM      1  C   UNL     1       5.872   5.347  17.812  0.00  0.00    +0.000 C 
ENDROOT
BRANCH   1   2
ATOM      2  C   UNL     1       6.826   6.565  17.946  0.00  0.00    +0.000 A 
ATOM      3  C   UNL     1       6.569   7.743  17.208  0.00  0.00    +0.000 A 
ATOM      4  C   UNL     1       7.334   8.900  17.392  0.00  0.00    +0.000 A 
ATOM      5  C   UNL     1       8.401   8.886  18.277  0.00  0.00    +0.000 A 
ATOM      6  F   UNL     1       9.136   9.991  18.448  0.00  0.00    +0.000 F 
ATOM      7  C   UNL     1       8.716   7.741  18.982  0.00  0.00    +0.000 A 
ATOM      8  C   UNL     1       7.930   6.604  18.824  0.00  0.00    +0.000 A 
ATOM      9  F   UNL     1       8.278   5.548  19.569  0.00  0.00    +0.000 F 
ENDBRANCH   1   2
BRANCH   1  10
ATOM     10  O   UNL     1       5.645   4.864  19.159  0.00  0.00    +0.000 OA
ATOM     11  H   UNL     1       5.983   3.948  19.178  0.00  0.00    +0.000 HD
ENDBRANCH   1  10
BRANCH   1  12
ATOM     12  C   UNL     1       4.456   5.757  17.233  0.00  0.00    +0.000 C 
BRANCH  12  13
ATOM     13  N   UNL     1       3.340   6.343  18.057  0.00  0.00    +0.000 NA
BRANCH  13  14
ATOM     14  C   UNL     1       3.086   7.724  17.535  0.00  0.00    +0.000 C 
BRANCH  14  16
ATOM     15  C   UNL     1       1.710   8.596  19.456  0.00  0.00    +0.000 C 
ATOM     16  C   UNL     1       1.888   8.407  18.142  0.00  0.00    +0.000 C 
ENDBRANCH  14  16
ENDBRANCH  13  14
BRANCH  13  17
ATOM     17  C   UNL     1       2.104   5.558  17.846  0.00  0.00    +0.000 C 
BRANCH  17  18
ATOM     18  C   UNL     1       1.816   4.441  18.815  0.00  0.00    +0.000 A 
ATOM     19  C   UNL     1       1.500   4.702  20.155  0.00  0.00    +0.000 A 
ATOM     20  C   UNL     1       1.393   3.649  21.065  0.00  0.00    +0.000 A 
ATOM     21  C   UNL     1       1.594   2.332  20.647  0.00  0.00    +0.000 A 
ATOM     22  C   UNL     1       1.891   2.064  19.313  0.00  0.00    +0.000 A 
ATOM     23  C   UNL     1       2.002   3.115  18.412  0.00  0.00    +0.000 A 
ATOM     24  F   UNL     1       2.321   2.836  17.140  0.00  0.00    +0.000 F 
ENDBRANCH  17  18
ENDBRANCH  13  17
ENDBRANCH  12  13
ENDBRANCH   1  12
BRANCH   1  25
ATOM     25  C   UNL     1       6.626   4.203  17.084  0.00  0.00    +0.000 C 
BRANCH  25  26
ATOM     26  N   UNL     1       6.723   4.311  15.653  0.00  0.00    +0.000 N 
ATOM     27  C   UNL     1       5.976   3.657  14.725  0.00  0.00    +0.000 A 
ATOM     28  N   UNL     1       6.331   4.046  13.524  0.00  0.00    +0.000 NA
ATOM     29  C   UNL     1       7.301   4.973  13.776  0.00  0.00    +0.000 A 
ATOM     30  N   UNL     1       7.563   5.180  15.069  0.00  0.00    +0.000 NA
ENDBRANCH  25  26
ENDBRANCH   1  25
TORSDOF 10
ENDMDL
MODEL 7
REMARK VINA RESULT:      -7.1      1.553      2.164
REMARK  Name = 
REMARK  10 active torsions:
REMARK  status: ('A' for Active; 'I' for Inactive)
REMARK    1  A    between atoms: C_2  and  C_3
REMARK    2  A    between atoms: C_3  and  N_4
REMARK    3  A    between atoms: N_4  and  C_5
REMARK    4  A    between atoms: N_4  and  C_13
REMARK    5  A    between atoms: C_5  and  C_6
REMARK    6  A    between atoms: C_13  and  C_14
REMARK    7  A    between atoms: C_14  and  O_15
REMARK    8  A    between atoms: C_14  and  C_16
REMARK    9  A    between atoms: C_14  and  C_22
REMARK   10  A    between atoms: C_16  and  N_17
REMARK                            x       y       z     vdW  Elec       q    Type
REMARK                         _______ _______ _______ _____ _____    ______ ____
ROOT
ATOM      1  C   UNL     1       5.640   4.591  16.869  0.00  0.00    +0.000 C 
ENDROOT
BRANCH   1   2
ATOM      2  C   UNL     1       6.461   5.772  17.454  0.00  0.00    +0.000 A 
ATOM      3  C   UNL     1       7.467   5.520  18.415  0.00  0.00    +0.000 A 
ATOM      4  C   UNL     1       8.307   6.539  18.875  0.00  0.00    +0.000 A 
ATOM      5  C   UNL     1       8.124   7.838  18.425  0.00  0.00    +0.000 A 
ATOM      6  F   UNL     1       8.924   8.814  18.870  0.00  0.00    +0.000 F 
ATOM      7  C   UNL     1       7.122   8.136  17.522  0.00  0.00    +0.000 A 
ATOM      8  C   UNL     1       6.312   7.112  17.039  0.00  0.00    +0.000 A 
ATOM      9  F   UNL     1       5.389   7.475  16.141  0.00  0.00    +0.000 F 
ENDBRANCH   1   2
BRANCH   1  10
ATOM     10  O   UNL     1       6.593   3.530  16.606  0.00  0.00    +0.000 OA
ATOM     11  H   UNL     1       7.238   3.558  17.340  0.00  0.00    +0.000 HD
ENDBRANCH   1  10
BRANCH   1  12
ATOM     12  C   UNL     1       4.596   4.013  17.910  0.00  0.00    +0.000 C 
BRANCH  12  13
ATOM     13  N   UNL     1       3.544   2.989  17.576  0.00  0.00    +0.000 NA
BRANCH  13  14
ATOM     14  C   UNL     1       3.607   1.931  18.635  0.00  0.00    +0.000 C 
BRANCH  14  16
ATOM     15  C   UNL     1       4.839   1.456  20.780  0.00  0.00    +0.000 C 
ATOM     16  C   UNL     1       4.399   2.321  19.856  0.00  0.00    +0.000 C 
ENDBRANCH  14  16
ENDBRANCH  13  14
BRANCH  13  17
ATOM     17  C   UNL     1       2.204   3.612  17.654  0.00  0.00    +0.000 C 
BRANCH  17  18
ATOM     18  C   UNL     1       2.075   4.884  18.451  0.00  0.00    +0.000 A 
ATOM     19  C   UNL     1       2.472   6.119  17.921  0.00  0.00    +0.000 A 
ATOM     20  C   UNL     1       2.488   7.255  18.732  0.00  0.00    +0.000 A 
ATOM     21  C   UNL     1       2.106   7.169  20.073  0.00  0.00    +0.000 A 
ATOM     22  C   UNL     1       1.694   5.949  20.602  0.00  0.00    +0.000 A 
ATOM     23  C   UNL     1       1.684   4.820  19.792  0.00  0.00    +0.000 A 
ATOM     24  F   UNL     1       1.315   3.649  20.330  0.00  0.00    +0.000 F 
ENDBRANCH  17  18
ENDBRANCH  13  17
ENDBRANCH  12  13
ENDBRANCH   1  12
BRANCH   1  25
ATOM     25  C   UNL     1       5.092   5.007  15.479  0.00  0.00    +0.000 C 
BRANCH  25  26
ATOM     26  N   UNL     1       5.885   4.627  14.339  0.00  0.00    +0.000 N 
ATOM     27  C   UNL     1       5.550   3.744  13.362  0.00  0.00    +0.000 A 
ATOM     28  N   UNL     1       6.513   3.691  12.472  0.00  0.00    +0.000 NA
ATOM     29  C   UNL     1       7.420   4.593  12.949  0.00  0.00    +0.000 A 
ATOM     30  N   UNL     1       7.069   5.204  14.083  0.00  0.00    +0.000 NA
ENDBRANCH  25  26
ENDBRANCH   1  25
TORSDOF 10
ENDMDL
MODEL 8
REMARK VINA RESULT:      -7.0      3.607      5.576
REMARK  Name = 
REMARK  10 active torsions:
REMARK  status: ('A' for Active; 'I' for Inactive)
REMARK    1  A    between atoms: C_2  and  C_3
REMARK    2  A    between atoms: C_3  and  N_4
REMARK    3  A    between atoms: N_4  and  C_5
REMARK    4  A    between atoms: N_4  and  C_13
REMARK    5  A    between atoms: C_5  and  C_6
REMARK    6  A    between atoms: C_13  and  C_14
REMARK    7  A    between atoms: C_14  and  O_15
REMARK    8  A    between atoms: C_14  and  C_16
REMARK    9  A    between atoms: C_14  and  C_22
REMARK   10  A    between atoms: C_16  and  N_17
REMARK                            x       y       z     vdW  Elec       q    Type
REMARK                         _______ _______ _______ _____ _____    ______ ____
ROOT
ATOM      1  C   UNL     1       3.168   6.061  18.565  0.00  0.00    +0.000 C 
ENDROOT
BRANCH   1   2
ATOM      2  C   UNL     1       4.338   5.627  17.641  0.00  0.00    +0.000 A 
ATOM      3  C   UNL     1       4.585   6.333  16.442  0.00  0.00    +0.000 A 
ATOM      4  C   UNL     1       5.699   6.050  15.646  0.00  0.00    +0.000 A 
ATOM      5  C   UNL     1       6.559   5.023  16.005  0.00  0.00    +0.000 A 
ATOM      6  F   UNL     1       7.622   4.748  15.239  0.00  0.00    +0.000 F 
ATOM      7  C   UNL     1       6.327   4.276  17.143  0.00  0.00    +0.000 A 
ATOM      8  C   UNL     1       5.237   4.586  17.952  0.00  0.00    +0.000 A 
ATOM      9  F   UNL     1       5.102   3.841  19.056  0.00  0.00    +0.000 F 
ENDBRANCH   1   2
BRANCH   1  10
ATOM     10  O   UNL     1       3.619   5.829  19.923  0.00  0.00    +0.000 OA
ATOM     11  H   UNL     1       3.113   5.059  20.248  0.00  0.00    +0.000 HD
ENDBRANCH   1  10
BRANCH   1  12
ATOM     12  C   UNL     1       2.856   7.610  18.450  0.00  0.00    +0.000 C 
BRANCH  12  13
ATOM     13  N   UNL     1       1.578   8.254  18.918  0.00  0.00    +0.000 NA
BRANCH  13  14
ATOM     14  C   UNL     1       1.743   8.547  20.378  0.00  0.00    +0.000 C 
BRANCH  14  16
ATOM     15  C   UNL     1      -0.265   8.913  21.855  0.00  0.00    +0.000 C 
ATOM     16  C   UNL     1       0.593   8.089  21.237  0.00  0.00    +0.000 C 
ENDBRANCH  14  16
ENDBRANCH  13  14
BRANCH  13  17
ATOM     17  C   UNL     1       1.395   9.549  18.227  0.00  0.00    +0.000 C 
BRANCH  17  18
ATOM     18  C   UNL     1       0.061  10.233  18.374  0.00  0.00    +0.000 A 
ATOM     19  C   UNL     1      -1.065   9.793  17.664  0.00  0.00    +0.000 A 
ATOM     20  C   UNL     1      -2.246  10.537  17.699  0.00  0.00    +0.000 A 
ATOM     21  C   UNL     1      -2.315  11.717  18.442  0.00  0.00    +0.000 A 
ATOM     22  C   UNL     1      -1.207  12.150  19.164  0.00  0.00    +0.000 A 
ATOM     23  C   UNL     1      -0.032  11.410  19.123  0.00  0.00    +0.000 A 
ATOM     24  F   UNL     1       1.034  11.863  19.799  0.00  0.00    +0.000 F 
ENDBRANCH  17  18
ENDBRANCH  13  17
ENDBRANCH  12  13
ENDBRANCH   1  12
BRANCH   1  25
ATOM     25  C   UNL     1       1.979   5.086  18.353  0.00  0.00    +0.000 C 
BRANCH  25  26
ATOM     26  N   UNL     1       1.774   4.097  19.378  0.00  0.00    +0.000 N 
ATOM     27  C   UNL     1       2.101   2.779  19.327  0.00  0.00    +0.000 A 
ATOM     28  N   UNL     1       1.794   2.208  20.468  0.00  0.00    +0.000 NA
ATOM     29  C   UNL     1       1.293   3.244  21.203  0.00  0.00    +0.000 A 
ATOM     30  N   UNL     1       1.278   4.424  20.580  0.00  0.00    +0.000 NA
ENDBRANCH  25  26
ENDBRANCH   1  25
TORSDOF 10
ENDMDL
MODEL 9
REMARK VINA RESULT:      -7.0      1.348      1.946
REMARK  Name = 
REMARK  10 active torsions:
REMARK  status: ('A' for Active; 'I' for Inactive)
REMARK    1  A    between atoms: C_2  and  C_3
REMARK    2  A    between atoms: C_3  and  N_4
REMARK    3  A    between atoms: N_4  and  C_5
REMARK    4  A    between atoms: N_4  and  C_13
REMARK    5  A    between atoms: C_5  and  C_6
REMARK    6  A    between atoms: C_13  and  C_14
REMARK    7  A    between atoms: C_14  and  O_15
REMARK    8  A    between atoms: C_14  and  C_16
REMARK    9  A    between atoms: C_14  and  C_22
REMARK   10  A    between atoms: C_16  and  N_17
REMARK                            x       y       z     vdW  Elec       q    Type
REMARK                         _______ _______ _______ _____ _____    ______ ____
ROOT
ATOM      1  C   UNL     1       5.817   4.717  16.683  0.00  0.00    +0.000 C 
ENDROOT
BRANCH   1   2
ATOM      2  C   UNL     1       6.728   5.815  17.294  0.00  0.00    +0.000 A 
ATOM      3  C   UNL     1       6.683   7.131  16.779  0.00  0.00    +0.000 A 
ATOM      4  C   UNL     1       7.397   8.173  17.380  0.00  0.00    +0.000 A 
ATOM      5  C   UNL     1       8.210   7.911  18.472  0.00  0.00    +0.000 A 
ATOM      6  F   UNL     1       8.898   8.908  19.042  0.00  0.00    +0.000 F 
ATOM      7  C   UNL     1       8.321   6.631  18.976  0.00  0.00    +0.000 A 
ATOM      8  C   UNL     1       7.579   5.603  18.399  0.00  0.00    +0.000 A 
ATOM      9  F   UNL     1       7.713   4.399  18.968  0.00  0.00    +0.000 F 
ENDBRANCH   1   2
BRANCH   1  10
ATOM     10  O   UNL     1       6.683   3.590  16.397  0.00  0.00    +0.000 OA
ATOM     11  H   UNL     1       7.552   3.812  16.784  0.00  0.00    +0.000 HD
ENDBRANCH   1  10
BRANCH   1  12
ATOM     12  C   UNL     1       4.728   4.201  17.711  0.00  0.00    +0.000 C 
BRANCH  12  13
ATOM     13  N   UNL     1       3.538   3.360  17.334  0.00  0.00    +0.000 NA
BRANCH  13  14
ATOM     14  C   UNL     1       3.454   2.245  18.331  0.00  0.00    +0.000 C 
BRANCH  14  16
ATOM     15  C   UNL     1       4.157   2.150  20.748  0.00  0.00    +0.000 C 
ATOM     16  C   UNL     1       4.453   2.339  19.455  0.00  0.00    +0.000 C 
ENDBRANCH  14  16
ENDBRANCH  13  14
BRANCH  13  17
ATOM     17  C   UNL     1       2.302   4.163  17.466  0.00  0.00    +0.000 C 
BRANCH  17  18
ATOM     18  C   UNL     1       2.221   5.128  18.620  0.00  0.00    +0.000 A 
ATOM     19  C   UNL     1       1.678   4.745  19.854  0.00  0.00    +0.000 A 
ATOM     20  C   UNL     1       1.472   5.698  20.852  0.00  0.00    +0.000 A 
ATOM     21  C   UNL     1       1.808   7.035  20.630  0.00  0.00    +0.000 A 
ATOM     22  C   UNL     1       2.364   7.421  19.414  0.00  0.00    +0.000 A 
ATOM     23  C   UNL     1       2.563   6.469  18.421  0.00  0.00    +0.000 A 
ATOM     24  F   UNL     1       3.069   6.868  17.245  0.00  0.00    +0.000 F 
ENDBRANCH  17  18
ENDBRANCH  13  17
ENDBRANCH  12  13
ENDBRANCH   1  12
BRANCH   1  25
ATOM     25  C   UNL     1       5.306   5.206  15.302  0.00  0.00    +0.000 C 
BRANCH  25  26
ATOM     26  N   UNL     1       6.004   4.704  14.148  0.00  0.00    +0.000 N 
ATOM     27  C   UNL     1       5.560   3.779  13.256  0.00  0.00    +0.000 A 
ATOM     28  N   UNL     1       6.461   3.609  12.318  0.00  0.00    +0.000 NA
ATOM     29  C   UNL     1       7.446   4.485  12.677  0.00  0.00    +0.000 A 
ATOM     30  N   UNL     1       7.200   5.190  13.783  0.00  0.00    +0.000 NA
ENDBRANCH  25  26
ENDBRANCH   1  25
TORSDOF 10
ENDMDL
