MODEL 1
REMARK VINA RESULT:      -7.9      0.000      0.000
REMARK  Name = 
REMARK  5 active torsions:
REMARK  status: ('A' for Active; 'I' for Inactive)
REMARK    1  A    between atoms: C_1  and  C_2
REMARK    2  A    between atoms: C_2  and  C_3
REMARK    3  A    between atoms: N_17  and  C_18
REMARK    4  A    between atoms: C_18  and  C_19
REMARK    5  A    between atoms: C_19  and  N_20
REMARK                            x       y       z     vdW  Elec       q    Type
REMARK                         _______ _______ _______ _____ _____    ______ ____
ROOT
ATOM      1  C   UNL     1      -1.160  12.232  21.393  0.00  0.00    +0.000 C 
ATOM      2  C   UNL     1      -0.687  11.823  19.982  0.00  0.00    +0.000 C 
ATOM      3  C   UNL     1      -1.933  11.647  19.091  0.00  0.00    +0.000 C 
ATOM      4  C   UNL     1       0.201  12.924  19.424  0.00  0.00    +0.000 A 
ATOM      5  N   UNL     1      -0.063  14.265  19.507  0.00  0.00    +0.000 N 
ATOM      6  C   UNL     1       0.967  14.992  18.957  0.00  0.00    +0.000 A 
ATOM      7  C   UNL     1       1.141  16.375  18.867  0.00  0.00    +0.000 A 
ATOM      8  C   UNL     1       2.295  16.842  18.240  0.00  0.00    +0.000 A 
ATOM      9  C   UNL     1       3.243  15.955  17.723  0.00  0.00    +0.000 A 
ATOM     10  C   UNL     1       3.060  14.573  17.830  0.00  0.00    +0.000 A 
ATOM     11  C   UNL     1       1.901  14.081  18.465  0.00  0.00    +0.000 A 
ATOM     12  C   UNL     1       1.411  12.785  18.771  0.00  0.00    +0.000 A 
ATOM     13  C   UNL     1       2.019  11.456  18.515  0.00  0.00    +0.000 C 
ATOM     14  C   UNL     1       0.954  10.353  18.695  0.00  0.00    +0.000 C 
ATOM     15  C   UNL     1       1.674   9.018  18.508  0.00  0.00    +0.000 C 
ATOM     16  O   UNL     1       2.141   8.703  17.412  0.00  0.00    +0.000 OA
ATOM     17  N   UNL     1       1.919   8.275  19.656  0.00  0.00    +0.000 N 
ATOM     18  C   UNL     1       1.012   8.395  20.774  0.00  0.00    +0.000 C 
ATOM     19  C   UNL     1       0.209   9.672  20.979  0.00  0.00    +0.000 C 
ATOM     20  O   UNL     1      -0.431   9.773  22.031  0.00  0.00    +0.000 OA
ATOM     21  N   UNL     1       0.146  10.567  19.933  0.00  0.00    +0.000 N 
ATOM     22  H   UNL     1      -0.875  14.683  19.945  0.00  0.00    +0.000 HD
ENDROOT
BRANCH  17  23
ATOM     23  C   UNL     1       2.517   6.955  19.479  0.00  0.00    +0.000 C 
BRANCH  23  24
ATOM     24  C   UNL     1       1.898   5.822  20.324  0.00  0.00    +0.000 C 
BRANCH  24  25
ATOM     25  N   UNL     1       2.852   4.708  20.564  0.00  0.00    +0.000 NA
ATOM     26  C   UNL     1       2.295   3.663  21.458  0.00  0.00    +0.000 C 
ATOM     27  C   UNL     1       1.176   2.815  20.824  0.00  0.00    +0.000 C 
ATOM     28  O   UNL     1       1.558   2.262  19.556  0.00  0.00    +0.000 OA
ATOM     29  C   UNL     1       2.039   3.278  18.667  0.00  0.00    +0.000 C 
ATOM     30  C   UNL     1       3.228   4.017  19.305  0.00  0.00    +0.000 C 
ENDBRANCH  24  25
ENDBRANCH  23  24
ENDBRANCH  17  23
TORSDOF 3
ENDMDL
MODEL 2
REMARK VINA RESULT:      -7.9      0.674      1.139
REMARK  Name = 
REMARK  5 active torsions:
REMARK  status: ('A' for Active; 'I' for Inactive)
REMARK    1  A    between atoms: C_1  and  C_2
REMARK    2  A    between atoms: C_2  and  C_3
REMARK    3  A    between atoms: N_17  and  C_18
REMARK    4  A    between atoms: C_18  and  C_19
REMARK    5  A    between atoms: C_19  and  N_20
REMARK                            x       y       z     vdW  Elec       q    Type
REMARK                         _______ _______ _______ _____ _____    ______ ____
ROOT
ATOM      1  C   UNL     1      -0.751  12.051  21.687  0.00  0.00    +0.000 C 
ATOM      2  C   UNL     1      -0.436  11.762  20.204  0.00  0.00    +0.000 C 
ATOM      3  C   UNL     1      -1.773  11.658  19.441  0.00  0.00    +0.000 C 
ATOM      4  C   UNL     1       0.392  12.909  19.647  0.00  0.00    +0.000 A 
ATOM      5  N   UNL     1       0.148  14.238  19.869  0.00  0.00    +0.000 N 
ATOM      6  C   UNL     1       1.116  15.012  19.274  0.00  0.00    +0.000 A 
ATOM      7  C   UNL     1       1.288  16.397  19.281  0.00  0.00    +0.000 A 
ATOM      8  C   UNL     1       2.370  16.919  18.573  0.00  0.00    +0.000 A 
ATOM      9  C   UNL     1       3.250  16.081  17.884  0.00  0.00    +0.000 A 
ATOM     10  C   UNL     1       3.071  14.695  17.894  0.00  0.00    +0.000 A 
ATOM     11  C   UNL     1       1.986  14.148  18.608  0.00  0.00    +0.000 A 
ATOM     12  C   UNL     1       1.523  12.829  18.857  0.00  0.00    +0.000 A 
ATOM     13  C   UNL     1       2.092  11.528  18.425  0.00  0.00    +0.000 C 
ATOM     14  C   UNL     1       1.046  10.411  18.627  0.00  0.00    +0.000 C 
ATOM     15  C   UNL     1       1.734   9.098  18.253  0.00  0.00    +0.000 C 
ATOM     16  O   UNL     1       2.077   8.877  17.090  0.00  0.00    +0.000 OA
ATOM     17  N   UNL     1       2.097   8.262  19.301  0.00  0.00    +0.000 N 
ATOM     18  C   UNL     1       1.318   8.286  20.517  0.00  0.00    +0.000 C 
ATOM     19  C   UNL     1       0.549   9.539  20.914  0.00  0.00    +0.000 C 
ATOM     20  O   UNL     1       0.028   9.550  22.034  0.00  0.00    +0.000 OA
ATOM     21  N   UNL     1       0.379  10.518  19.959  0.00  0.00    +0.000 N 
ATOM     22  H   UNL     1      -0.609  14.616  20.426  0.00  0.00    +0.000 HD
ENDROOT
BRANCH  17  23
ATOM     23  C   UNL     1       2.664   6.964  18.951  0.00  0.00    +0.000 C 
BRANCH  23  24
ATOM     24  C   UNL     1       2.507   5.856  20.014  0.00  0.00    +0.000 C 
BRANCH  24  25
ATOM     25  N   UNL     1       1.855   4.637  19.470  0.00  0.00    +0.000 NA
ATOM     26  C   UNL     1       2.835   3.656  18.941  0.00  0.00    +0.000 C 
ATOM     27  C   UNL     1       3.675   2.949  20.022  0.00  0.00    +0.000 C 
ATOM     28  O   UNL     1       2.865   2.368  21.054  0.00  0.00    +0.000 OA
ATOM     29  C   UNL     1       1.959   3.329  21.611  0.00  0.00    +0.000 C 
ATOM     30  C   UNL     1       1.069   3.918  20.504  0.00  0.00    +0.000 C 
ENDBRANCH  24  25
ENDBRANCH  23  24
ENDBRANCH  17  23
TORSDOF 3
ENDMDL
MODEL 3
REMARK VINA RESULT:      -7.5      0.860      1.099
REMARK  Name = 
REMARK  5 active torsions:
REMARK  status: ('A' for Active; 'I' for Inactive)
REMARK    1  A    between atoms: C_1  and  C_2
REMARK    2  A    between atoms: C_2  and  C_3
REMARK    3  A    between atoms: N_17  and  C_18
REMARK    4  A    between atoms: C_18  and  C_19
REMARK    5  A    between atoms: C_19  and  N_20
REMARK                            x       y       z     vdW  Elec       q    Type
REMARK                         _______ _______ _______ _____ _____    ______ ____
ROOT
ATOM      1  C   UNL     1      -1.215  11.748  21.274  0.00  0.00    +0.000 C 
ATOM      2  C   UNL     1      -0.684  11.434  19.859  0.00  0.00    +0.000 C 
ATOM      3  C   UNL     1      -1.894  11.217  18.929  0.00  0.00    +0.000 C 
ATOM      4  C   UNL     1       0.141  12.616  19.373  0.00  0.00    +0.000 A 
ATOM      5  N   UNL     1      -0.214  13.932  19.507  0.00  0.00    +0.000 N 
ATOM      6  C   UNL     1       0.777  14.749  19.017  0.00  0.00    +0.000 A 
ATOM      7  C   UNL     1       0.860  16.143  18.991  0.00  0.00    +0.000 A 
ATOM      8  C   UNL     1       1.995  16.713  18.415  0.00  0.00    +0.000 A 
ATOM      9  C   UNL     1       3.011  15.915  17.885  0.00  0.00    +0.000 A 
ATOM     10  C   UNL     1       2.918  14.521  17.926  0.00  0.00    +0.000 A 
ATOM     11  C   UNL     1       1.782  13.925  18.509  0.00  0.00    +0.000 A 
ATOM     12  C   UNL     1       1.372  12.587  18.746  0.00  0.00    +0.000 A 
ATOM     13  C   UNL     1       2.074  11.313  18.448  0.00  0.00    +0.000 C 
ATOM     14  C   UNL     1       1.081  10.136  18.552  0.00  0.00    +0.000 C 
ATOM     15  C   UNL     1       1.893   8.862  18.326  0.00  0.00    +0.000 C 
ATOM     16  O   UNL     1       2.406   8.627  17.230  0.00  0.00    +0.000 OA
ATOM     17  N   UNL     1       2.161   8.085  19.447  0.00  0.00    +0.000 N 
ATOM     18  C   UNL     1       1.223   8.094  20.545  0.00  0.00    +0.000 C 
ATOM     19  C   UNL     1       0.332   9.305  20.784  0.00  0.00    +0.000 C 
ATOM     20  O   UNL     1      -0.338   9.316  21.823  0.00  0.00    +0.000 OA
ATOM     21  N   UNL     1       0.233  10.240  19.777  0.00  0.00    +0.000 N 
ATOM     22  H   UNL     1      -1.062  14.275  19.942  0.00  0.00    +0.000 HD
ENDROOT
BRANCH  17  23
ATOM     23  C   UNL     1       2.850   6.817  19.228  0.00  0.00    +0.000 C 
BRANCH  23  24
ATOM     24  C   UNL     1       1.963   5.647  18.754  0.00  0.00    +0.000 C 
BRANCH  24  25
ATOM     25  N   UNL     1       2.073   4.458  19.638  0.00  0.00    +0.000 NA
ATOM     26  C   UNL     1       1.441   3.251  19.050  0.00  0.00    +0.000 C 
ATOM     27  C   UNL     1       2.201   2.657  17.848  0.00  0.00    +0.000 C 
ATOM     28  O   UNL     1       3.588   2.429  18.133  0.00  0.00    +0.000 OA
ATOM     29  C   UNL     1       4.218   3.612  18.644  0.00  0.00    +0.000 C 
ATOM     30  C   UNL     1       3.487   4.095  19.908  0.00  0.00    +0.000 C 
ENDBRANCH  24  25
ENDBRANCH  23  24
ENDBRANCH  17  23
TORSDOF 3
ENDMDL
MODEL 4
REMARK VINA RESULT:      -7.4      2.109      2.786
REMARK  Name = 
REMARK  5 active torsions:
REMARK  status: ('A' for Active; 'I' for Inactive)
REMARK    1  A    between atoms: C_1  and  C_2
REMARK    2  A    between atoms: C_2  and  C_3
REMARK    3  A    between atoms: N_17  and  C_18
REMARK    4  A    between atoms: C_18  and  C_19
REMARK    5  A    between atoms: C_19  and  N_20
REMARK                            x       y       z     vdW  Elec       q    Type
REMARK                         _______ _______ _______ _____ _____    ______ ____
ROOT
ATOM      1  C   UNL     1      -0.687  11.265  21.421  0.00  0.00    +0.000 C 
ATOM      2  C   UNL     1      -0.284  10.961  19.962  0.00  0.00    +0.000 C 
ATOM      3  C   UNL     1      -1.574  10.808  19.131  0.00  0.00    +0.000 C 
ATOM      4  C   UNL     1       0.542  12.123  19.431  0.00  0.00    +0.000 A 
ATOM      5  N   UNL     1       0.249  13.447  19.618  0.00  0.00    +0.000 N 
ATOM      6  C   UNL     1       1.227  14.238  19.062  0.00  0.00    +0.000 A 
ATOM      7  C   UNL     1       1.360  15.629  19.055  0.00  0.00    +0.000 A 
ATOM      8  C   UNL     1       2.464  16.169  18.398  0.00  0.00    +0.000 A 
ATOM      9  C   UNL     1       3.403  15.346  17.771  0.00  0.00    +0.000 A 
ATOM     10  C   UNL     1       3.262  13.956  17.795  0.00  0.00    +0.000 A 
ATOM     11  C   UNL     1       2.155  13.389  18.459  0.00  0.00    +0.000 A 
ATOM     12  C   UNL     1       1.716  12.062  18.705  0.00  0.00    +0.000 A 
ATOM     13  C   UNL     1       2.343  10.771  18.327  0.00  0.00    +0.000 C 
ATOM     14  C   UNL     1       1.318   9.628  18.492  0.00  0.00    +0.000 C 
ATOM     15  C   UNL     1       2.060   8.330  18.177  0.00  0.00    +0.000 C 
ATOM     16  O   UNL     1       2.473   8.100  17.038  0.00  0.00    +0.000 OA
ATOM     17  N   UNL     1       2.389   7.521  19.258  0.00  0.00    +0.000 N 
ATOM     18  C   UNL     1       1.545   7.541  20.430  0.00  0.00    +0.000 C 
ATOM     19  C   UNL     1       0.722   8.778  20.763  0.00  0.00    +0.000 C 
ATOM     20  O   UNL     1       0.140   8.792  21.853  0.00  0.00    +0.000 OA
ATOM     21  N   UNL     1       0.577   9.737  19.784  0.00  0.00    +0.000 N 
ATOM     22  H   UNL     1      -0.547  13.812  20.126  0.00  0.00    +0.000 HD
ENDROOT
BRANCH  17  23
ATOM     23  C   UNL     1       3.010   6.234  18.960  0.00  0.00    +0.000 C 
BRANCH  23  24
ATOM     24  C   UNL     1       4.552   6.205  19.021  0.00  0.00    +0.000 C 
BRANCH  24  25
ATOM     25  N   UNL     1       5.128   5.073  18.249  0.00  0.00    +0.000 NA
ATOM     26  C   UNL     1       4.738   5.104  16.818  0.00  0.00    +0.000 C 
ATOM     27  C   UNL     1       5.394   6.236  16.003  0.00  0.00    +0.000 C 
ATOM     28  O   UNL     1       6.821   6.263  16.152  0.00  0.00    +0.000 OA
ATOM     29  C   UNL     1       7.201   6.296  17.534  0.00  0.00    +0.000 C 
ATOM     30  C   UNL     1       6.612   5.083  18.273  0.00  0.00    +0.000 C 
ENDBRANCH  24  25
ENDBRANCH  23  24
ENDBRANCH  17  23
TORSDOF 3
ENDMDL
MODEL 5
REMARK VINA RESULT:      -7.3      1.217      1.591
REMARK  Name = 
REMARK  5 active torsions:
REMARK  status: ('A' for Active; 'I' for Inactive)
REMARK    1  A    between atoms: C_1  and  C_2
REMARK    2  A    between atoms: C_2  and  C_3
REMARK    3  A    between atoms: N_17  and  C_18
REMARK    4  A    between atoms: C_18  and  C_19
REMARK    5  A    between atoms: C_19  and  N_20
REMARK                            x       y       z     vdW  Elec       q    Type
REMARK                         _______ _______ _______ _____ _____    ______ ____
ROOT
ATOM      1  C   UNL     1      -1.191  11.546  21.150  0.00  0.00    +0.000 C 
ATOM      2  C   UNL     1      -0.616  11.232  19.753  0.00  0.00    +0.000 C 
ATOM      3  C   UNL     1      -1.796  10.983  18.793  0.00  0.00    +0.000 C 
ATOM      4  C   UNL     1       0.197  12.427  19.279  0.00  0.00    +0.000 A 
ATOM      5  N   UNL     1      -0.188  13.736  19.393  0.00  0.00    +0.000 N 
ATOM      6  C   UNL     1       0.799  14.570  18.922  0.00  0.00    +0.000 A 
ATOM      7  C   UNL     1       0.854  15.965  18.886  0.00  0.00    +0.000 A 
ATOM      8  C   UNL     1       1.992  16.554  18.336  0.00  0.00    +0.000 A 
ATOM      9  C   UNL     1       3.038  15.773  17.840  0.00  0.00    +0.000 A 
ATOM     10  C   UNL     1       2.973  14.377  17.891  0.00  0.00    +0.000 A 
ATOM     11  C   UNL     1       1.834  13.763  18.448  0.00  0.00    +0.000 A 
ATOM     12  C   UNL     1       1.445  12.418  18.686  0.00  0.00    +0.000 A 
ATOM     13  C   UNL     1       2.181  11.157  18.417  0.00  0.00    +0.000 C 
ATOM     14  C   UNL     1       1.210   9.960  18.505  0.00  0.00    +0.000 C 
ATOM     15  C   UNL     1       2.054   8.701  18.311  0.00  0.00    +0.000 C 
ATOM     16  O   UNL     1       2.600   8.469  17.231  0.00  0.00    +0.000 OA
ATOM     17  N   UNL     1       2.307   7.939  19.445  0.00  0.00    +0.000 N 
ATOM     18  C   UNL     1       1.340   7.938  20.518  0.00  0.00    +0.000 C 
ATOM     19  C   UNL     1       0.418   9.132  20.723  0.00  0.00    +0.000 C 
ATOM     20  O   UNL     1      -0.279   9.138  21.743  0.00  0.00    +0.000 OA
ATOM     21  N   UNL     1       0.327  10.057  19.706  0.00  0.00    +0.000 N 
ATOM     22  H   UNL     1      -1.054  14.066  19.801  0.00  0.00    +0.000 HD
ENDROOT
BRANCH  17  23
ATOM     23  C   UNL     1       3.027   6.684  19.256  0.00  0.00    +0.000 C 
BRANCH  23  24
ATOM     24  C   UNL     1       2.193   5.512  18.699  0.00  0.00    +0.000 C 
BRANCH  24  25
ATOM     25  N   UNL     1       2.986   4.624  17.810  0.00  0.00    +0.000 NA
ATOM     26  C   UNL     1       4.441   4.911  17.871  0.00  0.00    +0.000 C 
ATOM     27  C   UNL     1       5.116   4.499  19.193  0.00  0.00    +0.000 C 
ATOM     28  O   UNL     1       4.841   3.136  19.549  0.00  0.00    +0.000 OA
ATOM     29  C   UNL     1       3.433   2.871  19.552  0.00  0.00    +0.000 C 
ATOM     30  C   UNL     1       2.832   3.192  18.173  0.00  0.00    +0.000 C 
ENDBRANCH  24  25
ENDBRANCH  23  24
ENDBRANCH  17  23
TORSDOF 3
ENDMDL
MODEL 6
REMARK VINA RESULT:      -7.3      2.359      2.805
REMARK  Name = 
REMARK  5 active torsions:
REMARK  status: ('A' for Active; 'I' for Inactive)
REMARK    1  A    between atoms: C_1  and  C_2
REMARK    2  A    between atoms: C_2  and  C_3
REMARK    3  A    between atoms: N_17  and  C_18
REMARK    4  A    between atoms: C_18  and  C_19
REMARK    5  A    between atoms: C_19  and  N_20
REMARK                            x       y       z     vdW  Elec       q    Type
REMARK                         _______ _______ _______ _____ _____    ______ ____
ROOT
ATOM      1  C   UNL     1      -0.409  11.058  21.536  0.00  0.00    +0.000 C 
ATOM      2  C   UNL     1      -0.097  10.827  20.043  0.00  0.00    +0.000 C 
ATOM      3  C   UNL     1      -1.434  10.674  19.291  0.00  0.00    +0.000 C 
ATOM      4  C   UNL     1       0.665  12.030  19.510  0.00  0.00    +0.000 A 
ATOM      5  N   UNL     1       0.354  13.338  19.772  0.00  0.00    +0.000 N 
ATOM      6  C   UNL     1       1.274  14.177  19.189  0.00  0.00    +0.000 A 
ATOM      7  C   UNL     1       1.374  15.569  19.234  0.00  0.00    +0.000 A 
ATOM      8  C   UNL     1       2.420  16.166  18.531  0.00  0.00    +0.000 A 
ATOM      9  C   UNL     1       3.334  15.395  17.810  0.00  0.00    +0.000 A 
ATOM     10  C   UNL     1       3.228  14.001  17.783  0.00  0.00    +0.000 A 
ATOM     11  C   UNL     1       2.181  13.378  18.491  0.00  0.00    +0.000 A 
ATOM     12  C   UNL     1       1.790  12.031  18.708  0.00  0.00    +0.000 A 
ATOM     13  C   UNL     1       2.421  10.773  18.234  0.00  0.00    +0.000 C 
ATOM     14  C   UNL     1       1.437   9.598  18.415  0.00  0.00    +0.000 C 
ATOM     15  C   UNL     1       2.187   8.335  17.997  0.00  0.00    +0.000 C 
ATOM     16  O   UNL     1       2.529   8.163  16.825  0.00  0.00    +0.000 OA
ATOM     17  N   UNL     1       2.605   7.490  19.018  0.00  0.00    +0.000 N 
ATOM     18  C   UNL     1       1.839   7.439  20.242  0.00  0.00    +0.000 C 
ATOM     19  C   UNL     1       1.011   8.639  20.681  0.00  0.00    +0.000 C 
ATOM     20  O   UNL     1       0.502   8.592  21.806  0.00  0.00    +0.000 OA
ATOM     21  N   UNL     1       0.780   9.633  19.756  0.00  0.00    +0.000 N 
ATOM     22  H   UNL     1      -0.415  13.660  20.347  0.00  0.00    +0.000 HD
ENDROOT
BRANCH  17  23
ATOM     23  C   UNL     1       3.235   6.233  18.626  0.00  0.00    +0.000 C 
BRANCH  23  24
ATOM     24  C   UNL     1       4.770   6.181  18.771  0.00  0.00    +0.000 C 
BRANCH  24  25
ATOM     25  N   UNL     1       5.471   6.584  17.524  0.00  0.00    +0.000 NA
ATOM     26  C   UNL     1       6.946   6.465  17.637  0.00  0.00    +0.000 C 
ATOM     27  C   UNL     1       7.467   5.016  17.682  0.00  0.00    +0.000 C 
ATOM     28  O   UNL     1       6.964   4.219  16.599  0.00  0.00    +0.000 OA
ATOM     29  C   UNL     1       5.534   4.281  16.525  0.00  0.00    +0.000 C 
ATOM     30  C   UNL     1       5.077   5.741  16.368  0.00  0.00    +0.000 C 
ENDBRANCH  24  25
ENDBRANCH  23  24
ENDBRANCH  17  23
TORSDOF 3
ENDMDL
MODEL 7
REMARK VINA RESULT:      -7.3      2.079      4.412
REMARK  Name = 
REMARK  5 active torsions:
REMARK  status: ('A' for Active; 'I' for Inactive)
REMARK    1  A    between atoms: C_1  and  C_2
REMARK    2  A    between atoms: C_2  and  C_3
REMARK    3  A    between atoms: N_17  and  C_18
REMARK    4  A    between atoms: C_18  and  C_19
REMARK    5  A    between atoms: C_19  and  N_20
REMARK                            x       y       z     vdW  Elec       q    Type
REMARK                         _______ _______ _______ _____ _____    ______ ____
ROOT
ATOM      1  C   UNL     1      -0.833  13.029  18.514  0.00  0.00    +0.000 C 
ATOM      2  C   UNL     1      -0.237  12.748  19.910  0.00  0.00    +0.000 C 
ATOM      3  C   UNL     1       0.909  13.751  20.152  0.00  0.00    +0.000 C 
ATOM      4  C   UNL     1      -1.325  12.938  20.955  0.00  0.00    +0.000 A 
ATOM      5  N   UNL     1      -2.221  13.974  20.979  0.00  0.00    +0.000 N 
ATOM      6  C   UNL     1      -3.108  13.819  22.018  0.00  0.00    +0.000 A 
ATOM      7  C   UNL     1      -4.203  14.602  22.388  0.00  0.00    +0.000 A 
ATOM      8  C   UNL     1      -4.933  14.206  23.508  0.00  0.00    +0.000 A 
ATOM      9  C   UNL     1      -4.579  13.064  24.231  0.00  0.00    +0.000 A 
ATOM     10  C   UNL     1      -3.485  12.284  23.843  0.00  0.00    +0.000 A 
ATOM     11  C   UNL     1      -2.738  12.665  22.710  0.00  0.00    +0.000 A 
ATOM     12  C   UNL     1      -1.621  12.118  22.026  0.00  0.00    +0.000 A 
ATOM     13  C   UNL     1      -0.853  10.878  22.305  0.00  0.00    +0.000 C 
ATOM     14  C   UNL     1       0.477  10.904  21.522  0.00  0.00    +0.000 C 
ATOM     15  C   UNL     1       1.162   9.564  21.784  0.00  0.00    +0.000 C 
ATOM     16  O   UNL     1       1.569   9.274  22.911  0.00  0.00    +0.000 OA
ATOM     17  N   UNL     1       1.145   8.640  20.746  0.00  0.00    +0.000 N 
ATOM     18  C   UNL     1       1.112   9.120  19.383  0.00  0.00    +0.000 C 
ATOM     19  C   UNL     1       0.508  10.480  19.062  0.00  0.00    +0.000 C 
ATOM     20  O   UNL     1       0.371  10.767  17.868  0.00  0.00    +0.000 OA
ATOM     21  N   UNL     1       0.274  11.344  20.109  0.00  0.00    +0.000 N 
ATOM     22  H   UNL     1      -2.266  14.734  20.311  0.00  0.00    +0.000 HD
ENDROOT
BRANCH  17  23
ATOM     23  C   UNL     1       1.880   7.396  20.950  0.00  0.00    +0.000 C 
BRANCH  23  24
ATOM     24  C   UNL     1       2.333   6.668  19.667  0.00  0.00    +0.000 C 
BRANCH  24  25
ATOM     25  N   UNL     1       2.992   5.368  19.955  0.00  0.00    +0.000 NA
ATOM     26  C   UNL     1       2.189   4.512  20.863  0.00  0.00    +0.000 C 
ATOM     27  C   UNL     1       0.910   3.934  20.227  0.00  0.00    +0.000 C 
ATOM     28  O   UNL     1       1.169   3.269  18.982  0.00  0.00    +0.000 OA
ATOM     29  C   UNL     1       1.891   4.115  18.078  0.00  0.00    +0.000 C 
ATOM     30  C   UNL     1       3.211   4.571  18.722  0.00  0.00    +0.000 C 
ENDBRANCH  24  25
ENDBRANCH  23  24
ENDBRANCH  17  23
TORSDOF 3
ENDMDL
MODEL 8
REMARK VINA RESULT:      -7.1      1.626      2.039
REMARK  Name = 
REMARK  5 active torsions:
REMARK  status: ('A' for Active; 'I' for Inactive)
REMARK    1  A    between atoms: C_1  and  C_2
REMARK    2  A    between atoms: C_2  and  C_3
REMARK    3  A    between atoms: N_17  and  C_18
REMARK    4  A    between atoms: C_18  and  C_19
REMARK    5  A    between atoms: C_19  and  N_20
REMARK                            x       y       z     vdW  Elec       q    Type
REMARK                         _______ _______ _______ _____ _____    ______ ____
ROOT
ATOM      1  C   UNL     1      -0.425  12.146  22.037  0.00  0.00    +0.000 C 
ATOM      2  C   UNL     1      -0.269  11.822  20.536  0.00  0.00    +0.000 C 
ATOM      3  C   UNL     1      -1.674  11.792  19.903  0.00  0.00    +0.000 C 
ATOM      4  C   UNL     1       0.572  12.910  19.886  0.00  0.00    +0.000 A 
ATOM      5  N   UNL     1       0.429  14.254  20.109  0.00  0.00    +0.000 N 
ATOM      6  C   UNL     1       1.382  14.961  19.413  0.00  0.00    +0.000 A 
ATOM      7  C   UNL     1       1.636  16.333  19.382  0.00  0.00    +0.000 A 
ATOM      8  C   UNL     1       2.677  16.780  18.569  0.00  0.00    +0.000 A 
ATOM      9  C   UNL     1       3.437  15.883  17.815  0.00  0.00    +0.000 A 
ATOM     10  C   UNL     1       3.177  14.510  17.864  0.00  0.00    +0.000 A 
ATOM     11  C   UNL     1       2.133  14.038  18.684  0.00  0.00    +0.000 A 
ATOM     12  C   UNL     1       1.617  12.753  18.996  0.00  0.00    +0.000 A 
ATOM     13  C   UNL     1       2.064  11.414  18.535  0.00  0.00    +0.000 C 
ATOM     14  C   UNL     1       0.977  10.366  18.852  0.00  0.00    +0.000 C 
ATOM     15  C   UNL     1       1.546   9.010  18.436  0.00  0.00    +0.000 C 
ATOM     16  O   UNL     1       1.766   8.756  17.250  0.00  0.00    +0.000 OA
ATOM     17  N   UNL     1       1.955   8.164  19.460  0.00  0.00    +0.000 N 
ATOM     18  C   UNL     1       1.296   8.249  20.743  0.00  0.00    +0.000 C 
ATOM     19  C   UNL     1       0.644   9.551  21.188  0.00  0.00    +0.000 C 
ATOM     20  O   UNL     1       0.231   9.605  22.352  0.00  0.00    +0.000 OA
ATOM     21  N   UNL     1       0.445  10.528  20.238  0.00  0.00    +0.000 N 
ATOM     22  H   UNL     1      -0.249  14.683  20.727  0.00  0.00    +0.000 HD
ENDROOT
BRANCH  17  23
ATOM     23  C   UNL     1       2.408   6.830  19.080  0.00  0.00    +0.000 C 
BRANCH  23  24
ATOM     24  C   UNL     1       3.925   6.683  18.835  0.00  0.00    +0.000 C 
BRANCH  24  25
ATOM     25  N   UNL     1       4.440   5.354  19.253  0.00  0.00    +0.000 NA
ATOM     26  C   UNL     1       3.911   4.249  18.415  0.00  0.00    +0.000 C 
ATOM     27  C   UNL     1       4.465   4.219  16.978  0.00  0.00    +0.000 C 
ATOM     28  O   UNL     1       5.899   4.255  16.942  0.00  0.00    +0.000 OA
ATOM     29  C   UNL     1       6.413   5.358  17.700  0.00  0.00    +0.000 C 
ATOM     30  C   UNL     1       5.919   5.275  19.154  0.00  0.00    +0.000 C 
ENDBRANCH  24  25
ENDBRANCH  23  24
ENDBRANCH  17  23
TORSDOF 3
ENDMDL
MODEL 9
REMARK VINA RESULT:      -7.1      1.575      2.053
REMARK  Name = 
REMARK  5 active torsions:
REMARK  status: ('A' for Active; 'I' for Inactive)
REMARK    1  A    between atoms: C_1  and  C_2
REMARK    2  A    between atoms: C_2  and  C_3
REMARK    3  A    between atoms: N_17  and  C_18
REMARK    4  A    between atoms: C_18  and  C_19
REMARK    5  A    between atoms: C_19  and  N_20
REMARK                            x       y       z     vdW  Elec       q    Type
REMARK                         _______ _______ _______ _____ _____    ______ ____
ROOT
ATOM      1  C   UNL     1      -0.452  12.549  21.951  0.00  0.00    +0.000 C 
ATOM      2  C   UNL     1      -0.313  12.147  20.467  0.00  0.00    +0.000 C 
ATOM      3  C   UNL     1      -1.723  12.113  19.845  0.00  0.00    +0.000 C 
ATOM      4  C   UNL     1       0.544  13.185  19.758  0.00  0.00    +0.000 A 
ATOM      5  N   UNL     1       0.429  14.540  19.914  0.00  0.00    +0.000 N 
ATOM      6  C   UNL     1       1.391  15.192  19.178  0.00  0.00    +0.000 A 
ATOM      7  C   UNL     1       1.672  16.556  19.076  0.00  0.00    +0.000 A 
ATOM      8  C   UNL     1       2.715  16.941  18.235  0.00  0.00    +0.000 A 
ATOM      9  C   UNL     1       3.452  15.992  17.522  0.00  0.00    +0.000 A 
ATOM     10  C   UNL     1       3.165  14.629  17.642  0.00  0.00    +0.000 A 
ATOM     11  C   UNL     1       2.118  14.219  18.491  0.00  0.00    +0.000 A 
ATOM     12  C   UNL     1       1.580  12.962  18.870  0.00  0.00    +0.000 A 
ATOM     13  C   UNL     1       1.997  11.594  18.474  0.00  0.00    +0.000 C 
ATOM     14  C   UNL     1       0.891  10.584  18.850  0.00  0.00    +0.000 C 
ATOM     15  C   UNL     1       1.431   9.198  18.499  0.00  0.00    +0.000 C 
ATOM     16  O   UNL     1       1.637   8.880  17.326  0.00  0.00    +0.000 OA
ATOM     17  N   UNL     1       1.831   8.396  19.561  0.00  0.00    +0.000 N 
ATOM     18  C   UNL     1       1.183   8.558  20.842  0.00  0.00    +0.000 C 
ATOM     19  C   UNL     1       0.560   9.893  21.226  0.00  0.00    +0.000 C 
ATOM     20  O   UNL     1       0.157  10.014  22.388  0.00  0.00    +0.000 OA
ATOM     21  N   UNL     1       0.373  10.825  20.229  0.00  0.00    +0.000 N 
ATOM     22  H   UNL     1      -0.235  15.013  20.514  0.00  0.00    +0.000 HD
ENDROOT
BRANCH  17  23
ATOM     23  C   UNL     1       2.255   7.036  19.245  0.00  0.00    +0.000 C 
BRANCH  23  24
ATOM     24  C   UNL     1       3.766   6.848  18.996  0.00  0.00    +0.000 C 
BRANCH  24  25
ATOM     25  N   UNL     1       4.043   5.951  17.844  0.00  0.00    +0.000 NA
ATOM     26  C   UNL     1       5.481   5.918  17.481  0.00  0.00    +0.000 C 
ATOM     27  C   UNL     1       6.378   5.191  18.501  0.00  0.00    +0.000 C 
ATOM     28  O   UNL     1       5.894   3.878  18.819  0.00  0.00    +0.000 OA
ATOM     29  C   UNL     1       4.522   3.913  19.230  0.00  0.00    +0.000 C 
ATOM     30  C   UNL     1       3.656   4.546  18.128  0.00  0.00    +0.000 C 
ENDBRANCH  24  25
ENDBRANCH  23  24
ENDBRANCH  17  23
TORSDOF 3
ENDMDL
