MODEL 1
REMARK VINA RESULT:      -8.2      0.000      0.000
REMARK  Name = 
REMARK  9 active torsions:
REMARK  status: ('A' for Active; 'I' for Inactive)
REMARK    1  A    between atoms: C_1  and  O_2
REMARK    2  A    between atoms: O_2  and  C_3
REMARK    3  A    between atoms: C_5  and  C_6
REMARK    4  A    between atoms: C_12  and  C_14
REMARK    5  A    between atoms: C_16  and  C_17
REMARK    6  A    between atoms: C_28  and  O_29
REMARK    7  A    between atoms: O_29  and  C_30
REMARK    8  A    between atoms: C_31  and  O_32
REMARK    9  A    between atoms: O_32  and  C_33
REMARK                            x       y       z     vdW  Elec       q    Type
REMARK                         _______ _______ _______ _____ _____    ______ ____
ROOT
ATOM      1  C   UNL     1       4.084   3.962  17.883  0.00  0.00    +0.000 C 
ATOM      2  O   UNL     1       4.083   2.829  18.359  0.00  0.00    +0.000 OA
ATOM      3  N   UNL     1       3.121   4.918  18.208  0.00  0.00    +0.000 N 
ATOM      4  C   UNL     1       2.190   4.669  19.317  0.00  0.00    +0.000 C 
ATOM      5  C   UNL     1       2.203   5.835  20.331  0.00  0.00    +0.000 C 
ATOM      6  N   UNL     1       2.083   7.139  19.665  0.00  0.00    +0.000 N 
ATOM      7  C   UNL     1       1.392   8.173  20.309  0.00  0.00    +0.000 C 
ATOM      8  O   UNL     1       0.973   8.056  21.460  0.00  0.00    +0.000 OA
ATOM      9  C   UNL     1       3.027   7.340  18.555  0.00  0.00    +0.000 C 
ATOM     10  C   UNL     1       2.880   6.204  17.535  0.00  0.00    +0.000 C 
ENDROOT
BRANCH   1  13
ATOM     11  C   UNL     1       6.176   4.030  14.717  0.00  0.00    +0.000 A 
ATOM     12  C   UNL     1       5.239   3.638  15.693  0.00  0.00    +0.000 A 
ATOM     13  C   UNL     1       5.166   4.300  16.918  0.00  0.00    +0.000 A 
ATOM     14  C   UNL     1       6.128   5.255  17.218  0.00  0.00    +0.000 A 
ATOM     15  C   UNL     1       7.050   5.689  16.261  0.00  0.00    +0.000 A 
ATOM     16  C   UNL     1       7.101   5.066  14.997  0.00  0.00    +0.000 A 
BRANCH  11  18
ATOM     17  C   UNL     1       5.047   3.507  12.685  0.00  0.00    +0.000 C 
ATOM     18  O   UNL     1       6.219   3.413  13.492  0.00  0.00    +0.000 OA
ENDBRANCH  11  18
BRANCH  15  19
ATOM     19  O   UNL     1       7.778   6.749  16.742  0.00  0.00    +0.000 OA
ATOM     20  C   UNL     1       7.135   7.764  17.495  0.00  0.00    +0.000 C 
ENDBRANCH  15  19
BRANCH  16  21
ATOM     21  O   UNL     1       8.072   5.540  14.160  0.00  0.00    +0.000 OA
ATOM     22  C   UNL     1       7.925   5.513  12.752  0.00  0.00    +0.000 C 
ENDBRANCH  16  21
ENDBRANCH   1  13
BRANCH   7  23
ATOM     23  C   UNL     1       1.173   9.441  19.563  0.00  0.00    +0.000 A 
ATOM     24  C   UNL     1       1.324  10.757  20.082  0.00  0.00    +0.000 A 
ATOM     25  C   UNL     1       1.034  11.616  19.040  0.00  0.00    +0.000 A 
ATOM     26  N   UNL     1       0.724  10.791  17.994  0.00  0.00    +0.000 N 
ATOM     27  N   UNL     1       0.742   9.487  18.290  0.00  0.00    +0.000 NA
ATOM     28  H   UNL     1       0.496  11.060  17.044  0.00  0.00    +0.000 HD
BRANCH  25  29
ATOM     29  C   UNL     1       1.039  13.072  18.932  0.00  0.00    +0.000 A 
ATOM     30  C   UNL     1      -0.163  13.793  18.931  0.00  0.00    +0.000 A 
ATOM     31  C   UNL     1      -0.156  15.187  18.826  0.00  0.00    +0.000 A 
ATOM     32  C   UNL     1       1.051  15.875  18.719  0.00  0.00    +0.000 A 
ATOM     33  C   UNL     1       2.252  15.172  18.720  0.00  0.00    +0.000 A 
ATOM     34  C   UNL     1       2.246  13.779  18.826  0.00  0.00    +0.000 A 
ENDBRANCH  25  29
ENDBRANCH   7  23
TORSDOF 6
ENDMDL
MODEL 2
REMARK VINA RESULT:      -8.1      0.386      2.272
REMARK  Name = 
REMARK  9 active torsions:
REMARK  status: ('A' for Active; 'I' for Inactive)
REMARK    1  A    between atoms: C_1  and  O_2
REMARK    2  A    between atoms: O_2  and  C_3
REMARK    3  A    between atoms: C_5  and  C_6
REMARK    4  A    between atoms: C_12  and  C_14
REMARK    5  A    between atoms: C_16  and  C_17
REMARK    6  A    between atoms: C_28  and  O_29
REMARK    7  A    between atoms: O_29  and  C_30
REMARK    8  A    between atoms: C_31  and  O_32
REMARK    9  A    between atoms: O_32  and  C_33
REMARK                            x       y       z     vdW  Elec       q    Type
REMARK                         _______ _______ _______ _____ _____    ______ ____
ROOT
ATOM      1  C   UNL     1       3.911   4.293  17.965  0.00  0.00    +0.000 C 
ATOM      2  O   UNL     1       3.932   3.164  18.451  0.00  0.00    +0.000 OA
ATOM      3  N   UNL     1       2.942   5.240  18.298  0.00  0.00    +0.000 N 
ATOM      4  C   UNL     1       2.034   4.990  19.426  0.00  0.00    +0.000 C 
ATOM      5  C   UNL     1       2.050   6.166  20.428  0.00  0.00    +0.000 C 
ATOM      6  N   UNL     1       1.902   7.462  19.752  0.00  0.00    +0.000 N 
ATOM      7  C   UNL     1       1.210   8.494  20.398  0.00  0.00    +0.000 C 
ATOM      8  O   UNL     1       0.813   8.383  21.557  0.00  0.00    +0.000 OA
ATOM      9  C   UNL     1       2.824   7.664  18.623  0.00  0.00    +0.000 C 
ATOM     10  C   UNL     1       2.673   6.517  17.617  0.00  0.00    +0.000 C 
ENDROOT
BRANCH   1  13
ATOM     11  C   UNL     1       6.926   5.955  16.368  0.00  0.00    +0.000 A 
ATOM     12  C   UNL     1       5.840   5.697  17.227  0.00  0.00    +0.000 A 
ATOM     13  C   UNL     1       4.972   4.634  16.977  0.00  0.00    +0.000 A 
ATOM     14  C   UNL     1       5.107   3.926  15.790  0.00  0.00    +0.000 A 
ATOM     15  C   UNL     1       6.191   4.138  14.935  0.00  0.00    +0.000 A 
ATOM     16  C   UNL     1       7.110   5.173  15.202  0.00  0.00    +0.000 A 
BRANCH  11  18
ATOM     17  C   UNL     1       7.789   7.508  17.956  0.00  0.00    +0.000 C 
ATOM     18  O   UNL     1       7.811   6.969  16.636  0.00  0.00    +0.000 OA
ENDBRANCH  11  18
BRANCH  15  19
ATOM     19  O   UNL     1       6.194   3.208  13.925  0.00  0.00    +0.000 OA
ATOM     20  C   UNL     1       5.437   3.440  12.749  0.00  0.00    +0.000 C 
ENDBRANCH  15  19
BRANCH  16  21
ATOM     21  O   UNL     1       8.102   5.318  14.272  0.00  0.00    +0.000 OA
ATOM     22  C   UNL     1       7.836   5.776  12.959  0.00  0.00    +0.000 C 
ENDBRANCH  16  21
ENDBRANCH   1  13
BRANCH   7  23
ATOM     23  C   UNL     1       0.963   9.752  19.644  0.00  0.00    +0.000 A 
ATOM     24  C   UNL     1       1.233  11.071  20.101  0.00  0.00    +0.000 A 
ATOM     25  C   UNL     1       0.861  11.917  19.075  0.00  0.00    +0.000 A 
ATOM     26  N   UNL     1       0.394  11.082  18.097  0.00  0.00    +0.000 N 
ATOM     27  N   UNL     1       0.389   9.786  18.429  0.00  0.00    +0.000 NA
ATOM     28  H   UNL     1       0.069  11.338  17.172  0.00  0.00    +0.000 HD
BRANCH  25  29
ATOM     29  C   UNL     1       0.919  13.368  18.923  0.00  0.00    +0.000 A 
ATOM     30  C   UNL     1      -0.255  14.134  18.917  0.00  0.00    +0.000 A 
ATOM     31  C   UNL     1      -0.197  15.523  18.770  0.00  0.00    +0.000 A 
ATOM     32  C   UNL     1       1.033  16.162  18.624  0.00  0.00    +0.000 A 
ATOM     33  C   UNL     1       2.206  15.413  18.630  0.00  0.00    +0.000 A 
ATOM     34  C   UNL     1       2.150  14.026  18.778  0.00  0.00    +0.000 A 
ENDBRANCH  25  29
ENDBRANCH   7  23
TORSDOF 6
ENDMDL
MODEL 3
REMARK VINA RESULT:      -7.9      5.515     10.185
REMARK  Name = 
REMARK  9 active torsions:
REMARK  status: ('A' for Active; 'I' for Inactive)
REMARK    1  A    between atoms: C_1  and  O_2
REMARK    2  A    between atoms: O_2  and  C_3
REMARK    3  A    between atoms: C_5  and  C_6
REMARK    4  A    between atoms: C_12  and  C_14
REMARK    5  A    between atoms: C_16  and  C_17
REMARK    6  A    between atoms: C_28  and  O_29
REMARK    7  A    between atoms: O_29  and  C_30
REMARK    8  A    between atoms: C_31  and  O_32
REMARK    9  A    between atoms: O_32  and  C_33
REMARK                            x       y       z     vdW  Elec       q    Type
REMARK                         _______ _______ _______ _____ _____    ______ ____
ROOT
ATOM      1  C   UNL     1       0.881  14.309  19.097  0.00  0.00    +0.000 C 
ATOM      2  O   UNL     1      -0.147  14.982  19.101  0.00  0.00    +0.000 OA
ATOM      3  N   UNL     1       2.108  14.806  18.658  0.00  0.00    +0.000 N 
ATOM      4  C   UNL     1       2.260  16.243  18.391  0.00  0.00    +0.000 C 
ATOM      5  C   UNL     1       3.463  16.831  19.161  0.00  0.00    +0.000 C 
ATOM      6  N   UNL     1       4.671  16.011  18.995  0.00  0.00    +0.000 N 
ATOM      7  C   UNL     1       5.923  16.638  18.961  0.00  0.00    +0.000 C 
ATOM      8  O   UNL     1       6.051  17.843  19.171  0.00  0.00    +0.000 OA
ATOM      9  C   UNL     1       4.469  14.578  19.263  0.00  0.00    +0.000 C 
ATOM     10  C   UNL     1       3.334  14.040  18.384  0.00  0.00    +0.000 C 
ENDROOT
BRANCH   1  13
ATOM     11  C   UNL     1       0.367  11.335  21.398  0.00  0.00    +0.000 A 
ATOM     12  C   UNL     1       0.588  12.648  20.939  0.00  0.00    +0.000 A 
ATOM     13  C   UNL     1       0.783  12.904  19.582  0.00  0.00    +0.000 A 
ATOM     14  C   UNL     1       0.902  11.830  18.710  0.00  0.00    +0.000 A 
ATOM     15  C   UNL     1       0.656  10.520  19.129  0.00  0.00    +0.000 A 
ATOM     16  C   UNL     1       0.403  10.249  20.490  0.00  0.00    +0.000 A 
BRANCH  11  18
ATOM     17  C   UNL     1      -1.200  10.689  23.074  0.00  0.00    +0.000 C 
ATOM     18  O   UNL     1       0.126  11.083  22.726  0.00  0.00    +0.000 OA
ENDBRANCH  11  18
BRANCH  15  19
ATOM     19  O   UNL     1       0.670   9.663  18.057  0.00  0.00    +0.000 OA
ATOM     20  C   UNL     1       1.839   8.916  17.765  0.00  0.00    +0.000 C 
ENDBRANCH  15  19
BRANCH  16  21
ATOM     21  O   UNL     1       0.225   8.928  20.791  0.00  0.00    +0.000 OA
ATOM     22  C   UNL     1       1.279   8.125  21.290  0.00  0.00    +0.000 C 
ENDBRANCH  16  21
ENDBRANCH   1  13
BRANCH   7  23
ATOM     23  C   UNL     1       7.118  15.802  18.666  0.00  0.00    +0.000 A 
ATOM     24  C   UNL     1       7.922  15.120  19.620  0.00  0.00    +0.000 A 
ATOM     25  C   UNL     1       8.902  14.467  18.899  0.00  0.00    +0.000 A 
ATOM     26  N   UNL     1       8.644  14.796  17.597  0.00  0.00    +0.000 N 
ATOM     27  N   UNL     1       7.619  15.638  17.429  0.00  0.00    +0.000 NA
ATOM     28  H   UNL     1       9.132  14.470  16.770  0.00  0.00    +0.000 HD
BRANCH  25  29
ATOM     29  C   UNL     1       9.998  13.587  19.297  0.00  0.00    +0.000 A 
ATOM     30  C   UNL     1      11.285  13.768  18.775  0.00  0.00    +0.000 A 
ATOM     31  C   UNL     1      12.333  12.923  19.156  0.00  0.00    +0.000 A 
ATOM     32  C   UNL     1      12.104  11.888  20.060  0.00  0.00    +0.000 A 
ATOM     33  C   UNL     1      10.830  11.699  20.588  0.00  0.00    +0.000 A 
ATOM     34  C   UNL     1       9.784  12.543  20.209  0.00  0.00    +0.000 A 
ENDBRANCH  25  29
ENDBRANCH   7  23
TORSDOF 6
ENDMDL
MODEL 4
REMARK VINA RESULT:      -7.9      5.579     10.220
REMARK  Name = 
REMARK  9 active torsions:
REMARK  status: ('A' for Active; 'I' for Inactive)
REMARK    1  A    between atoms: C_1  and  O_2
REMARK    2  A    between atoms: O_2  and  C_3
REMARK    3  A    between atoms: C_5  and  C_6
REMARK    4  A    between atoms: C_12  and  C_14
REMARK    5  A    between atoms: C_16  and  C_17
REMARK    6  A    between atoms: C_28  and  O_29
REMARK    7  A    between atoms: O_29  and  C_30
REMARK    8  A    between atoms: C_31  and  O_32
REMARK    9  A    between atoms: O_32  and  C_33
REMARK                            x       y       z     vdW  Elec       q    Type
REMARK                         _______ _______ _______ _____ _____    ______ ____
ROOT
ATOM      1  C   UNL     1       0.665  14.311  18.986  0.00  0.00    +0.000 C 
ATOM      2  O   UNL     1      -0.388  14.900  18.754  0.00  0.00    +0.000 OA
ATOM      3  N   UNL     1       1.917  14.883  18.754  0.00  0.00    +0.000 N 
ATOM      4  C   UNL     1       2.017  16.313  18.432  0.00  0.00    +0.000 C 
ATOM      5  C   UNL     1       3.007  17.032  19.375  0.00  0.00    +0.000 C 
ATOM      6  N   UNL     1       4.278  16.303  19.491  0.00  0.00    +0.000 N 
ATOM      7  C   UNL     1       5.466  17.026  19.653  0.00  0.00    +0.000 C 
ATOM      8  O   UNL     1       5.469  18.246  19.808  0.00  0.00    +0.000 OA
ATOM      9  C   UNL     1       4.128  14.874  19.804  0.00  0.00    +0.000 C 
ATOM     10  C   UNL     1       3.222  14.205  18.763  0.00  0.00    +0.000 C 
ENDROOT
BRANCH   1  13
ATOM     11  C   UNL     1       0.104  11.433  21.395  0.00  0.00    +0.000 A 
ATOM     12  C   UNL     1       0.319  12.729  20.887  0.00  0.00    +0.000 A 
ATOM     13  C   UNL     1       0.574  12.928  19.530  0.00  0.00    +0.000 A 
ATOM     14  C   UNL     1       0.757  11.819  18.715  0.00  0.00    +0.000 A 
ATOM     15  C   UNL     1       0.519  10.524  19.182  0.00  0.00    +0.000 A 
ATOM     16  C   UNL     1       0.207  10.308  20.540  0.00  0.00    +0.000 A 
BRANCH  11  18
ATOM     17  C   UNL     1      -1.517  11.571  23.137  0.00  0.00    +0.000 C 
ATOM     18  O   UNL     1      -0.194  11.236  22.720  0.00  0.00    +0.000 OA
ENDBRANCH  11  18
BRANCH  15  19
ATOM     19  O   UNL     1       0.602   9.620  18.152  0.00  0.00    +0.000 OA
ATOM     20  C   UNL     1       1.863   9.091  17.777  0.00  0.00    +0.000 C 
ENDBRANCH  15  19
BRANCH  16  21
ATOM     21  O   UNL     1       0.042   8.998  20.893  0.00  0.00    +0.000 OA
ATOM     22  C   UNL     1       1.122   8.204  21.348  0.00  0.00    +0.000 C 
ENDBRANCH  16  21
ENDBRANCH   1  13
BRANCH   7  23
ATOM     23  C   UNL     1       6.751  16.275  19.639  0.00  0.00    +0.000 A 
ATOM     24  C   UNL     1       7.411  15.763  18.489  0.00  0.00    +0.000 A 
ATOM     25  C   UNL     1       8.564  15.156  18.946  0.00  0.00    +0.000 A 
ATOM     26  N   UNL     1       8.522  15.324  20.303  0.00  0.00    +0.000 N 
ATOM     27  N   UNL     1       7.423  15.938  20.754  0.00  0.00    +0.000 NA
ATOM     28  H   UNL     1       9.223  15.044  20.981  0.00  0.00    +0.000 HD
BRANCH  25  29
ATOM     29  C   UNL     1       9.663  14.481  18.260  0.00  0.00    +0.000 A 
ATOM     30  C   UNL     1       9.666  13.088  18.113  0.00  0.00    +0.000 A 
ATOM     31  C   UNL     1      10.719  12.443  17.457  0.00  0.00    +0.000 A 
ATOM     32  C   UNL     1      11.782  13.185  16.944  0.00  0.00    +0.000 A 
ATOM     33  C   UNL     1      11.791  14.569  17.082  0.00  0.00    +0.000 A 
ATOM     34  C   UNL     1      10.738  15.214  17.736  0.00  0.00    +0.000 A 
ENDBRANCH  25  29
ENDBRANCH   7  23
TORSDOF 6
ENDMDL
MODEL 5
REMARK VINA RESULT:      -7.7      2.653      9.202
REMARK  Name = 
REMARK  9 active torsions:
REMARK  status: ('A' for Active; 'I' for Inactive)
REMARK    1  A    between atoms: C_1  and  O_2
REMARK    2  A    between atoms: O_2  and  C_3
REMARK    3  A    between atoms: C_5  and  C_6
REMARK    4  A    between atoms: C_12  and  C_14
REMARK    5  A    between atoms: C_16  and  C_17
REMARK    6  A    between atoms: C_28  and  O_29
REMARK    7  A    between atoms: O_29  and  C_30
REMARK    8  A    between atoms: C_31  and  O_32
REMARK    9  A    between atoms: O_32  and  C_33
REMARK                            x       y       z     vdW  Elec       q    Type
REMARK                         _______ _______ _______ _____ _____    ______ ____
ROOT
ATOM      1  C   UNL     1       0.536   8.410  20.846  0.00  0.00    +0.000 C 
ATOM      2  O   UNL     1      -0.247   8.292  21.786  0.00  0.00    +0.000 OA
ATOM      3  N   UNL     1       1.490   7.442  20.530  0.00  0.00    +0.000 N 
ATOM      4  C   UNL     1       1.440   6.128  21.185  0.00  0.00    +0.000 C 
ATOM      5  C   UNL     1       1.437   4.985  20.146  0.00  0.00    +0.000 C 
ATOM      6  N   UNL     1       2.487   5.164  19.133  0.00  0.00    +0.000 N 
ATOM      7  C   UNL     1       3.115   4.036  18.594  0.00  0.00    +0.000 C 
ATOM      8  O   UNL     1       2.744   2.894  18.864  0.00  0.00    +0.000 OA
ATOM      9  C   UNL     1       2.505   6.498  18.512  0.00  0.00    +0.000 C 
ATOM     10  C   UNL     1       2.620   7.576  19.597  0.00  0.00    +0.000 C 
ENDROOT
BRANCH   1  13
ATOM     11  C   UNL     1      -0.810  11.064  18.490  0.00  0.00    +0.000 A 
ATOM     12  C   UNL     1      -0.641   9.844  19.174  0.00  0.00    +0.000 A 
ATOM     13  C   UNL     1       0.444   9.652  20.029  0.00  0.00    +0.000 A 
ATOM     14  C   UNL     1       1.432  10.626  20.083  0.00  0.00    +0.000 A 
ATOM     15  C   UNL     1       1.278  11.858  19.443  0.00  0.00    +0.000 A 
ATOM     16  C   UNL     1       0.159  12.090  18.617  0.00  0.00    +0.000 A 
BRANCH  11  18
ATOM     17  C   UNL     1      -3.138  11.550  18.340  0.00  0.00    +0.000 C 
ATOM     18  O   UNL     1      -1.901  11.276  17.685  0.00  0.00    +0.000 OA
ENDBRANCH  11  18
BRANCH  15  19
ATOM     19  O   UNL     1       2.302  12.707  19.782  0.00  0.00    +0.000 OA
ATOM     20  C   UNL     1       2.217  13.479  20.968  0.00  0.00    +0.000 C 
ENDBRANCH  15  19
BRANCH  16  21
ATOM     21  O   UNL     1       0.137  13.312  18.005  0.00  0.00    +0.000 OA
ATOM     22  C   UNL     1      -0.372  14.464  18.651  0.00  0.00    +0.000 C 
ENDBRANCH  16  21
ENDBRANCH   1  13
BRANCH   7  23
ATOM     23  C   UNL     1       4.260   4.246  17.667  0.00  0.00    +0.000 A 
ATOM     24  C   UNL     1       4.258   4.012  16.264  0.00  0.00    +0.000 A 
ATOM     25  C   UNL     1       5.519   4.353  15.816  0.00  0.00    +0.000 A 
ATOM     26  N   UNL     1       6.186   4.748  16.943  0.00  0.00    +0.000 N 
ATOM     27  N   UNL     1       5.479   4.641  18.074  0.00  0.00    +0.000 NA
ATOM     28  H   UNL     1       7.131   5.110  17.005  0.00  0.00    +0.000 HD
BRANCH  25  29
ATOM     29  C   UNL     1       6.124   4.363  14.487  0.00  0.00    +0.000 A 
ATOM     30  C   UNL     1       5.592   3.581  13.453  0.00  0.00    +0.000 A 
ATOM     31  C   UNL     1       6.174   3.591  12.182  0.00  0.00    +0.000 A 
ATOM     32  C   UNL     1       7.295   4.379  11.931  0.00  0.00    +0.000 A 
ATOM     33  C   UNL     1       7.833   5.162  12.949  0.00  0.00    +0.000 A 
ATOM     34  C   UNL     1       7.252   5.153  14.219  0.00  0.00    +0.000 A 
ENDBRANCH  25  29
ENDBRANCH   7  23
TORSDOF 6
ENDMDL
MODEL 6
REMARK VINA RESULT:      -7.6      6.117     10.688
REMARK  Name = 
REMARK  9 active torsions:
REMARK  status: ('A' for Active; 'I' for Inactive)
REMARK    1  A    between atoms: C_1  and  O_2
REMARK    2  A    between atoms: O_2  and  C_3
REMARK    3  A    between atoms: C_5  and  C_6
REMARK    4  A    between atoms: C_12  and  C_14
REMARK    5  A    between atoms: C_16  and  C_17
REMARK    6  A    between atoms: C_28  and  O_29
REMARK    7  A    between atoms: O_29  and  C_30
REMARK    8  A    between atoms: C_31  and  O_32
REMARK    9  A    between atoms: O_32  and  C_33
REMARK                            x       y       z     vdW  Elec       q    Type
REMARK                         _______ _______ _______ _____ _____    ______ ____
ROOT
ATOM      1  C   UNL     1       0.770  14.459  19.027  0.00  0.00    +0.000 C 
ATOM      2  O   UNL     1      -0.171  15.069  18.524  0.00  0.00    +0.000 OA
ATOM      3  N   UNL     1       2.102  14.810  18.806  0.00  0.00    +0.000 N 
ATOM      4  C   UNL     1       2.421  16.077  18.134  0.00  0.00    +0.000 C 
ATOM      5  C   UNL     1       3.413  16.918  18.969  0.00  0.00    +0.000 C 
ATOM      6  N   UNL     1       4.559  16.119  19.423  0.00  0.00    +0.000 N 
ATOM      7  C   UNL     1       5.815  16.729  19.532  0.00  0.00    +0.000 C 
ATOM      8  O   UNL     1       5.968  17.937  19.361  0.00  0.00    +0.000 OA
ATOM      9  C   UNL     1       4.192  14.855  20.079  0.00  0.00    +0.000 C 
ATOM     10  C   UNL     1       3.299  14.026  19.149  0.00  0.00    +0.000 C 
ENDROOT
BRANCH   1  13
ATOM     11  C   UNL     1      -0.384  12.429  22.019  0.00  0.00    +0.000 A 
ATOM     12  C   UNL     1       0.047  13.506  21.219  0.00  0.00    +0.000 A 
ATOM     13  C   UNL     1       0.446  13.296  19.899  0.00  0.00    +0.000 A 
ATOM     14  C   UNL     1       0.553  11.993  19.432  0.00  0.00    +0.000 A 
ATOM     15  C   UNL     1       0.103  10.908  20.190  0.00  0.00    +0.000 A 
ATOM     16  C   UNL     1      -0.356  11.108  21.508  0.00  0.00    +0.000 A 
BRANCH  11  18
ATOM     17  C   UNL     1      -2.086  13.285  23.451  0.00  0.00    +0.000 C 
ATOM     18  O   UNL     1      -0.824  12.637  23.303  0.00  0.00    +0.000 OA
ENDBRANCH  11  18
BRANCH  15  19
ATOM     19  O   UNL     1       0.158   9.752  19.452  0.00  0.00    +0.000 OA
ATOM     20  C   UNL     1       1.195   9.567  18.504  0.00  0.00    +0.000 C 
ENDBRANCH  15  19
BRANCH  16  21
ATOM     21  O   UNL     1      -0.725   9.971  22.170  0.00  0.00    +0.000 OA
ATOM     22  C   UNL     1       0.032   9.453  23.248  0.00  0.00    +0.000 C 
ENDBRANCH  16  21
ENDBRANCH   1  13
BRANCH   7  23
ATOM     23  C   UNL     1       6.983  15.871  19.870  0.00  0.00    +0.000 A 
ATOM     24  C   UNL     1       7.632  14.955  18.997  0.00  0.00    +0.000 A 
ATOM     25  C   UNL     1       8.663  14.395  19.726  0.00  0.00    +0.000 A 
ATOM     26  N   UNL     1       8.568  14.982  20.958  0.00  0.00    +0.000 N 
ATOM     27  N   UNL     1       7.539  15.826  21.093  0.00  0.00    +0.000 NA
ATOM     28  H   UNL     1       9.184  14.852  21.752  0.00  0.00    +0.000 HD
BRANCH  25  29
ATOM     29  C   UNL     1       9.696  13.421  19.386  0.00  0.00    +0.000 A 
ATOM     30  C   UNL     1       9.858  12.982  18.065  0.00  0.00    +0.000 A 
ATOM     31  C   UNL     1      10.846  12.048  17.741  0.00  0.00    +0.000 A 
ATOM     32  C   UNL     1      11.682  11.540  18.735  0.00  0.00    +0.000 A 
ATOM     33  C   UNL     1      11.533  11.969  20.050  0.00  0.00    +0.000 A 
ATOM     34  C   UNL     1      10.547  12.903  20.374  0.00  0.00    +0.000 A 
ENDBRANCH  25  29
ENDBRANCH   7  23
TORSDOF 6
ENDMDL
MODEL 7
REMARK VINA RESULT:      -7.5      2.596      9.385
REMARK  Name = 
REMARK  9 active torsions:
REMARK  status: ('A' for Active; 'I' for Inactive)
REMARK    1  A    between atoms: C_1  and  O_2
REMARK    2  A    between atoms: O_2  and  C_3
REMARK    3  A    between atoms: C_5  and  C_6
REMARK    4  A    between atoms: C_12  and  C_14
REMARK    5  A    between atoms: C_16  and  C_17
REMARK    6  A    between atoms: C_28  and  O_29
REMARK    7  A    between atoms: O_29  and  C_30
REMARK    8  A    between atoms: C_31  and  O_32
REMARK    9  A    between atoms: O_32  and  C_33
REMARK                            x       y       z     vdW  Elec       q    Type
REMARK                         _______ _______ _______ _____ _____    ______ ____
ROOT
ATOM      1  C   UNL     1       0.429   8.580  21.152  0.00  0.00    +0.000 C 
ATOM      2  O   UNL     1      -0.299   8.372  22.120  0.00  0.00    +0.000 OA
ATOM      3  N   UNL     1       1.384   7.662  20.714  0.00  0.00    +0.000 N 
ATOM      4  C   UNL     1       1.397   6.301  21.270  0.00  0.00    +0.000 C 
ATOM      5  C   UNL     1       1.362   5.239  20.148  0.00  0.00    +0.000 C 
ATOM      6  N   UNL     1       2.351   5.519  19.099  0.00  0.00    +0.000 N 
ATOM      7  C   UNL     1       2.973   4.450  18.444  0.00  0.00    +0.000 C 
ATOM      8  O   UNL     1       2.640   3.283  18.645  0.00  0.00    +0.000 OA
ATOM      9  C   UNL     1       2.308   6.896  18.580  0.00  0.00    +0.000 C 
ATOM     10  C   UNL     1       2.459   7.892  19.736  0.00  0.00    +0.000 C 
ENDROOT
BRANCH   1  13
ATOM     11  C   UNL     1       0.977  12.180  20.081  0.00  0.00    +0.000 A 
ATOM     12  C   UNL     1       1.024  10.983  20.823  0.00  0.00    +0.000 A 
ATOM     13  C   UNL     1       0.267   9.877  20.438  0.00  0.00    +0.000 A 
ATOM     14  C   UNL     1      -0.643  10.019  19.399  0.00  0.00    +0.000 A 
ATOM     15  C   UNL     1      -0.689  11.181  18.624  0.00  0.00    +0.000 A 
ATOM     16  C   UNL     1       0.110  12.291  18.967  0.00  0.00    +0.000 A 
BRANCH  11  18
ATOM     17  C   UNL     1       2.873  13.536  19.587  0.00  0.00    +0.000 C 
ATOM     18  O   UNL     1       1.756  13.255  20.428  0.00  0.00    +0.000 OA
ENDBRANCH  11  18
BRANCH  15  19
ATOM     19  O   UNL     1      -1.543  11.016  17.562  0.00  0.00    +0.000 OA
ATOM     20  C   UNL     1      -2.428   9.909  17.533  0.00  0.00    +0.000 C 
ENDBRANCH  15  19
BRANCH  16  21
ATOM     21  O   UNL     1      -0.054  13.388  18.168  0.00  0.00    +0.000 OA
ATOM     22  C   UNL     1      -0.528  14.621  18.678  0.00  0.00    +0.000 C 
ENDBRANCH  16  21
ENDBRANCH   1  13
BRANCH   7  23
ATOM     23  C   UNL     1       4.061   4.757  17.477  0.00  0.00    +0.000 A 
ATOM     24  C   UNL     1       4.264   4.132  16.216  0.00  0.00    +0.000 A 
ATOM     25  C   UNL     1       5.375   4.737  15.661  0.00  0.00    +0.000 A 
ATOM     26  N   UNL     1       5.767   5.653  16.599  0.00  0.00    +0.000 N 
ATOM     27  N   UNL     1       5.036   5.650  17.719  0.00  0.00    +0.000 NA
ATOM     28  H   UNL     1       6.527   6.320  16.529  0.00  0.00    +0.000 HD
BRANCH  25  29
ATOM     29  C   UNL     1       6.060   4.561  14.384  0.00  0.00    +0.000 A 
ATOM     30  C   UNL     1       5.573   3.657  13.430  0.00  0.00    +0.000 A 
ATOM     31  C   UNL     1       6.232   3.488  12.209  0.00  0.00    +0.000 A 
ATOM     32  C   UNL     1       7.386   4.218  11.929  0.00  0.00    +0.000 A 
ATOM     33  C   UNL     1       7.879   5.121  12.867  0.00  0.00    +0.000 A 
ATOM     34  C   UNL     1       7.221   5.291  14.086  0.00  0.00    +0.000 A 
ENDBRANCH  25  29
ENDBRANCH   7  23
TORSDOF 6
ENDMDL
MODEL 8
REMARK VINA RESULT:      -7.5      6.392     10.647
REMARK  Name = 
REMARK  9 active torsions:
REMARK  status: ('A' for Active; 'I' for Inactive)
REMARK    1  A    between atoms: C_1  and  O_2
REMARK    2  A    between atoms: O_2  and  C_3
REMARK    3  A    between atoms: C_5  and  C_6
REMARK    4  A    between atoms: C_12  and  C_14
REMARK    5  A    between atoms: C_16  and  C_17
REMARK    6  A    between atoms: C_28  and  O_29
REMARK    7  A    between atoms: O_29  and  C_30
REMARK    8  A    between atoms: C_31  and  O_32
REMARK    9  A    between atoms: O_32  and  C_33
REMARK                            x       y       z     vdW  Elec       q    Type
REMARK                         _______ _______ _______ _____ _____    ______ ____
ROOT
ATOM      1  C   UNL     1       0.479  14.839  19.095  0.00  0.00    +0.000 C 
ATOM      2  O   UNL     1      -0.400  15.533  18.589  0.00  0.00    +0.000 OA
ATOM      3  N   UNL     1       1.839  15.076  18.894  0.00  0.00    +0.000 N 
ATOM      4  C   UNL     1       2.275  16.319  18.241  0.00  0.00    +0.000 C 
ATOM      5  C   UNL     1       3.324  17.062  19.097  0.00  0.00    +0.000 C 
ATOM      6  N   UNL     1       4.392  16.163  19.555  0.00  0.00    +0.000 N 
ATOM      7  C   UNL     1       5.694  16.661  19.686  0.00  0.00    +0.000 C 
ATOM      8  O   UNL     1       5.952  17.853  19.532  0.00  0.00    +0.000 OA
ATOM      9  C   UNL     1       3.909  14.928  20.192  0.00  0.00    +0.000 C 
ATOM     10  C   UNL     1       2.960  14.189  19.242  0.00  0.00    +0.000 C 
ENDROOT
BRANCH   1  13
ATOM     11  C   UNL     1      -0.382  11.315  20.211  0.00  0.00    +0.000 A 
ATOM     12  C   UNL     1      -0.096  12.427  19.395  0.00  0.00    +0.000 A 
ATOM     13  C   UNL     1       0.046  13.699  19.950  0.00  0.00    +0.000 A 
ATOM     14  C   UNL     1      -0.245  13.877  21.296  0.00  0.00    +0.000 A 
ATOM     15  C   UNL     1      -0.499  12.790  22.136  0.00  0.00    +0.000 A 
ATOM     16  C   UNL     1      -0.592  11.489  21.601  0.00  0.00    +0.000 A 
BRANCH  11  18
ATOM     17  C   UNL     1       0.621   9.615  18.875  0.00  0.00    +0.000 C 
ATOM     18  O   UNL     1      -0.474  10.054  19.677  0.00  0.00    +0.000 OA
ENDBRANCH  11  18
BRANCH  15  19
ATOM     19  O   UNL     1      -0.588  13.204  23.442  0.00  0.00    +0.000 OA
ATOM     20  C   UNL     1      -1.066  14.505  23.740  0.00  0.00    +0.000 C 
ENDBRANCH  15  19
BRANCH  16  21
ATOM     21  O   UNL     1      -0.892  10.512  22.508  0.00  0.00    +0.000 OA
ATOM     22  C   UNL     1       0.097   9.639  23.023  0.00  0.00    +0.000 C 
ENDBRANCH  16  21
ENDBRANCH   1  13
BRANCH   7  23
ATOM     23  C   UNL     1       6.780  15.702  20.028  0.00  0.00    +0.000 A 
ATOM     24  C   UNL     1       7.559  14.953  19.104  0.00  0.00    +0.000 A 
ATOM     25  C   UNL     1       8.446  14.214  19.861  0.00  0.00    +0.000 A 
ATOM     26  N   UNL     1       8.147  14.543  21.155  0.00  0.00    +0.000 N 
ATOM     27  N   UNL     1       7.119  15.387  21.290  0.00  0.00    +0.000 NA
ATOM     28  H   UNL     1       8.618  14.228  21.996  0.00  0.00    +0.000 HD
BRANCH  25  29
ATOM     29  C   UNL     1       9.513  13.284  19.502  0.00  0.00    +0.000 A 
ATOM     30  C   UNL     1       9.533  12.670  18.243  0.00  0.00    +0.000 A 
ATOM     31  C   UNL     1      10.555  11.779  17.901  0.00  0.00    +0.000 A 
ATOM     32  C   UNL     1      11.566  11.489  18.816  0.00  0.00    +0.000 A 
ATOM     33  C   UNL     1      11.559  12.094  20.069  0.00  0.00    +0.000 A 
ATOM     34  C   UNL     1      10.540  12.985  20.411  0.00  0.00    +0.000 A 
ENDBRANCH  25  29
ENDBRANCH   7  23
TORSDOF 6
ENDMDL
MODEL 9
REMARK VINA RESULT:      -7.5      0.684      1.090
REMARK  Name = 
REMARK  9 active torsions:
REMARK  status: ('A' for Active; 'I' for Inactive)
REMARK    1  A    between atoms: C_1  and  O_2
REMARK    2  A    between atoms: O_2  and  C_3
REMARK    3  A    between atoms: C_5  and  C_6
REMARK    4  A    between atoms: C_12  and  C_14
REMARK    5  A    between atoms: C_16  and  C_17
REMARK    6  A    between atoms: C_28  and  O_29
REMARK    7  A    between atoms: O_29  and  C_30
REMARK    8  A    between atoms: C_31  and  O_32
REMARK    9  A    between atoms: O_32  and  C_33
REMARK                            x       y       z     vdW  Elec       q    Type
REMARK                         _______ _______ _______ _____ _____    ______ ____
ROOT
ATOM      1  C   UNL     1       3.654   4.015  18.630  0.00  0.00    +0.000 C 
ATOM      2  O   UNL     1       3.569   2.912  19.166  0.00  0.00    +0.000 OA
ATOM      3  N   UNL     1       2.719   5.029  18.835  0.00  0.00    +0.000 N 
ATOM      4  C   UNL     1       1.706   4.885  19.890  0.00  0.00    +0.000 C 
ATOM      5  C   UNL     1       1.707   6.106  20.836  0.00  0.00    +0.000 C 
ATOM      6  N   UNL     1       1.692   7.374  20.093  0.00  0.00    +0.000 N 
ATOM      7  C   UNL     1       1.010   8.472  20.630  0.00  0.00    +0.000 C 
ATOM      8  O   UNL     1       0.512   8.441  21.754  0.00  0.00    +0.000 OA
ATOM      9  C   UNL     1       2.716   7.468  19.040  0.00  0.00    +0.000 C 
ATOM     10  C   UNL     1       2.582   6.282  18.077  0.00  0.00    +0.000 C 
ENDROOT
BRANCH   1  13
ATOM     11  C   UNL     1       5.903   3.886  15.575  0.00  0.00    +0.000 A 
ATOM     12  C   UNL     1       4.883   3.584  16.499  0.00  0.00    +0.000 A 
ATOM     13  C   UNL     1       4.812   4.248  17.723  0.00  0.00    +0.000 A 
ATOM     14  C   UNL     1       5.845   5.106  18.078  0.00  0.00    +0.000 A 
ATOM     15  C   UNL     1       6.851   5.450  17.172  0.00  0.00    +0.000 A 
ATOM     16  C   UNL     1       6.907   4.827  15.908  0.00  0.00    +0.000 A 
BRANCH  11  18
ATOM     17  C   UNL     1       5.148   3.838  13.315  0.00  0.00    +0.000 C 
ATOM     18  O   UNL     1       5.949   3.270  14.349  0.00  0.00    +0.000 OA
ENDBRANCH  11  18
BRANCH  15  19
ATOM     19  O   UNL     1       7.652   6.434  17.696  0.00  0.00    +0.000 OA
ATOM     20  C   UNL     1       7.371   7.796  17.420  0.00  0.00    +0.000 C 
ENDBRANCH  15  19
BRANCH  16  21
ATOM     21  O   UNL     1       7.961   5.207  15.125  0.00  0.00    +0.000 OA
ATOM     22  C   UNL     1       7.779   5.676  13.801  0.00  0.00    +0.000 C 
ENDBRANCH  16  21
ENDBRANCH   1  13
BRANCH   7  23
ATOM     23  C   UNL     1       0.901   9.703  19.801  0.00  0.00    +0.000 A 
ATOM     24  C   UNL     1       1.126  11.036  20.244  0.00  0.00    +0.000 A 
ATOM     25  C   UNL     1       0.926  11.845  19.143  0.00  0.00    +0.000 A 
ATOM     26  N   UNL     1       0.591  10.979  18.139  0.00  0.00    +0.000 N 
ATOM     27  N   UNL     1       0.512   9.697  18.514  0.00  0.00    +0.000 NA
ATOM     28  H   UNL     1       0.411  11.202  17.167  0.00  0.00    +0.000 HD
BRANCH  25  29
ATOM     29  C   UNL     1       1.033  13.288  18.948  0.00  0.00    +0.000 A 
ATOM     30  C   UNL     1       2.274  13.884  18.686  0.00  0.00    +0.000 A 
ATOM     31  C   UNL     1       2.375  15.266  18.500  0.00  0.00    +0.000 A 
ATOM     32  C   UNL     1       1.237  16.068  18.577  0.00  0.00    +0.000 A 
ATOM     33  C   UNL     1      -0.002  15.488  18.835  0.00  0.00    +0.000 A 
ATOM     34  C   UNL     1      -0.103  14.108  19.019  0.00  0.00    +0.000 A 
ENDBRANCH  25  29
ENDBRANCH   7  23
TORSDOF 6
ENDMDL
