MODEL 1
REMARK VINA RESULT:      -8.4      0.000      0.000
REMARK  Name = 
REMARK  3 active torsions:
REMARK  status: ('A' for Active; 'I' for Inactive)
REMARK    1  A    between atoms: C_1  and  C_2
REMARK    2  A    between atoms: C_2  and  C_3
REMARK    3  A    between atoms: C_7  and  C_9
REMARK                            x       y       z     vdW  Elec       q    Type
REMARK                         _______ _______ _______ _____ _____    ______ ____
ROOT
ATOM      1  C   UNL     1       4.375   6.161  17.640  0.00  0.00    +0.000 A 
ATOM      2  C   UNL     1       4.395   5.290  18.732  0.00  0.00    +0.000 A 
ATOM      3  C   UNL     1       3.526   5.493  19.815  0.00  0.00    +0.000 A 
ATOM      4  C   UNL     1       2.651   6.596  19.813  0.00  0.00    +0.000 A 
ATOM      5  C   UNL     1       1.679   7.074  20.720  0.00  0.00    +0.000 A 
ATOM      6  C   UNL     1       1.167   8.272  20.246  0.00  0.00    +0.000 A 
ATOM      7  N   UNL     1       1.769   8.506  19.025  0.00  0.00    +0.000 N 
ATOM      8  C   UNL     1       2.667   7.483  18.739  0.00  0.00    +0.000 A 
ATOM      9  C   UNL     1       3.507   7.268  17.632  0.00  0.00    +0.000 A 
ATOM     10  C   UNL     1       1.531   9.618  18.116  0.00  0.00    +0.000 C 
ATOM     11  C   UNL     1       1.055  10.959  18.679  0.00  0.00    +0.000 C 
ATOM     12  C   UNL     1       1.362  11.157  20.149  0.00  0.00    +0.000 C 
ATOM     13  N   UNL     1       0.387  10.441  20.933  0.00  0.00    +0.000 N 
ATOM     14  C   UNL     1       0.206   9.086  20.952  0.00  0.00    +0.000 C 
ATOM     15  O   UNL     1      -0.717   8.622  21.617  0.00  0.00    +0.000 OA
ATOM     16  H   UNL     1      -0.297  10.951  21.478  0.00  0.00    +0.000 HD
ENDROOT
BRANCH   1  21
ATOM     17  C   UNL     1       6.623   3.752  12.663  0.00  0.00    +0.000 A 
ATOM     18  C   UNL     1       5.592   3.663  13.569  0.00  0.00    +0.000 A 
ATOM     19  C   UNL     1       5.824   4.722  14.487  0.00  0.00    +0.000 A 
ATOM     20  N   UNL     1       5.035   4.993  15.592  0.00  0.00    +0.000 N 
ATOM     21  C   UNL     1       5.299   6.021  16.477  0.00  0.00    +0.000 C 
ATOM     22  O   UNL     1       6.211   6.838  16.388  0.00  0.00    +0.000 OA
ATOM     23  N   UNL     1       6.917   5.405  14.129  0.00  0.00    +0.000 NA
ATOM     24  O   UNL     1       7.409   4.807  12.996  0.00  0.00    +0.000 OA
ATOM     25  H   UNL     1       4.216   4.418  15.709  0.00  0.00    +0.000 HD
BRANCH  17  27
ATOM     26  C   UNL     1       6.243   1.703  11.314  0.00  0.00    +0.000 C 
ATOM     27  C   UNL     1       7.048   2.981  11.473  0.00  0.00    +0.000 C 
ENDBRANCH  17  27
ENDBRANCH   1  21
TORSDOF 2
ENDMDL
MODEL 2
REMARK VINA RESULT:      -8.2      3.964      9.807
REMARK  Name = 
REMARK  3 active torsions:
REMARK  status: ('A' for Active; 'I' for Inactive)
REMARK    1  A    between atoms: C_1  and  C_2
REMARK    2  A    between atoms: C_2  and  C_3
REMARK    3  A    between atoms: C_7  and  C_9
REMARK                            x       y       z     vdW  Elec       q    Type
REMARK                         _______ _______ _______ _____ _____    ______ ____
ROOT
ATOM      1  C   UNL     1       1.521   8.121  20.176  0.00  0.00    +0.000 A 
ATOM      2  C   UNL     1       1.991   8.526  18.925  0.00  0.00    +0.000 A 
ATOM      3  C   UNL     1       2.519   7.585  18.029  0.00  0.00    +0.000 A 
ATOM      4  C   UNL     1       2.601   6.229  18.404  0.00  0.00    +0.000 A 
ATOM      5  C   UNL     1       3.066   5.063  17.757  0.00  0.00    +0.000 A 
ATOM      6  C   UNL     1       2.992   3.996  18.639  0.00  0.00    +0.000 A 
ATOM      7  N   UNL     1       2.427   4.480  19.803  0.00  0.00    +0.000 N 
ATOM      8  C   UNL     1       2.168   5.841  19.669  0.00  0.00    +0.000 A 
ATOM      9  C   UNL     1       1.604   6.770  20.561  0.00  0.00    +0.000 A 
ATOM     10  C   UNL     1       2.105   3.735  21.011  0.00  0.00    +0.000 C 
ATOM     11  C   UNL     1       2.910   2.481  21.357  0.00  0.00    +0.000 C 
ATOM     12  C   UNL     1       4.274   2.422  20.699  0.00  0.00    +0.000 C 
ATOM     13  N   UNL     1       4.119   1.988  19.333  0.00  0.00    +0.000 N 
ATOM     14  C   UNL     1       3.455   2.660  18.346  0.00  0.00    +0.000 C 
ATOM     15  O   UNL     1       3.341   2.131  17.243  0.00  0.00    +0.000 OA
ATOM     16  H   UNL     1       4.450   1.074  19.052  0.00  0.00    +0.000 HD
ENDROOT
BRANCH   1  21
ATOM     17  C   UNL     1      -1.763  12.646  22.263  0.00  0.00    +0.000 A 
ATOM     18  C   UNL     1      -1.517  11.878  21.149  0.00  0.00    +0.000 A 
ATOM     19  C   UNL     1      -0.541  10.934  21.569  0.00  0.00    +0.000 A 
ATOM     20  N   UNL     1       0.023   9.969  20.752  0.00  0.00    +0.000 N 
ATOM     21  C   UNL     1       0.984   9.078  21.188  0.00  0.00    +0.000 C 
ATOM     22  O   UNL     1       1.427   8.988  22.330  0.00  0.00    +0.000 OA
ATOM     23  N   UNL     1      -0.246  11.127  22.860  0.00  0.00    +0.000 NA
ATOM     24  O   UNL     1      -1.008  12.185  23.291  0.00  0.00    +0.000 OA
ATOM     25  H   UNL     1      -0.331   9.917  19.811  0.00  0.00    +0.000 HD
BRANCH  17  27
ATOM     26  C   UNL     1      -3.567  13.534  23.719  0.00  0.00    +0.000 C 
ATOM     27  C   UNL     1      -2.619  13.815  22.566  0.00  0.00    +0.000 C 
ENDBRANCH  17  27
ENDBRANCH   1  21
TORSDOF 2
ENDMDL
MODEL 3
REMARK VINA RESULT:      -8.1      3.855      8.754
REMARK  Name = 
REMARK  3 active torsions:
REMARK  status: ('A' for Active; 'I' for Inactive)
REMARK    1  A    between atoms: C_1  and  C_2
REMARK    2  A    between atoms: C_2  and  C_3
REMARK    3  A    between atoms: C_7  and  C_9
REMARK                            x       y       z     vdW  Elec       q    Type
REMARK                         _______ _______ _______ _____ _____    ______ ____
ROOT
ATOM      1  C   UNL     1       2.546   8.031  18.066  0.00  0.00    +0.000 A 
ATOM      2  C   UNL     1       3.712   7.905  17.307  0.00  0.00    +0.000 A 
ATOM      3  C   UNL     1       4.328   6.654  17.160  0.00  0.00    +0.000 A 
ATOM      4  C   UNL     1       3.784   5.525  17.804  0.00  0.00    +0.000 A 
ATOM      5  C   UNL     1       4.150   4.162  17.860  0.00  0.00    +0.000 A 
ATOM      6  C   UNL     1       3.297   3.500  18.730  0.00  0.00    +0.000 A 
ATOM      7  N   UNL     1       2.370   4.428  19.162  0.00  0.00    +0.000 N 
ATOM      8  C   UNL     1       2.645   5.668  18.593  0.00  0.00    +0.000 A 
ATOM      9  C   UNL     1       1.999   6.910  18.717  0.00  0.00    +0.000 A 
ATOM     10  C   UNL     1       1.242   4.208  20.056  0.00  0.00    +0.000 C 
ATOM     11  C   UNL     1       1.315   3.087  21.094  0.00  0.00    +0.000 C 
ATOM     12  C   UNL     1       2.725   2.651  21.436  0.00  0.00    +0.000 C 
ATOM     13  N   UNL     1       3.209   1.771  20.400  0.00  0.00    +0.000 N 
ATOM     14  C   UNL     1       3.419   2.107  19.093  0.00  0.00    +0.000 C 
ATOM     15  O   UNL     1       3.765   1.230  18.305  0.00  0.00    +0.000 OA
ATOM     16  H   UNL     1       3.347   0.788  20.597  0.00  0.00    +0.000 HD
ENDROOT
BRANCH   1  21
ATOM     17  C   UNL     1      -1.052  11.966  20.748  0.00  0.00    +0.000 A 
ATOM     18  C   UNL     1      -0.533  10.696  20.843  0.00  0.00    +0.000 A 
ATOM     19  C   UNL     1       0.329  10.572  19.720  0.00  0.00    +0.000 A 
ATOM     20  N   UNL     1       1.049   9.433  19.403  0.00  0.00    +0.000 N 
ATOM     21  C   UNL     1       1.865   9.340  18.291  0.00  0.00    +0.000 C 
ATOM     22  O   UNL     1       2.094  10.234  17.482  0.00  0.00    +0.000 OA
ATOM     23  N   UNL     1       0.330  11.711  19.018  0.00  0.00    +0.000 NA
ATOM     24  O   UNL     1      -0.522  12.577  19.658  0.00  0.00    +0.000 OA
ATOM     25  H   UNL     1       0.981   8.666  20.051  0.00  0.00    +0.000 HD
BRANCH  17  27
ATOM     26  C   UNL     1      -2.297  12.151  22.888  0.00  0.00    +0.000 C 
ATOM     27  C   UNL     1      -2.022  12.768  21.528  0.00  0.00    +0.000 C 
ENDBRANCH  17  27
ENDBRANCH   1  21
TORSDOF 2
ENDMDL
MODEL 4
REMARK VINA RESULT:      -8.1      4.670      6.929
REMARK  Name = 
REMARK  3 active torsions:
REMARK  status: ('A' for Active; 'I' for Inactive)
REMARK    1  A    between atoms: C_1  and  C_2
REMARK    2  A    between atoms: C_2  and  C_3
REMARK    3  A    between atoms: C_7  and  C_9
REMARK                            x       y       z     vdW  Elec       q    Type
REMARK                         _______ _______ _______ _____ _____    ______ ____
ROOT
ATOM      1  C   UNL     1       6.701   6.151  17.867  0.00  0.00    +0.000 A 
ATOM      2  C   UNL     1       6.917   5.325  16.761  0.00  0.00    +0.000 A 
ATOM      3  C   UNL     1       5.993   4.321  16.437  0.00  0.00    +0.000 A 
ATOM      4  C   UNL     1       4.857   4.126  17.247  0.00  0.00    +0.000 A 
ATOM      5  C   UNL     1       3.767   3.229  17.201  0.00  0.00    +0.000 A 
ATOM      6  C   UNL     1       2.971   3.427  18.319  0.00  0.00    +0.000 A 
ATOM      7  N   UNL     1       3.526   4.478  19.022  0.00  0.00    +0.000 N 
ATOM      8  C   UNL     1       4.672   4.927  18.372  0.00  0.00    +0.000 A 
ATOM      9  C   UNL     1       5.572   5.960  18.685  0.00  0.00    +0.000 A 
ATOM     10  C   UNL     1       3.030   5.087  20.248  0.00  0.00    +0.000 C 
ATOM     11  C   UNL     1       2.200   4.248  21.220  0.00  0.00    +0.000 C 
ATOM     12  C   UNL     1       2.399   2.753  21.074  0.00  0.00    +0.000 C 
ATOM     13  N   UNL     1       1.624   2.284  19.952  0.00  0.00    +0.000 N 
ATOM     14  C   UNL     1       1.808   2.635  18.644  0.00  0.00    +0.000 C 
ATOM     15  O   UNL     1       1.021   2.210  17.801  0.00  0.00    +0.000 OA
ATOM     16  H   UNL     1       0.814   1.698  20.107  0.00  0.00    +0.000 HD
ENDROOT
BRANCH   1  21
ATOM     17  C   UNL     1       9.179  11.578  18.020  0.00  0.00    +0.000 A 
ATOM     18  C   UNL     1       8.125  10.856  17.512  0.00  0.00    +0.000 A 
ATOM     19  C   UNL     1       8.293   9.548  18.042  0.00  0.00    +0.000 A 
ATOM     20  N   UNL     1       7.462   8.476  17.768  0.00  0.00    +0.000 N 
ATOM     21  C   UNL     1       7.665   7.211  18.286  0.00  0.00    +0.000 C 
ATOM     22  O   UNL     1       8.551   6.880  19.069  0.00  0.00    +0.000 OA
ATOM     23  N   UNL     1       9.373   9.511  18.831  0.00  0.00    +0.000 NA
ATOM     24  O   UNL     1       9.919  10.771  18.821  0.00  0.00    +0.000 OA
ATOM     25  H   UNL     1       6.660   8.667  17.190  0.00  0.00    +0.000 HD
BRANCH  17  27
ATOM     26  C   UNL     1      11.169  13.021  17.668  0.00  0.00    +0.000 C 
ATOM     27  C   UNL     1       9.666  12.969  17.881  0.00  0.00    +0.000 C 
ENDBRANCH  17  27
ENDBRANCH   1  21
TORSDOF 2
ENDMDL
MODEL 5
REMARK VINA RESULT:      -7.9      1.768      2.630
REMARK  Name = 
REMARK  3 active torsions:
REMARK  status: ('A' for Active; 'I' for Inactive)
REMARK    1  A    between atoms: C_1  and  C_2
REMARK    2  A    between atoms: C_2  and  C_3
REMARK    3  A    between atoms: C_7  and  C_9
REMARK                            x       y       z     vdW  Elec       q    Type
REMARK                         _______ _______ _______ _____ _____    ______ ____
ROOT
ATOM      1  C   UNL     1       2.501   6.399  19.271  0.00  0.00    +0.000 A 
ATOM      2  C   UNL     1       1.900   6.021  20.474  0.00  0.00    +0.000 A 
ATOM      3  C   UNL     1       1.115   6.936  21.190  0.00  0.00    +0.000 A 
ATOM      4  C   UNL     1       0.955   8.250  20.708  0.00  0.00    +0.000 A 
ATOM      5  C   UNL     1       0.252   9.383  21.175  0.00  0.00    +0.000 A 
ATOM      6  C   UNL     1       0.518  10.456  20.338  0.00  0.00    +0.000 A 
ATOM      7  N   UNL     1       1.328   9.981  19.326  0.00  0.00    +0.000 N 
ATOM      8  C   UNL     1       1.592   8.630  19.529  0.00  0.00    +0.000 A 
ATOM      9  C   UNL     1       2.351   7.711  18.784  0.00  0.00    +0.000 A 
ATOM     10  C   UNL     1       1.844  10.718  18.181  0.00  0.00    +0.000 C 
ATOM     11  C   UNL     1       2.060  12.228  18.295  0.00  0.00    +0.000 C 
ATOM     12  C   UNL     1       2.201  12.727  19.719  0.00  0.00    +0.000 C 
ATOM     13  N   UNL     1       0.891  12.833  20.312  0.00  0.00    +0.000 N 
ATOM     14  C   UNL     1       0.030  11.799  20.552  0.00  0.00    +0.000 C 
ATOM     15  O   UNL     1      -1.087  12.051  20.997  0.00  0.00    +0.000 OA
ATOM     16  H   UNL     1       0.502  13.744  20.517  0.00  0.00    +0.000 HD
ENDROOT
BRANCH   1  21
ATOM     17  C   UNL     1       6.071   4.709  14.796  0.00  0.00    +0.000 A 
ATOM     18  C   UNL     1       5.392   5.781  15.327  0.00  0.00    +0.000 A 
ATOM     19  C   UNL     1       4.783   5.275  16.506  0.00  0.00    +0.000 A 
ATOM     20  N   UNL     1       3.972   6.013  17.351  0.00  0.00    +0.000 N 
ATOM     21  C   UNL     1       3.379   5.484  18.482  0.00  0.00    +0.000 C 
ATOM     22  O   UNL     1       3.517   4.341  18.908  0.00  0.00    +0.000 OA
ATOM     23  N   UNL     1       5.102   3.986  16.668  0.00  0.00    +0.000 NA
ATOM     24  O   UNL     1       5.905   3.636  15.610  0.00  0.00    +0.000 OA
ATOM     25  H   UNL     1       3.856   6.987  17.124  0.00  0.00    +0.000 HD
BRANCH  17  27
ATOM     26  C   UNL     1       6.216   3.516  12.623  0.00  0.00    +0.000 C 
ATOM     27  C   UNL     1       6.891   4.478  13.586  0.00  0.00    +0.000 C 
ENDBRANCH  17  27
ENDBRANCH   1  21
TORSDOF 2
ENDMDL
MODEL 6
REMARK VINA RESULT:      -7.9      2.262      3.824
REMARK  Name = 
REMARK  3 active torsions:
REMARK  status: ('A' for Active; 'I' for Inactive)
REMARK    1  A    between atoms: C_1  and  C_2
REMARK    2  A    between atoms: C_2  and  C_3
REMARK    3  A    between atoms: C_7  and  C_9
REMARK                            x       y       z     vdW  Elec       q    Type
REMARK                         _______ _______ _______ _____ _____    ______ ____
ROOT
ATOM      1  C   UNL     1       1.786   8.394  19.327  0.00  0.00    +0.000 A 
ATOM      2  C   UNL     1       1.692   7.512  20.406  0.00  0.00    +0.000 A 
ATOM      3  C   UNL     1       0.933   7.854  21.535  0.00  0.00    +0.000 A 
ATOM      4  C   UNL     1       0.286   9.104  21.592  0.00  0.00    +0.000 A 
ATOM      5  C   UNL     1      -0.530   9.738  22.555  0.00  0.00    +0.000 A 
ATOM      6  C   UNL     1      -0.825  11.022  22.122  0.00  0.00    +0.000 A 
ATOM      7  N   UNL     1      -0.250  11.164  20.875  0.00  0.00    +0.000 N 
ATOM      8  C   UNL     1       0.420   9.994  20.529  0.00  0.00    +0.000 A 
ATOM      9  C   UNL     1       1.148   9.647  19.378  0.00  0.00    +0.000 A 
ATOM     10  C   UNL     1      -0.314  12.321  19.993  0.00  0.00    +0.000 C 
ATOM     11  C   UNL     1      -0.495  13.715  20.597  0.00  0.00    +0.000 C 
ATOM     12  C   UNL     1      -0.084  13.818  22.051  0.00  0.00    +0.000 C 
ATOM     13  N   UNL     1      -1.139  13.285  22.877  0.00  0.00    +0.000 N 
ATOM     14  C   UNL     1      -1.576  11.990  22.888  0.00  0.00    +0.000 C 
ATOM     15  O   UNL     1      -2.537  11.696  23.594  0.00  0.00    +0.000 OA
ATOM     16  H   UNL     1      -1.684  13.904  23.463  0.00  0.00    +0.000 HD
ENDROOT
BRANCH   1  21
ATOM     17  C   UNL     1       5.737   5.486  15.929  0.00  0.00    +0.000 A 
ATOM     18  C   UNL     1       5.072   5.449  17.131  0.00  0.00    +0.000 A 
ATOM     19  C   UNL     1       4.235   6.596  17.117  0.00  0.00    +0.000 A 
ATOM     20  N   UNL     1       3.397   6.972  18.154  0.00  0.00    +0.000 N 
ATOM     21  C   UNL     1       2.608   8.106  18.115  0.00  0.00    +0.000 C 
ATOM     22  O   UNL     1       2.507   8.889  17.175  0.00  0.00    +0.000 OA
ATOM     23  N   UNL     1       4.386   7.258  15.964  0.00  0.00    +0.000 NA
ATOM     24  O   UNL     1       5.314   6.566  15.225  0.00  0.00    +0.000 OA
ATOM     25  H   UNL     1       3.355   6.349  18.944  0.00  0.00    +0.000 HD
BRANCH  17  27
ATOM     26  C   UNL     1       6.231   3.961  14.032  0.00  0.00    +0.000 C 
ATOM     27  C   UNL     1       6.771   4.654  15.272  0.00  0.00    +0.000 C 
ENDBRANCH  17  27
ENDBRANCH   1  21
TORSDOF 2
ENDMDL
MODEL 7
REMARK VINA RESULT:      -7.7      3.966      8.338
REMARK  Name = 
REMARK  3 active torsions:
REMARK  status: ('A' for Active; 'I' for Inactive)
REMARK    1  A    between atoms: C_1  and  C_2
REMARK    2  A    between atoms: C_2  and  C_3
REMARK    3  A    between atoms: C_7  and  C_9
REMARK                            x       y       z     vdW  Elec       q    Type
REMARK                         _______ _______ _______ _____ _____    ______ ____
ROOT
ATOM      1  C   UNL     1       2.419   8.244  17.987  0.00  0.00    +0.000 A 
ATOM      2  C   UNL     1       3.585   8.129  17.226  0.00  0.00    +0.000 A 
ATOM      3  C   UNL     1       4.213   6.883  17.077  0.00  0.00    +0.000 A 
ATOM      4  C   UNL     1       3.681   5.749  17.722  0.00  0.00    +0.000 A 
ATOM      5  C   UNL     1       4.060   4.390  17.776  0.00  0.00    +0.000 A 
ATOM      6  C   UNL     1       3.214   3.719  18.647  0.00  0.00    +0.000 A 
ATOM      7  N   UNL     1       2.280   4.639  19.081  0.00  0.00    +0.000 N 
ATOM      8  C   UNL     1       2.542   5.881  18.512  0.00  0.00    +0.000 A 
ATOM      9  C   UNL     1       1.884   7.117  18.639  0.00  0.00    +0.000 A 
ATOM     10  C   UNL     1       1.155   4.407  19.977  0.00  0.00    +0.000 C 
ATOM     11  C   UNL     1       1.240   3.286  21.014  0.00  0.00    +0.000 C 
ATOM     12  C   UNL     1       2.655   2.863  21.353  0.00  0.00    +0.000 C 
ATOM     13  N   UNL     1       3.145   1.989  20.316  0.00  0.00    +0.000 N 
ATOM     14  C   UNL     1       3.350   2.328  19.008  0.00  0.00    +0.000 C 
ATOM     15  O   UNL     1       3.703   1.454  18.220  0.00  0.00    +0.000 OA
ATOM     16  H   UNL     1       3.294   1.007  20.512  0.00  0.00    +0.000 HD
ENDROOT
BRANCH   1  21
ATOM     17  C   UNL     1       1.871  14.165  18.492  0.00  0.00    +0.000 A 
ATOM     18  C   UNL     1       2.749  13.158  18.169  0.00  0.00    +0.000 A 
ATOM     19  C   UNL     1       1.989  11.963  18.286  0.00  0.00    +0.000 A 
ATOM     20  N   UNL     1       2.489  10.689  18.074  0.00  0.00    +0.000 N 
ATOM     21  C   UNL     1       1.726   9.546  18.215  0.00  0.00    +0.000 C 
ATOM     22  O   UNL     1       0.531   9.499  18.493  0.00  0.00    +0.000 OA
ATOM     23  N   UNL     1       0.732  12.255  18.639  0.00  0.00    +0.000 NA
ATOM     24  O   UNL     1       0.658  13.620  18.761  0.00  0.00    +0.000 OA
ATOM     25  H   UNL     1       3.446  10.629  17.769  0.00  0.00    +0.000 HD
BRANCH  17  27
ATOM     26  C   UNL     1       3.044  16.215  17.725  0.00  0.00    +0.000 C 
ATOM     27  C   UNL     1       1.957  15.638  18.616  0.00  0.00    +0.000 C 
ENDBRANCH  17  27
ENDBRANCH   1  21
TORSDOF 2
ENDMDL
MODEL 8
REMARK VINA RESULT:      -7.7      4.072      8.419
REMARK  Name = 
REMARK  3 active torsions:
REMARK  status: ('A' for Active; 'I' for Inactive)
REMARK    1  A    between atoms: C_1  and  C_2
REMARK    2  A    between atoms: C_2  and  C_3
REMARK    3  A    between atoms: C_7  and  C_9
REMARK                            x       y       z     vdW  Elec       q    Type
REMARK                         _______ _______ _______ _____ _____    ______ ____
ROOT
ATOM      1  C   UNL     1       2.287   8.129  17.962  0.00  0.00    +0.000 A 
ATOM      2  C   UNL     1       3.536   8.099  17.337  0.00  0.00    +0.000 A 
ATOM      3  C   UNL     1       4.281   6.911  17.303  0.00  0.00    +0.000 A 
ATOM      4  C   UNL     1       3.780   5.751  17.927  0.00  0.00    +0.000 A 
ATOM      5  C   UNL     1       4.266   4.433  18.072  0.00  0.00    +0.000 A 
ATOM      6  C   UNL     1       3.389   3.713  18.868  0.00  0.00    +0.000 A 
ATOM      7  N   UNL     1       2.336   4.556  19.164  0.00  0.00    +0.000 N 
ATOM      8  C   UNL     1       2.553   5.802  18.583  0.00  0.00    +0.000 A 
ATOM      9  C   UNL     1       1.781   6.977  18.591  0.00  0.00    +0.000 A 
ATOM     10  C   UNL     1       1.142   4.249  19.939  0.00  0.00    +0.000 C 
ATOM     11  C   UNL     1       1.206   3.169  21.020  0.00  0.00    +0.000 C 
ATOM     12  C   UNL     1       2.605   2.883  21.526  0.00  0.00    +0.000 C 
ATOM     13  N   UNL     1       3.282   2.029  20.582  0.00  0.00    +0.000 N 
ATOM     14  C   UNL     1       3.602   2.349  19.293  0.00  0.00    +0.000 C 
ATOM     15  O   UNL     1       4.115   1.490  18.580  0.00  0.00    +0.000 OA
ATOM     16  H   UNL     1       3.491   1.069  20.828  0.00  0.00    +0.000 HD
ENDROOT
BRANCH   1  21
ATOM     17  C   UNL     1      -2.683  11.426  18.183  0.00  0.00    +0.000 A 
ATOM     18  C   UNL     1      -2.211  10.135  18.145  0.00  0.00    +0.000 A 
ATOM     19  C   UNL     1      -0.797  10.266  18.143  0.00  0.00    +0.000 A 
ATOM     20  N   UNL     1       0.092   9.206  18.084  0.00  0.00    +0.000 N 
ATOM     21  C   UNL     1       1.464   9.370  18.065  0.00  0.00    +0.000 C 
ATOM     22  O   UNL     1       2.069  10.435  18.140  0.00  0.00    +0.000 OA
ATOM     23  N   UNL     1      -0.459  11.559  18.196  0.00  0.00    +0.000 NA
ATOM     24  O   UNL     1      -1.628  12.278  18.226  0.00  0.00    +0.000 OA
ATOM     25  H   UNL     1      -0.311   8.283  18.092  0.00  0.00    +0.000 HD
BRANCH  17  27
ATOM     26  C   UNL     1      -4.950  11.398  17.169  0.00  0.00    +0.000 C 
ATOM     27  C   UNL     1      -4.022  12.058  18.175  0.00  0.00    +0.000 C 
ENDBRANCH  17  27
ENDBRANCH   1  21
TORSDOF 2
ENDMDL
MODEL 9
REMARK VINA RESULT:      -7.6      4.204      6.192
REMARK  Name = 
REMARK  3 active torsions:
REMARK  status: ('A' for Active; 'I' for Inactive)
REMARK    1  A    between atoms: C_1  and  C_2
REMARK    2  A    between atoms: C_2  and  C_3
REMARK    3  A    between atoms: C_7  and  C_9
REMARK                            x       y       z     vdW  Elec       q    Type
REMARK                         _______ _______ _______ _____ _____    ______ ____
ROOT
ATOM      1  C   UNL     1       0.736   9.045  21.048  0.00  0.00    +0.000 A 
ATOM      2  C   UNL     1       0.425   8.841  22.395  0.00  0.00    +0.000 A 
ATOM      3  C   UNL     1      -0.276   9.819  23.115  0.00  0.00    +0.000 A 
ATOM      4  C   UNL     1      -0.643  11.025  22.485  0.00  0.00    +0.000 A 
ATOM      5  C   UNL     1      -1.333  12.180  22.914  0.00  0.00    +0.000 A 
ATOM      6  C   UNL     1      -1.335  13.113  21.888  0.00  0.00    +0.000 A 
ATOM      7  N   UNL     1      -0.708  12.520  20.810  0.00  0.00    +0.000 N 
ATOM      8  C   UNL     1      -0.293  11.237  21.154  0.00  0.00    +0.000 A 
ATOM      9  C   UNL     1       0.378  10.249  20.412  0.00  0.00    +0.000 A 
ATOM     10  C   UNL     1      -0.499  13.083  19.483  0.00  0.00    +0.000 C 
ATOM     11  C   UNL     1      -0.397  14.600  19.320  0.00  0.00    +0.000 C 
ATOM     12  C   UNL     1      -0.015  15.335  20.589  0.00  0.00    +0.000 C 
ATOM     13  N   UNL     1      -1.182  15.468  21.424  0.00  0.00    +0.000 N 
ATOM     14  C   UNL     1      -1.885  14.444  21.995  0.00  0.00    +0.000 C 
ATOM     15  O   UNL     1      -2.906  14.706  22.625  0.00  0.00    +0.000 OA
ATOM     16  H   UNL     1      -1.600  16.379  21.568  0.00  0.00    +0.000 HD
ENDROOT
BRANCH   1  21
ATOM     17  C   UNL     1       3.358   3.842  19.754  0.00  0.00    +0.000 A 
ATOM     18  C   UNL     1       2.567   4.484  20.678  0.00  0.00    +0.000 A 
ATOM     19  C   UNL     1       2.380   5.790  20.149  0.00  0.00    +0.000 A 
ATOM     20  N   UNL     1       1.659   6.795  20.772  0.00  0.00    +0.000 N 
ATOM     21  C   UNL     1       1.512   8.061  20.238  0.00  0.00    +0.000 C 
ATOM     22  O   UNL     1       1.944   8.448  19.156  0.00  0.00    +0.000 OA
ATOM     23  N   UNL     1       3.009   5.901  18.974  0.00  0.00    +0.000 NA
ATOM     24  O   UNL     1       3.611   4.691  18.727  0.00  0.00    +0.000 OA
ATOM     25  H   UNL     1       1.203   6.550  21.635  0.00  0.00    +0.000 HD
BRANCH  17  27
ATOM     26  C   UNL     1       3.428   1.724  18.460  0.00  0.00    +0.000 C 
ATOM     27  C   UNL     1       3.972   2.500  19.647  0.00  0.00    +0.000 C 
ENDBRANCH  17  27
ENDBRANCH   1  21
TORSDOF 2
ENDMDL
