MODEL 1
REMARK VINA RESULT:      -6.4      0.000      0.000
REMARK  Name = 
REMARK  5 active torsions:
REMARK  status: ('A' for Active; 'I' for Inactive)
REMARK    1  A    between atoms: C_1  and  O_2
REMARK    2  A    between atoms: O_2  and  C_3
REMARK    3  A    between atoms: C_7  and  N_8
REMARK    4  A    between atoms: C_9  and  C_11
REMARK    5  A    between atoms: N_14  and  C_15
REMARK                            x       y       z     vdW  Elec       q    Type
REMARK                         _______ _______ _______ _____ _____    ______ ____
ROOT
ATOM      1  N   UNL     1       3.835   6.476  18.534  0.00  0.00    +0.000 N 
ATOM      2  C   UNL     1       3.419   7.515  17.722  0.00  0.00    +0.000 C 
ATOM      3  O   UNL     1       3.876   7.715  16.601  0.00  0.00    +0.000 OA
ATOM      4  H   UNL     1       3.301   6.338  19.390  0.00  0.00    +0.000 HD
ENDROOT
BRANCH   1   9
ATOM      5  C   UNL     1       4.195   4.325  17.356  0.00  0.00    +0.000 C 
ATOM      6  C   UNL     1       4.029   3.311  18.490  0.00  0.00    +0.000 C 
ATOM      7  N   UNL     1       5.233   3.447  19.328  0.00  0.00    +0.000 NA
ATOM      8  C   UNL     1       5.615   4.869  19.235  0.00  0.00    +0.000 C 
ATOM      9  C   UNL     1       4.829   5.515  18.085  0.00  0.00    +0.000 C 
ATOM     10  H   UNL     1       5.968   2.907  18.866  0.00  0.00    +0.000 HD
BRANCH   5  12
ATOM     11  C   UNL     1       5.508   4.736  15.409  0.00  0.00    +0.000 C 
ATOM     12  O   UNL     1       5.078   3.767  16.364  0.00  0.00    +0.000 OA
ENDBRANCH   5  12
ENDBRANCH   1   9
BRANCH   2  13
ATOM     13  C   UNL     1       2.369   8.353  18.321  0.00  0.00    +0.000 A 
ATOM     14  C   UNL     1       1.780   9.510  17.748  0.00  0.00    +0.000 A 
ATOM     15  C   UNL     1       0.869   9.954  18.677  0.00  0.00    +0.000 A 
ATOM     16  N   UNL     1       0.953   9.089  19.730  0.00  0.00    +0.000 N 
ATOM     17  N   UNL     1       1.845   8.093  19.535  0.00  0.00    +0.000 NA
BRANCH  16  18
ATOM     18  C   UNL     1       0.204   9.175  20.966  0.00  0.00    +0.000 C 
ATOM     19  C   UNL     1       1.043   8.926  22.218  0.00  0.00    +0.000 C 
ATOM     20  C   UNL     1       0.178   9.474  23.345  0.00  0.00    +0.000 C 
ATOM     21  C   UNL     1      -0.654  10.599  22.731  0.00  0.00    +0.000 C 
ATOM     22  C   UNL     1      -0.411  10.551  21.224  0.00  0.00    +0.000 C 
ENDBRANCH  16  18
ENDBRANCH   2  13
TORSDOF 4
ENDMDL
MODEL 2
REMARK VINA RESULT:      -6.4      1.751      2.544
REMARK  Name = 
REMARK  5 active torsions:
REMARK  status: ('A' for Active; 'I' for Inactive)
REMARK    1  A    between atoms: C_1  and  O_2
REMARK    2  A    between atoms: O_2  and  C_3
REMARK    3  A    between atoms: C_7  and  N_8
REMARK    4  A    between atoms: C_9  and  C_11
REMARK    5  A    between atoms: N_14  and  C_15
REMARK                            x       y       z     vdW  Elec       q    Type
REMARK                         _______ _______ _______ _____ _____    ______ ____
ROOT
ATOM      1  N   UNL     1       3.277   5.784  18.129  0.00  0.00    +0.000 N 
ATOM      2  C   UNL     1       2.585   6.300  19.209  0.00  0.00    +0.000 C 
ATOM      3  O   UNL     1       2.379   5.666  20.239  0.00  0.00    +0.000 OA
ATOM      4  H   UNL     1       3.489   6.441  17.380  0.00  0.00    +0.000 HD
ENDROOT
BRANCH   1   9
ATOM      5  C   UNL     1       5.082   4.373  19.076  0.00  0.00    +0.000 C 
ATOM      6  C   UNL     1       6.224   4.613  18.088  0.00  0.00    +0.000 C 
ATOM      7  N   UNL     1       5.844   3.900  16.855  0.00  0.00    +0.000 NA
ATOM      8  C   UNL     1       4.371   3.973  16.800  0.00  0.00    +0.000 C 
ATOM      9  C   UNL     1       3.852   4.449  18.164  0.00  0.00    +0.000 C 
ATOM     10  H   UNL     1       6.092   2.919  17.003  0.00  0.00    +0.000 HD
BRANCH   5  12
ATOM     11  C   UNL     1       3.999   2.486  20.053  0.00  0.00    +0.000 C 
ATOM     12  O   UNL     1       5.242   3.065  19.658  0.00  0.00    +0.000 OA
ENDBRANCH   5  12
ENDBRANCH   1   9
BRANCH   2  13
ATOM     13  C   UNL     1       2.124   7.683  19.013  0.00  0.00    +0.000 A 
ATOM     14  C   UNL     1       2.255   8.460  17.833  0.00  0.00    +0.000 A 
ATOM     15  C   UNL     1       1.695   9.678  18.133  0.00  0.00    +0.000 A 
ATOM     16  N   UNL     1       1.278   9.591  19.431  0.00  0.00    +0.000 N 
ATOM     17  N   UNL     1       1.510   8.382  19.988  0.00  0.00    +0.000 NA
BRANCH  16  18
ATOM     18  C   UNL     1       0.656  10.649  20.199  0.00  0.00    +0.000 C 
ATOM     19  C   UNL     1      -0.740  11.033  19.711  0.00  0.00    +0.000 C 
ATOM     20  C   UNL     1      -1.328  11.812  20.879  0.00  0.00    +0.000 C 
ATOM     21  C   UNL     1      -0.672  11.246  22.138  0.00  0.00    +0.000 C 
ATOM     22  C   UNL     1       0.429  10.296  21.669  0.00  0.00    +0.000 C 
ENDBRANCH  16  18
ENDBRANCH   2  13
TORSDOF 4
ENDMDL
MODEL 3
REMARK VINA RESULT:      -6.4      1.843      2.300
REMARK  Name = 
REMARK  5 active torsions:
REMARK  status: ('A' for Active; 'I' for Inactive)
REMARK    1  A    between atoms: C_1  and  O_2
REMARK    2  A    between atoms: O_2  and  C_3
REMARK    3  A    between atoms: C_7  and  N_8
REMARK    4  A    between atoms: C_9  and  C_11
REMARK    5  A    between atoms: N_14  and  C_15
REMARK                            x       y       z     vdW  Elec       q    Type
REMARK                         _______ _______ _______ _____ _____    ______ ____
ROOT
ATOM      1  N   UNL     1       2.201   5.719  19.553  0.00  0.00    +0.000 N 
ATOM      2  C   UNL     1       2.642   6.748  18.741  0.00  0.00    +0.000 C 
ATOM      3  O   UNL     1       3.494   6.598  17.870  0.00  0.00    +0.000 OA
ATOM      4  H   UNL     1       1.408   5.935  20.155  0.00  0.00    +0.000 HD
ENDROOT
BRANCH   1   9
ATOM      5  C   UNL     1       1.880   3.564  18.370  0.00  0.00    +0.000 C 
ATOM      6  C   UNL     1       0.854   2.862  19.262  0.00  0.00    +0.000 C 
ATOM      7  N   UNL     1       1.582   2.477  20.483  0.00  0.00    +0.000 NA
ATOM      8  C   UNL     1       2.604   3.524  20.676  0.00  0.00    +0.000 C 
ATOM      9  C   UNL     1       2.697   4.362  19.393  0.00  0.00    +0.000 C 
ATOM     10  H   UNL     1       2.078   1.610  20.261  0.00  0.00    +0.000 HD
BRANCH   5  12
ATOM     11  C   UNL     1       3.985   3.031  17.386  0.00  0.00    +0.000 C 
ATOM     12  O   UNL     1       2.676   2.564  17.706  0.00  0.00    +0.000 OA
ENDBRANCH   5  12
ENDBRANCH   1   9
BRANCH   2  13
ATOM     13  C   UNL     1       1.990   8.038  19.011  0.00  0.00    +0.000 A 
ATOM     14  C   UNL     1       1.725   9.067  18.070  0.00  0.00    +0.000 A 
ATOM     15  C   UNL     1       1.122  10.073  18.787  0.00  0.00    +0.000 A 
ATOM     16  N   UNL     1       1.062   9.631  20.078  0.00  0.00    +0.000 N 
ATOM     17  N   UNL     1       1.566   8.388  20.242  0.00  0.00    +0.000 NA
BRANCH  16  18
ATOM     18  C   UNL     1       0.538  10.369  21.207  0.00  0.00    +0.000 C 
ATOM     19  C   UNL     1      -0.723  11.172  20.893  0.00  0.00    +0.000 C 
ATOM     20  C   UNL     1      -1.298  11.489  22.267  0.00  0.00    +0.000 C 
ATOM     21  C   UNL     1      -0.871  10.341  23.180  0.00  0.00    +0.000 C 
ATOM     22  C   UNL     1       0.109   9.486  22.380  0.00  0.00    +0.000 C 
ENDBRANCH  16  18
ENDBRANCH   2  13
TORSDOF 4
ENDMDL
MODEL 4
REMARK VINA RESULT:      -6.3      1.623      2.360
REMARK  Name = 
REMARK  5 active torsions:
REMARK  status: ('A' for Active; 'I' for Inactive)
REMARK    1  A    between atoms: C_1  and  O_2
REMARK    2  A    between atoms: O_2  and  C_3
REMARK    3  A    between atoms: C_7  and  N_8
REMARK    4  A    between atoms: C_9  and  C_11
REMARK    5  A    between atoms: N_14  and  C_15
REMARK                            x       y       z     vdW  Elec       q    Type
REMARK                         _______ _______ _______ _____ _____    ______ ____
ROOT
ATOM      1  N   UNL     1       3.764   6.586  18.248  0.00  0.00    +0.000 N 
ATOM      2  C   UNL     1       2.588   6.579  18.975  0.00  0.00    +0.000 C 
ATOM      3  O   UNL     1       2.086   5.556  19.431  0.00  0.00    +0.000 OA
ATOM      4  H   UNL     1       4.146   7.504  18.026  0.00  0.00    +0.000 HD
ENDROOT
BRANCH   1   9
ATOM      5  C   UNL     1       5.475   5.042  19.164  0.00  0.00    +0.000 C 
ATOM      6  C   UNL     1       6.775   5.690  18.685  0.00  0.00    +0.000 C 
ATOM      7  N   UNL     1       6.834   5.443  17.234  0.00  0.00    +0.000 NA
ATOM      8  C   UNL     1       5.430   5.441  16.780  0.00  0.00    +0.000 C 
ATOM      9  C   UNL     1       4.517   5.365  18.011  0.00  0.00    +0.000 C 
ATOM     10  H   UNL     1       7.190   4.491  17.118  0.00  0.00    +0.000 HD
BRANCH   5  12
ATOM     11  C   UNL     1       4.474   2.906  19.511  0.00  0.00    +0.000 C 
ATOM     12  O   UNL     1       5.689   3.625  19.307  0.00  0.00    +0.000 OA
ENDBRANCH   5  12
ENDBRANCH   1   9
BRANCH   2  13
ATOM     13  C   UNL     1       1.996   7.913  19.160  0.00  0.00    +0.000 A 
ATOM     14  C   UNL     1       1.854   8.921  18.171  0.00  0.00    +0.000 A 
ATOM     15  C   UNL     1       1.266   9.983  18.813  0.00  0.00    +0.000 A 
ATOM     16  N   UNL     1       1.096   9.592  20.111  0.00  0.00    +0.000 N 
ATOM     17  N   UNL     1       1.515   8.329  20.348  0.00  0.00    +0.000 NA
BRANCH  16  18
ATOM     18  C   UNL     1       0.544  10.397  21.179  0.00  0.00    +0.000 C 
ATOM     19  C   UNL     1      -0.696  11.195  20.778  0.00  0.00    +0.000 C 
ATOM     20  C   UNL     1      -1.313  11.595  22.111  0.00  0.00    +0.000 C 
ATOM     21  C   UNL     1      -0.931  10.495  23.101  0.00  0.00    +0.000 C 
ATOM     22  C   UNL     1       0.065   9.586  22.384  0.00  0.00    +0.000 C 
ENDBRANCH  16  18
ENDBRANCH   2  13
TORSDOF 4
ENDMDL
MODEL 5
REMARK VINA RESULT:      -6.3      4.562      6.488
REMARK  Name = 
REMARK  5 active torsions:
REMARK  status: ('A' for Active; 'I' for Inactive)
REMARK    1  A    between atoms: C_1  and  O_2
REMARK    2  A    between atoms: O_2  and  C_3
REMARK    3  A    between atoms: C_7  and  N_8
REMARK    4  A    between atoms: C_9  and  C_11
REMARK    5  A    between atoms: N_14  and  C_15
REMARK                            x       y       z     vdW  Elec       q    Type
REMARK                         _______ _______ _______ _____ _____    ______ ____
ROOT
ATOM      1  N   UNL     1       5.342   3.914  14.221  0.00  0.00    +0.000 N 
ATOM      2  C   UNL     1       5.726   4.863  15.150  0.00  0.00    +0.000 C 
ATOM      3  O   UNL     1       6.315   5.897  14.849  0.00  0.00    +0.000 OA
ATOM      4  H   UNL     1       4.756   3.158  14.572  0.00  0.00    +0.000 HD
ENDROOT
BRANCH   1   9
ATOM      5  C   UNL     1       4.664   3.227  11.937  0.00  0.00    +0.000 C 
ATOM      6  C   UNL     1       5.536   1.992  11.705  0.00  0.00    +0.000 C 
ATOM      7  N   UNL     1       6.906   2.500  11.516  0.00  0.00    +0.000 NA
ATOM      8  C   UNL     1       6.995   3.708  12.359  0.00  0.00    +0.000 C 
ATOM      9  C   UNL     1       5.579   4.104  12.799  0.00  0.00    +0.000 C 
ATOM     10  H   UNL     1       6.967   2.806  10.542  0.00  0.00    +0.000 HD
BRANCH   5  12
ATOM     11  C   UNL     1       3.088   3.477  10.166  0.00  0.00    +0.000 C 
ATOM     12  O   UNL     1       4.375   3.836  10.664  0.00  0.00    +0.000 OA
ENDBRANCH   5  12
ENDBRANCH   1   9
BRANCH   2  13
ATOM     13  C   UNL     1       5.355   4.525  16.532  0.00  0.00    +0.000 A 
ATOM     14  C   UNL     1       6.167   4.675  17.687  0.00  0.00    +0.000 A 
ATOM     15  C   UNL     1       5.402   4.216  18.733  0.00  0.00    +0.000 A 
ATOM     16  N   UNL     1       4.217   3.815  18.186  0.00  0.00    +0.000 N 
ATOM     17  N   UNL     1       4.152   4.007  16.850  0.00  0.00    +0.000 NA
BRANCH  16  18
ATOM     18  C   UNL     1       3.105   3.224  18.899  0.00  0.00    +0.000 C 
ATOM     19  C   UNL     1       2.189   4.243  19.575  0.00  0.00    +0.000 C 
ATOM     20  C   UNL     1       0.925   3.448  19.872  0.00  0.00    +0.000 C 
ATOM     21  C   UNL     1       0.837   2.372  18.790  0.00  0.00    +0.000 C 
ATOM     22  C   UNL     1       2.149   2.429  18.010  0.00  0.00    +0.000 C 
ENDBRANCH  16  18
ENDBRANCH   2  13
TORSDOF 4
ENDMDL
MODEL 6
REMARK VINA RESULT:      -6.2      3.256      7.439
REMARK  Name = 
REMARK  5 active torsions:
REMARK  status: ('A' for Active; 'I' for Inactive)
REMARK    1  A    between atoms: C_1  and  O_2
REMARK    2  A    between atoms: O_2  and  C_3
REMARK    3  A    between atoms: C_7  and  N_8
REMARK    4  A    between atoms: C_9  and  C_11
REMARK    5  A    between atoms: N_14  and  C_15
REMARK                            x       y       z     vdW  Elec       q    Type
REMARK                         _______ _______ _______ _____ _____    ______ ____
ROOT
ATOM      1  N   UNL     1       0.738  10.349  19.136  0.00  0.00    +0.000 N 
ATOM      2  C   UNL     1       1.054   9.408  20.099  0.00  0.00    +0.000 C 
ATOM      3  O   UNL     1       0.795   9.553  21.290  0.00  0.00    +0.000 OA
ATOM      4  H   UNL     1       0.893  10.068  18.169  0.00  0.00    +0.000 HD
ENDROOT
BRANCH   1   9
ATOM      5  C   UNL     1      -1.491  11.413  19.347  0.00  0.00    +0.000 C 
ATOM      6  C   UNL     1      -1.743  11.909  17.922  0.00  0.00    +0.000 C 
ATOM      7  N   UNL     1      -0.834  13.053  17.730  0.00  0.00    +0.000 NA
ATOM      8  C   UNL     1       0.358  12.746  18.543  0.00  0.00    +0.000 C 
ATOM      9  C   UNL     1       0.028  11.572  19.475  0.00  0.00    +0.000 C 
ATOM     10  H   UNL     1      -1.294  13.859  18.161  0.00  0.00    +0.000 HD
BRANCH   5  12
ATOM     11  C   UNL     1      -1.728  12.143  21.604  0.00  0.00    +0.000 C 
ATOM     12  O   UNL     1      -2.202  12.266  20.265  0.00  0.00    +0.000 OA
ENDBRANCH   5  12
ENDBRANCH   1   9
BRANCH   2  13
ATOM     13  C   UNL     1       1.721   8.212  19.563  0.00  0.00    +0.000 A 
ATOM     14  C   UNL     1       2.310   8.074  18.279  0.00  0.00    +0.000 A 
ATOM     15  C   UNL     1       2.790   6.787  18.233  0.00  0.00    +0.000 A 
ATOM     16  N   UNL     1       2.472   6.223  19.436  0.00  0.00    +0.000 N 
ATOM     17  N   UNL     1       1.837   7.072  20.274  0.00  0.00    +0.000 NA
BRANCH  16  18
ATOM     18  C   UNL     1       2.744   4.860  19.837  0.00  0.00    +0.000 C 
ATOM     19  C   UNL     1       2.180   4.492  21.208  0.00  0.00    +0.000 C 
ATOM     20  C   UNL     1       2.213   2.969  21.213  0.00  0.00    +0.000 C 
ATOM     21  C   UNL     1       2.050   2.537  19.756  0.00  0.00    +0.000 C 
ATOM     22  C   UNL     1       2.131   3.808  18.912  0.00  0.00    +0.000 C 
ENDBRANCH  16  18
ENDBRANCH   2  13
TORSDOF 4
ENDMDL
MODEL 7
REMARK VINA RESULT:      -6.2      2.996      7.745
REMARK  Name = 
REMARK  5 active torsions:
REMARK  status: ('A' for Active; 'I' for Inactive)
REMARK    1  A    between atoms: C_1  and  O_2
REMARK    2  A    between atoms: O_2  and  C_3
REMARK    3  A    between atoms: C_7  and  N_8
REMARK    4  A    between atoms: C_9  and  C_11
REMARK    5  A    between atoms: N_14  and  C_15
REMARK                            x       y       z     vdW  Elec       q    Type
REMARK                         _______ _______ _______ _____ _____    ______ ____
ROOT
ATOM      1  N   UNL     1       3.206   4.984  18.257  0.00  0.00    +0.000 N 
ATOM      2  C   UNL     1       3.837   6.076  17.694  0.00  0.00    +0.000 C 
ATOM      3  O   UNL     1       3.414   7.224  17.797  0.00  0.00    +0.000 OA
ATOM      4  H   UNL     1       3.712   4.101  18.207  0.00  0.00    +0.000 HD
ENDROOT
BRANCH   1   9
ATOM      5  C   UNL     1       2.319   5.454  20.524  0.00  0.00    +0.000 C 
ATOM      6  C   UNL     1       2.318   4.062  21.160  0.00  0.00    +0.000 C 
ATOM      7  N   UNL     1       1.220   3.326  20.509  0.00  0.00    +0.000 NA
ATOM      8  C   UNL     1       1.156   3.855  19.133  0.00  0.00    +0.000 C 
ATOM      9  C   UNL     1       2.002   5.134  19.059  0.00  0.00    +0.000 C 
ATOM     10  H   UNL     1       0.361   3.614  20.983  0.00  0.00    +0.000 HD
BRANCH   5  12
ATOM     11  C   UNL     1       1.280   7.594  20.681  0.00  0.00    +0.000 C 
ATOM     12  O   UNL     1       1.283   6.244  21.140  0.00  0.00    +0.000 OA
ENDBRANCH   5  12
ENDBRANCH   1   9
BRANCH   2  13
ATOM     13  C   UNL     1       5.070   5.739  16.965  0.00  0.00    +0.000 A 
ATOM     14  C   UNL     1       6.389   6.144  17.298  0.00  0.00    +0.000 A 
ATOM     15  C   UNL     1       7.194   5.601  16.326  0.00  0.00    +0.000 A 
ATOM     16  N   UNL     1       6.361   4.930  15.477  0.00  0.00    +0.000 N 
ATOM     17  N   UNL     1       5.063   4.981  15.850  0.00  0.00    +0.000 NA
BRANCH  16  18
ATOM     18  C   UNL     1       6.754   4.226  14.275  0.00  0.00    +0.000 C 
ATOM     19  C   UNL     1       5.583   3.653  13.480  0.00  0.00    +0.000 C 
ATOM     20  C   UNL     1       6.187   3.359  12.113  0.00  0.00    +0.000 C 
ATOM     21  C   UNL     1       7.313   4.373  11.920  0.00  0.00    +0.000 C 
ATOM     22  C   UNL     1       7.478   5.102  13.252  0.00  0.00    +0.000 C 
ENDBRANCH  16  18
ENDBRANCH   2  13
TORSDOF 4
ENDMDL
MODEL 8
REMARK VINA RESULT:      -6.2      1.730      2.400
REMARK  Name = 
REMARK  5 active torsions:
REMARK  status: ('A' for Active; 'I' for Inactive)
REMARK    1  A    between atoms: C_1  and  O_2
REMARK    2  A    between atoms: O_2  and  C_3
REMARK    3  A    between atoms: C_7  and  N_8
REMARK    4  A    between atoms: C_9  and  C_11
REMARK    5  A    between atoms: N_14  and  C_15
REMARK                            x       y       z     vdW  Elec       q    Type
REMARK                         _______ _______ _______ _____ _____    ______ ____
ROOT
ATOM      1  N   UNL     1       4.179   6.298  17.627  0.00  0.00    +0.000 N 
ATOM      2  C   UNL     1       3.271   6.216  18.666  0.00  0.00    +0.000 C 
ATOM      3  O   UNL     1       3.146   5.218  19.371  0.00  0.00    +0.000 OA
ATOM      4  H   UNL     1       4.276   7.215  17.192  0.00  0.00    +0.000 HD
ENDROOT
BRANCH   1   9
ATOM      5  C   UNL     1       6.312   5.674  16.529  0.00  0.00    +0.000 C 
ATOM      6  C   UNL     1       5.865   5.422  15.088  0.00  0.00    +0.000 C 
ATOM      7  N   UNL     1       5.112   4.155  15.118  0.00  0.00    +0.000 NA
ATOM      8  C   UNL     1       4.464   4.117  16.443  0.00  0.00    +0.000 C 
ATOM      9  C   UNL     1       5.090   5.205  17.327  0.00  0.00    +0.000 C 
ATOM     10  H   UNL     1       5.809   3.407  15.101  0.00  0.00    +0.000 HD
BRANCH   5  12
ATOM     11  C   UNL     1       7.756   4.765  18.194  0.00  0.00    +0.000 C 
ATOM     12  O   UNL     1       7.475   4.867  16.800  0.00  0.00    +0.000 OA
ENDBRANCH   5  12
ENDBRANCH   1   9
BRANCH   2  13
ATOM     13  C   UNL     1       2.473   7.436  18.856  0.00  0.00    +0.000 A 
ATOM     14  C   UNL     1       2.001   8.306  17.838  0.00  0.00    +0.000 A 
ATOM     15  C   UNL     1       1.323   9.305  18.497  0.00  0.00    +0.000 A 
ATOM     16  N   UNL     1       1.422   9.013  19.828  0.00  0.00    +0.000 N 
ATOM     17  N   UNL     1       2.101   7.871  20.076  0.00  0.00    +0.000 NA
BRANCH  16  18
ATOM     18  C   UNL     1       0.890   9.806  20.915  0.00  0.00    +0.000 C 
ATOM     19  C   UNL     1      -0.458  10.455  20.609  0.00  0.00    +0.000 C 
ATOM     20  C   UNL     1      -0.987  10.850  21.981  0.00  0.00    +0.000 C 
ATOM     21  C   UNL     1      -0.402   9.841  22.967  0.00  0.00    +0.000 C 
ATOM     22  C   UNL     1       0.613   9.005  22.188  0.00  0.00    +0.000 C 
ENDBRANCH  16  18
ENDBRANCH   2  13
TORSDOF 4
ENDMDL
MODEL 9
REMARK VINA RESULT:      -6.2      2.717      6.811
REMARK  Name = 
REMARK  5 active torsions:
REMARK  status: ('A' for Active; 'I' for Inactive)
REMARK    1  A    between atoms: C_1  and  O_2
REMARK    2  A    between atoms: O_2  and  C_3
REMARK    3  A    between atoms: C_7  and  N_8
REMARK    4  A    between atoms: C_9  and  C_11
REMARK    5  A    between atoms: N_14  and  C_15
REMARK                            x       y       z     vdW  Elec       q    Type
REMARK                         _______ _______ _______ _____ _____    ______ ____
ROOT
ATOM      1  N   UNL     1       1.370   9.443  19.411  0.00  0.00    +0.000 N 
ATOM      2  C   UNL     1       2.060   9.106  18.261  0.00  0.00    +0.000 C 
ATOM      3  O   UNL     1       2.230   9.885  17.328  0.00  0.00    +0.000 OA
ATOM      4  H   UNL     1       1.397   8.757  20.164  0.00  0.00    +0.000 HD
ENDROOT
BRANCH   1   9
ATOM      5  C   UNL     1       0.833  11.192  21.084  0.00  0.00    +0.000 C 
ATOM      6  C   UNL     1      -0.572  10.784  21.530  0.00  0.00    +0.000 C 
ATOM      7  N   UNL     1      -1.460  11.108  20.400  0.00  0.00    +0.000 NA
ATOM      8  C   UNL     1      -0.640  10.909  19.189  0.00  0.00    +0.000 C 
ATOM      9  C   UNL     1       0.831  10.779  19.608  0.00  0.00    +0.000 C 
ATOM     10  H   UNL     1      -1.659  12.109  20.468  0.00  0.00    +0.000 HD
BRANCH   5  12
ATOM     11  C   UNL     1       2.035  13.154  20.458  0.00  0.00    +0.000 C 
ATOM     12  O   UNL     1       0.974  12.616  21.246  0.00  0.00    +0.000 OA
ENDBRANCH   5  12
ENDBRANCH   1   9
BRANCH   2  13
ATOM     13  C   UNL     1       2.580   7.730  18.262  0.00  0.00    +0.000 A 
ATOM     14  C   UNL     1       3.657   7.232  17.484  0.00  0.00    +0.000 A 
ATOM     15  C   UNL     1       3.761   5.901  17.813  0.00  0.00    +0.000 A 
ATOM     16  N   UNL     1       2.776   5.662  18.729  0.00  0.00    +0.000 N 
ATOM     17  N   UNL     1       2.052   6.761  19.035  0.00  0.00    +0.000 NA
BRANCH  16  18
ATOM     18  C   UNL     1       2.472   4.386  19.340  0.00  0.00    +0.000 C 
ATOM     19  C   UNL     1       1.926   4.493  20.762  0.00  0.00    +0.000 C 
ATOM     20  C   UNL     1       1.305   3.125  21.013  0.00  0.00    +0.000 C 
ATOM     21  C   UNL     1       0.848   2.611  19.648  0.00  0.00    +0.000 C 
ATOM     22  C   UNL     1       1.391   3.589  18.608  0.00  0.00    +0.000 C 
ENDBRANCH  16  18
ENDBRANCH   2  13
TORSDOF 4
ENDMDL
