MODEL 1
REMARK VINA RESULT:      -8.2      0.000      0.000
REMARK  Name = 
REMARK  4 active torsions:
REMARK  status: ('A' for Active; 'I' for Inactive)
REMARK    1  A    between atoms: C_2  and  C_3
REMARK    2  A    between atoms: C_6  and  N_7
REMARK    3  A    between atoms: C_9  and  C_10
REMARK    4  A    between atoms: C_15  and  C_16
REMARK                            x       y       z     vdW  Elec       q    Type
REMARK                         _______ _______ _______ _____ _____    ______ ____
ROOT
ATOM      1  N   UNL     1       5.392   4.124  15.746  0.00  0.00    +0.000 N 
ATOM      2  N   UNL     1       5.293   3.397  14.601  0.00  0.00    +0.000 NA
ATOM      3  C   UNL     1       6.180   3.950  13.754  0.00  0.00    +0.000 A 
ATOM      4  C   UNL     1       6.978   4.904  14.430  0.00  0.00    +0.000 A 
ATOM      5  C   UNL     1       6.511   4.965  15.733  0.00  0.00    +0.000 A 
ENDROOT
BRANCH   1   9
ATOM      6  C   UNL     1       2.591   3.624  18.872  0.00  0.00    +0.000 A 
ATOM      7  C   UNL     1       3.220   2.510  18.303  0.00  0.00    +0.000 A 
ATOM      8  C   UNL     1       4.111   2.674  17.236  0.00  0.00    +0.000 A 
ATOM      9  C   UNL     1       4.396   3.958  16.754  0.00  0.00    +0.000 A 
ATOM     10  C   UNL     1       3.721   5.065  17.290  0.00  0.00    +0.000 A 
ATOM     11  C   UNL     1       2.838   4.899  18.360  0.00  0.00    +0.000 A 
BRANCH   6  13
ATOM     12  N   UNL     1       0.964   3.312  20.871  0.00  0.00    +0.000 NA
ATOM     13  C   UNL     1       1.696   3.458  19.980  0.00  0.00    +0.000 C 
ENDBRANCH   6  13
ENDBRANCH   1   9
BRANCH   5  14
ATOM     14  C   UNL     1       7.075   5.716  16.870  0.00  0.00    +0.000 A 
ATOM     15  C   UNL     1       7.492   5.043  18.026  0.00  0.00    +0.000 A 
ATOM     16  C   UNL     1       8.091   5.736  19.083  0.00  0.00    +0.000 A 
ATOM     17  C   UNL     1       8.302   7.109  18.991  0.00  0.00    +0.000 A 
ATOM     18  C   UNL     1       7.862   7.799  17.867  0.00  0.00    +0.000 A 
ATOM     19  C   UNL     1       7.211   7.114  16.840  0.00  0.00    +0.000 A 
ENDBRANCH   5  14
BRANCH   3  20
ATOM     20  C   UNL     1       6.300   3.570  12.303  0.00  0.00    +0.000 C 
ATOM     21  F   UNL     1       6.674   2.281  12.100  0.00  0.00    +0.000 F 
ATOM     22  F   UNL     1       5.114   3.738  11.654  0.00  0.00    +0.000 F 
ATOM     23  F   UNL     1       7.203   4.351  11.651  0.00  0.00    +0.000 F 
ENDBRANCH   3  20
TORSDOF 4
ENDMDL
MODEL 2
REMARK VINA RESULT:      -8.2      0.140      1.275
REMARK  Name = 
REMARK  4 active torsions:
REMARK  status: ('A' for Active; 'I' for Inactive)
REMARK    1  A    between atoms: C_2  and  C_3
REMARK    2  A    between atoms: C_6  and  N_7
REMARK    3  A    between atoms: C_9  and  C_10
REMARK    4  A    between atoms: C_15  and  C_16
REMARK                            x       y       z     vdW  Elec       q    Type
REMARK                         _______ _______ _______ _____ _____    ______ ____
ROOT
ATOM      1  N   UNL     1       5.404   4.158  15.714  0.00  0.00    +0.000 N 
ATOM      2  N   UNL     1       5.255   3.446  14.566  0.00  0.00    +0.000 NA
ATOM      3  C   UNL     1       6.171   3.948  13.718  0.00  0.00    +0.000 A 
ATOM      4  C   UNL     1       7.030   4.845  14.395  0.00  0.00    +0.000 A 
ATOM      5  C   UNL     1       6.574   4.927  15.701  0.00  0.00    +0.000 A 
ENDROOT
BRANCH   1   9
ATOM      6  C   UNL     1       2.591   3.812  18.850  0.00  0.00    +0.000 A 
ATOM      7  C   UNL     1       3.133   2.665  18.259  0.00  0.00    +0.000 A 
ATOM      8  C   UNL     1       4.028   2.781  17.189  0.00  0.00    +0.000 A 
ATOM      9  C   UNL     1       4.404   4.049  16.726  0.00  0.00    +0.000 A 
ATOM     10  C   UNL     1       3.815   5.193  17.285  0.00  0.00    +0.000 A 
ATOM     11  C   UNL     1       2.927   5.074  18.357  0.00  0.00    +0.000 A 
BRANCH   6  13
ATOM     12  N   UNL     1       0.964   3.583  20.861  0.00  0.00    +0.000 NA
ATOM     13  C   UNL     1       1.692   3.693  19.961  0.00  0.00    +0.000 C 
ENDBRANCH   6  13
ENDBRANCH   1   9
BRANCH   5  14
ATOM     14  C   UNL     1       7.188   5.635  16.841  0.00  0.00    +0.000 A 
ATOM     15  C   UNL     1       7.358   7.025  16.801  0.00  0.00    +0.000 A 
ATOM     16  C   UNL     1       7.875   7.716  17.902  0.00  0.00    +0.000 A 
ATOM     17  C   UNL     1       8.210   7.030  19.067  0.00  0.00    +0.000 A 
ATOM     18  C   UNL     1       8.081   5.646  19.111  0.00  0.00    +0.000 A 
ATOM     19  C   UNL     1       7.621   4.953  17.990  0.00  0.00    +0.000 A 
ENDBRANCH   5  14
BRANCH   3  20
ATOM     20  C   UNL     1       6.260   3.570  12.264  0.00  0.00    +0.000 C 
ATOM     21  F   UNL     1       5.079   3.655  11.599  0.00  0.00    +0.000 F 
ATOM     22  F   UNL     1       7.138   4.375  11.602  0.00  0.00    +0.000 F 
ATOM     23  F   UNL     1       6.715   2.298  12.102  0.00  0.00    +0.000 F 
ENDBRANCH   3  20
TORSDOF 4
ENDMDL
MODEL 3
REMARK VINA RESULT:      -8.1      0.227      1.441
REMARK  Name = 
REMARK  4 active torsions:
REMARK  status: ('A' for Active; 'I' for Inactive)
REMARK    1  A    between atoms: C_2  and  C_3
REMARK    2  A    between atoms: C_6  and  N_7
REMARK    3  A    between atoms: C_9  and  C_10
REMARK    4  A    between atoms: C_15  and  C_16
REMARK                            x       y       z     vdW  Elec       q    Type
REMARK                         _______ _______ _______ _____ _____    ______ ____
ROOT
ATOM      1  N   UNL     1       5.440   4.140  15.739  0.00  0.00    +0.000 N 
ATOM      2  N   UNL     1       5.288   3.422  14.595  0.00  0.00    +0.000 NA
ATOM      3  C   UNL     1       6.170   3.951  13.727  0.00  0.00    +0.000 A 
ATOM      4  C   UNL     1       7.015   4.876  14.385  0.00  0.00    +0.000 A 
ATOM      5  C   UNL     1       6.584   4.946  15.700  0.00  0.00    +0.000 A 
ENDROOT
BRANCH   1   9
ATOM      6  C   UNL     1       2.407   3.742  18.657  0.00  0.00    +0.000 A 
ATOM      7  C   UNL     1       2.789   5.010  18.204  0.00  0.00    +0.000 A 
ATOM      8  C   UNL     1       3.826   5.143  17.274  0.00  0.00    +0.000 A 
ATOM      9  C   UNL     1       4.465   4.001  16.772  0.00  0.00    +0.000 A 
ATOM     10  C   UNL     1       4.117   2.737  17.271  0.00  0.00    +0.000 A 
ATOM     11  C   UNL     1       3.077   2.608  18.194  0.00  0.00    +0.000 A 
BRANCH   6  13
ATOM     12  N   UNL     1       0.463   3.484  20.358  0.00  0.00    +0.000 NA
ATOM     13  C   UNL     1       1.330   3.605  19.593  0.00  0.00    +0.000 C 
ENDBRANCH   6  13
ENDBRANCH   1   9
BRANCH   5  14
ATOM     14  C   UNL     1       7.200   5.674  16.826  0.00  0.00    +0.000 A 
ATOM     15  C   UNL     1       7.366   7.065  16.762  0.00  0.00    +0.000 A 
ATOM     16  C   UNL     1       7.885   7.775  17.849  0.00  0.00    +0.000 A 
ATOM     17  C   UNL     1       8.224   7.110  19.025  0.00  0.00    +0.000 A 
ATOM     18  C   UNL     1       8.098   5.727  19.093  0.00  0.00    +0.000 A 
ATOM     19  C   UNL     1       7.637   5.013  17.985  0.00  0.00    +0.000 A 
ENDBRANCH   5  14
BRANCH   3  20
ATOM     20  C   UNL     1       6.240   3.574  12.272  0.00  0.00    +0.000 C 
ATOM     21  F   UNL     1       6.594   2.282  12.054  0.00  0.00    +0.000 F 
ATOM     22  F   UNL     1       5.037   3.757  11.660  0.00  0.00    +0.000 F 
ATOM     23  F   UNL     1       7.131   4.348  11.595  0.00  0.00    +0.000 F 
ENDBRANCH   3  20
TORSDOF 4
ENDMDL
MODEL 4
REMARK VINA RESULT:      -8.1      0.237      1.037
REMARK  Name = 
REMARK  4 active torsions:
REMARK  status: ('A' for Active; 'I' for Inactive)
REMARK    1  A    between atoms: C_2  and  C_3
REMARK    2  A    between atoms: C_6  and  N_7
REMARK    3  A    between atoms: C_9  and  C_10
REMARK    4  A    between atoms: C_15  and  C_16
REMARK                            x       y       z     vdW  Elec       q    Type
REMARK                         _______ _______ _______ _____ _____    ______ ____
ROOT
ATOM      1  N   UNL     1       5.464   4.151  15.757  0.00  0.00    +0.000 N 
ATOM      2  N   UNL     1       5.375   3.417  14.616  0.00  0.00    +0.000 NA
ATOM      3  C   UNL     1       6.245   3.986  13.762  0.00  0.00    +0.000 A 
ATOM      4  C   UNL     1       7.025   4.960  14.428  0.00  0.00    +0.000 A 
ATOM      5  C   UNL     1       6.565   5.016  15.734  0.00  0.00    +0.000 A 
ENDROOT
BRANCH   1   9
ATOM      6  C   UNL     1       2.398   3.620  18.618  0.00  0.00    +0.000 A 
ATOM      7  C   UNL     1       2.744   4.905  18.184  0.00  0.00    +0.000 A 
ATOM      8  C   UNL     1       3.791   5.082  17.273  0.00  0.00    +0.000 A 
ATOM      9  C   UNL     1       4.478   3.969  16.772  0.00  0.00    +0.000 A 
ATOM     10  C   UNL     1       4.164   2.688  17.252  0.00  0.00    +0.000 A 
ATOM     11  C   UNL     1       3.113   2.514  18.155  0.00  0.00    +0.000 A 
BRANCH   6  13
ATOM     12  N   UNL     1       0.436   3.282  20.285  0.00  0.00    +0.000 NA
ATOM     13  C   UNL     1       1.310   3.437  19.533  0.00  0.00    +0.000 C 
ENDBRANCH   6  13
ENDBRANCH   1   9
BRANCH   5  14
ATOM     14  C   UNL     1       7.118   5.785  16.865  0.00  0.00    +0.000 A 
ATOM     15  C   UNL     1       7.533   5.128  18.031  0.00  0.00    +0.000 A 
ATOM     16  C   UNL     1       8.122   5.838  19.083  0.00  0.00    +0.000 A 
ATOM     17  C   UNL     1       8.326   7.211  18.975  0.00  0.00    +0.000 A 
ATOM     18  C   UNL     1       7.888   7.885  17.840  0.00  0.00    +0.000 A 
ATOM     19  C   UNL     1       7.246   7.183  16.818  0.00  0.00    +0.000 A 
ENDBRANCH   5  14
BRANCH   3  20
ATOM     20  C   UNL     1       6.364   3.602  12.312  0.00  0.00    +0.000 C 
ATOM     21  F   UNL     1       6.822   2.340  12.111  0.00  0.00    +0.000 F 
ATOM     22  F   UNL     1       5.159   3.683  11.682  0.00  0.00    +0.000 F 
ATOM     23  F   UNL     1       7.201   4.437  11.638  0.00  0.00    +0.000 F 
ENDBRANCH   3  20
TORSDOF 4
ENDMDL
MODEL 5
REMARK VINA RESULT:      -8.1      3.153      5.399
REMARK  Name = 
REMARK  4 active torsions:
REMARK  status: ('A' for Active; 'I' for Inactive)
REMARK    1  A    between atoms: C_2  and  C_3
REMARK    2  A    between atoms: C_6  and  N_7
REMARK    3  A    between atoms: C_9  and  C_10
REMARK    4  A    between atoms: C_15  and  C_16
REMARK                            x       y       z     vdW  Elec       q    Type
REMARK                         _______ _______ _______ _____ _____    ______ ____
ROOT
ATOM      1  N   UNL     1       3.720   5.684  17.752  0.00  0.00    +0.000 N 
ATOM      2  N   UNL     1       4.495   5.853  16.648  0.00  0.00    +0.000 NA
ATOM      3  C   UNL     1       5.209   4.718  16.542  0.00  0.00    +0.000 A 
ATOM      4  C   UNL     1       4.744   3.754  17.467  0.00  0.00    +0.000 A 
ATOM      5  C   UNL     1       3.737   4.359  18.202  0.00  0.00    +0.000 A 
ENDROOT
BRANCH   1   9
ATOM      6  C   UNL     1       1.520   8.963  19.264  0.00  0.00    +0.000 A 
ATOM      7  C   UNL     1       2.011   8.986  17.953  0.00  0.00    +0.000 A 
ATOM      8  C   UNL     1       2.779   7.920  17.470  0.00  0.00    +0.000 A 
ATOM      9  C   UNL     1       3.036   6.815  18.292  0.00  0.00    +0.000 A 
ATOM     10  C   UNL     1       2.589   6.822  19.621  0.00  0.00    +0.000 A 
ATOM     11  C   UNL     1       1.816   7.883  20.098  0.00  0.00    +0.000 A 
BRANCH   6  13
ATOM     12  N   UNL     1       0.067  10.920  20.157  0.00  0.00    +0.000 NA
ATOM     13  C   UNL     1       0.713  10.043  19.750  0.00  0.00    +0.000 C 
ENDBRANCH   6  13
ENDBRANCH   1   9
BRANCH   5  14
ATOM     14  C   UNL     1       2.850   3.749  19.212  0.00  0.00    +0.000 A 
ATOM     15  C   UNL     1       3.362   3.354  20.455  0.00  0.00    +0.000 A 
ATOM     16  C   UNL     1       2.519   2.839  21.446  0.00  0.00    +0.000 A 
ATOM     17  C   UNL     1       1.150   2.731  21.216  0.00  0.00    +0.000 A 
ATOM     18  C   UNL     1       0.630   3.085  19.975  0.00  0.00    +0.000 A 
ATOM     19  C   UNL     1       1.483   3.543  18.968  0.00  0.00    +0.000 A 
ENDBRANCH   5  14
BRANCH   3  20
ATOM     20  C   UNL     1       6.325   4.522  15.551  0.00  0.00    +0.000 C 
ATOM     21  F   UNL     1       6.434   5.522  14.639  0.00  0.00    +0.000 F 
ATOM     22  F   UNL     1       7.530   4.437  16.180  0.00  0.00    +0.000 F 
ATOM     23  F   UNL     1       6.178   3.364  14.852  0.00  0.00    +0.000 F 
ENDBRANCH   3  20
TORSDOF 4
ENDMDL
MODEL 6
REMARK VINA RESULT:      -8.1      3.768      5.919
REMARK  Name = 
REMARK  4 active torsions:
REMARK  status: ('A' for Active; 'I' for Inactive)
REMARK    1  A    between atoms: C_2  and  C_3
REMARK    2  A    between atoms: C_6  and  N_7
REMARK    3  A    between atoms: C_9  and  C_10
REMARK    4  A    between atoms: C_15  and  C_16
REMARK                            x       y       z     vdW  Elec       q    Type
REMARK                         _______ _______ _______ _____ _____    ______ ____
ROOT
ATOM      1  N   UNL     1       3.811   6.359  18.181  0.00  0.00    +0.000 N 
ATOM      2  N   UNL     1       4.900   6.721  17.451  0.00  0.00    +0.000 NA
ATOM      3  C   UNL     1       5.745   5.678  17.538  0.00  0.00    +0.000 A 
ATOM      4  C   UNL     1       5.109   4.579  18.162  0.00  0.00    +0.000 A 
ATOM      5  C   UNL     1       3.837   5.000  18.515  0.00  0.00    +0.000 A 
ENDROOT
BRANCH   1   9
ATOM      6  C   UNL     1       1.083   9.411  19.237  0.00  0.00    +0.000 A 
ATOM      7  C   UNL     1       1.414   8.410  20.158  0.00  0.00    +0.000 A 
ATOM      8  C   UNL     1       2.280   7.374  19.791  0.00  0.00    +0.000 A 
ATOM      9  C   UNL     1       2.840   7.353  18.507  0.00  0.00    +0.000 A 
ATOM     10  C   UNL     1       2.462   8.327  17.571  0.00  0.00    +0.000 A 
ATOM     11  C   UNL     1       1.603   9.364  17.943  0.00  0.00    +0.000 A 
BRANCH   6  13
ATOM     12  N   UNL     1      -0.502  11.347  19.931  0.00  0.00    +0.000 NA
ATOM     13  C   UNL     1       0.214  10.485  19.621  0.00  0.00    +0.000 C 
ENDBRANCH   6  13
ENDBRANCH   1   9
BRANCH   5  14
ATOM     14  C   UNL     1       2.736   4.202  19.086  0.00  0.00    +0.000 A 
ATOM     15  C   UNL     1       1.779   3.614  18.247  0.00  0.00    +0.000 A 
ATOM     16  C   UNL     1       0.771   2.798  18.771  0.00  0.00    +0.000 A 
ATOM     17  C   UNL     1       0.717   2.540  20.138  0.00  0.00    +0.000 A 
ATOM     18  C   UNL     1       1.636   3.142  20.989  0.00  0.00    +0.000 A 
ATOM     19  C   UNL     1       2.605   4.004  20.470  0.00  0.00    +0.000 A 
ENDBRANCH   5  14
BRANCH   3  20
ATOM     20  C   UNL     1       7.156   5.699  17.014  0.00  0.00    +0.000 C 
ATOM     21  F   UNL     1       7.937   4.698  17.496  0.00  0.00    +0.000 F 
ATOM     22  F   UNL     1       7.176   5.588  15.657  0.00  0.00    +0.000 F 
ATOM     23  F   UNL     1       7.784   6.869  17.309  0.00  0.00    +0.000 F 
ENDBRANCH   3  20
TORSDOF 4
ENDMDL
MODEL 7
REMARK VINA RESULT:      -8.1      3.694      5.844
REMARK  Name = 
REMARK  4 active torsions:
REMARK  status: ('A' for Active; 'I' for Inactive)
REMARK    1  A    between atoms: C_2  and  C_3
REMARK    2  A    between atoms: C_6  and  N_7
REMARK    3  A    between atoms: C_9  and  C_10
REMARK    4  A    between atoms: C_15  and  C_16
REMARK                            x       y       z     vdW  Elec       q    Type
REMARK                         _______ _______ _______ _____ _____    ______ ____
ROOT
ATOM      1  N   UNL     1       3.779   6.339  18.115  0.00  0.00    +0.000 N 
ATOM      2  N   UNL     1       4.816   6.704  17.314  0.00  0.00    +0.000 NA
ATOM      3  C   UNL     1       5.679   5.674  17.365  0.00  0.00    +0.000 A 
ATOM      4  C   UNL     1       5.098   4.576  18.043  0.00  0.00    +0.000 A 
ATOM      5  C   UNL     1       3.845   4.987  18.468  0.00  0.00    +0.000 A 
ENDROOT
BRANCH   1   9
ATOM      6  C   UNL     1       1.075   9.367  19.297  0.00  0.00    +0.000 A 
ATOM      7  C   UNL     1       1.436   8.353  20.192  0.00  0.00    +0.000 A 
ATOM      8  C   UNL     1       2.294   7.326  19.784  0.00  0.00    +0.000 A 
ATOM      9  C   UNL     1       2.815   7.326  18.484  0.00  0.00    +0.000 A 
ATOM     10  C   UNL     1       2.407   8.312  17.573  0.00  0.00    +0.000 A 
ATOM     11  C   UNL     1       1.556   9.340  17.986  0.00  0.00    +0.000 A 
BRANCH   6  13
ATOM     12  N   UNL     1      -0.494  11.287  20.065  0.00  0.00    +0.000 NA
ATOM     13  C   UNL     1       0.215  10.432  19.722  0.00  0.00    +0.000 C 
ENDBRANCH   6  13
ENDBRANCH   1   9
BRANCH   5  14
ATOM     14  C   UNL     1       2.792   4.183  19.118  0.00  0.00    +0.000 A 
ATOM     15  C   UNL     1       2.798   4.001  20.507  0.00  0.00    +0.000 A 
ATOM     16  C   UNL     1       1.768   3.299  21.142  0.00  0.00    +0.000 A 
ATOM     17  C   UNL     1       0.706   2.788  20.401  0.00  0.00    +0.000 A 
ATOM     18  C   UNL     1       0.701   2.929  19.018  0.00  0.00    +0.000 A 
ATOM     19  C   UNL     1       1.761   3.578  18.380  0.00  0.00    +0.000 A 
ENDBRANCH   5  14
BRANCH   3  20
ATOM     20  C   UNL     1       7.055   5.705  16.755  0.00  0.00    +0.000 C 
ATOM     21  F   UNL     1       7.715   6.876  16.945  0.00  0.00    +0.000 F 
ATOM     22  F   UNL     1       7.844   4.725  17.277  0.00  0.00    +0.000 F 
ATOM     23  F   UNL     1       7.015   5.486  15.413  0.00  0.00    +0.000 F 
ENDBRANCH   3  20
TORSDOF 4
ENDMDL
MODEL 8
REMARK VINA RESULT:      -8.0      3.628      5.821
REMARK  Name = 
REMARK  4 active torsions:
REMARK  status: ('A' for Active; 'I' for Inactive)
REMARK    1  A    between atoms: C_2  and  C_3
REMARK    2  A    between atoms: C_6  and  N_7
REMARK    3  A    between atoms: C_9  and  C_10
REMARK    4  A    between atoms: C_15  and  C_16
REMARK                            x       y       z     vdW  Elec       q    Type
REMARK                         _______ _______ _______ _____ _____    ______ ____
ROOT
ATOM      1  N   UNL     1       3.759   6.332  18.080  0.00  0.00    +0.000 N 
ATOM      2  N   UNL     1       4.791   6.656  17.255  0.00  0.00    +0.000 NA
ATOM      3  C   UNL     1       5.593   5.576  17.254  0.00  0.00    +0.000 A 
ATOM      4  C   UNL     1       4.969   4.497  17.924  0.00  0.00    +0.000 A 
ATOM      5  C   UNL     1       3.755   4.969  18.398  0.00  0.00    +0.000 A 
ENDROOT
BRANCH   1   9
ATOM      6  C   UNL     1       0.966   9.283  19.248  0.00  0.00    +0.000 A 
ATOM      7  C   UNL     1       1.518   9.303  17.962  0.00  0.00    +0.000 A 
ATOM      8  C   UNL     1       2.478   8.354  17.593  0.00  0.00    +0.000 A 
ATOM      9  C   UNL     1       2.868   7.363  18.504  0.00  0.00    +0.000 A 
ATOM     10  C   UNL     1       2.353   7.381  19.809  0.00  0.00    +0.000 A 
ATOM     11  C   UNL     1       1.390   8.326  20.172  0.00  0.00    +0.000 A 
BRANCH   6  13
ATOM     12  N   UNL     1      -0.840  11.027  19.908  0.00  0.00    +0.000 NA
ATOM     13  C   UNL     1      -0.035  10.241  19.618  0.00  0.00    +0.000 C 
ENDBRANCH   6  13
ENDBRANCH   1   9
BRANCH   5  14
ATOM     14  C   UNL     1       2.677   4.212  19.062  0.00  0.00    +0.000 A 
ATOM     15  C   UNL     1       1.663   3.613  18.303  0.00  0.00    +0.000 A 
ATOM     16  C   UNL     1       0.675   2.835  18.915  0.00  0.00    +0.000 A 
ATOM     17  C   UNL     1       0.698   2.626  20.291  0.00  0.00    +0.000 A 
ATOM     18  C   UNL     1       1.677   3.241  21.064  0.00  0.00    +0.000 A 
ATOM     19  C   UNL     1       2.627   4.066  20.458  0.00  0.00    +0.000 A 
ENDBRANCH   5  14
BRANCH   3  20
ATOM     20  C   UNL     1       6.948   5.542  16.601  0.00  0.00    +0.000 C 
ATOM     21  F   UNL     1       7.735   4.517  17.017  0.00  0.00    +0.000 F 
ATOM     22  F   UNL     1       6.838   5.423  15.248  0.00  0.00    +0.000 F 
ATOM     23  F   UNL     1       7.643   6.690  16.825  0.00  0.00    +0.000 F 
ENDBRANCH   3  20
TORSDOF 4
ENDMDL
MODEL 9
REMARK VINA RESULT:      -7.9      3.585      5.783
REMARK  Name = 
REMARK  4 active torsions:
REMARK  status: ('A' for Active; 'I' for Inactive)
REMARK    1  A    between atoms: C_2  and  C_3
REMARK    2  A    between atoms: C_6  and  N_7
REMARK    3  A    between atoms: C_9  and  C_10
REMARK    4  A    between atoms: C_15  and  C_16
REMARK                            x       y       z     vdW  Elec       q    Type
REMARK                         _______ _______ _______ _____ _____    ______ ____
ROOT
ATOM      1  N   UNL     1       3.773   6.304  18.068  0.00  0.00    +0.000 N 
ATOM      2  N   UNL     1       4.779   6.640  17.217  0.00  0.00    +0.000 NA
ATOM      3  C   UNL     1       5.593   5.569  17.196  0.00  0.00    +0.000 A 
ATOM      4  C   UNL     1       5.000   4.484  17.882  0.00  0.00    +0.000 A 
ATOM      5  C   UNL     1       3.793   4.941  18.387  0.00  0.00    +0.000 A 
ENDROOT
BRANCH   1   9
ATOM      6  C   UNL     1       0.974   9.223  19.301  0.00  0.00    +0.000 A 
ATOM      7  C   UNL     1       1.510   9.260  18.009  0.00  0.00    +0.000 A 
ATOM      8  C   UNL     1       2.472   8.322  17.618  0.00  0.00    +0.000 A 
ATOM      9  C   UNL     1       2.880   7.325  18.514  0.00  0.00    +0.000 A 
ATOM     10  C   UNL     1       2.382   7.326  19.825  0.00  0.00    +0.000 A 
ATOM     11  C   UNL     1       1.416   8.260  20.210  0.00  0.00    +0.000 A 
BRANCH   6  13
ATOM     12  N   UNL     1      -0.845  10.940  19.998  0.00  0.00    +0.000 NA
ATOM     13  C   UNL     1      -0.028  10.170  19.693  0.00  0.00    +0.000 C 
ENDBRANCH   6  13
ENDBRANCH   1   9
BRANCH   5  14
ATOM     14  C   UNL     1       2.741   4.172  19.078  0.00  0.00    +0.000 A 
ATOM     15  C   UNL     1       2.787   4.003  20.469  0.00  0.00    +0.000 A 
ATOM     16  C   UNL     1       1.760   3.335  21.144  0.00  0.00    +0.000 A 
ATOM     17  C   UNL     1       0.662   2.845  20.442  0.00  0.00    +0.000 A 
ATOM     18  C   UNL     1       0.617   2.973  19.058  0.00  0.00    +0.000 A 
ATOM     19  C   UNL     1       1.672   3.587  18.380  0.00  0.00    +0.000 A 
ENDBRANCH   5  14
BRANCH   3  20
ATOM     20  C   UNL     1       6.932   5.551  16.509  0.00  0.00    +0.000 C 
ATOM     21  F   UNL     1       7.677   6.667  16.723  0.00  0.00    +0.000 F 
ATOM     22  F   UNL     1       7.684   4.496  16.929  0.00  0.00    +0.000 F 
ATOM     23  F   UNL     1       6.804   5.414  15.162  0.00  0.00    +0.000 F 
ENDBRANCH   3  20
TORSDOF 4
ENDMDL
