MODEL 1
REMARK VINA RESULT:      -7.1      0.000      0.000
REMARK  Name = 
REMARK  11 active torsions:
REMARK  status: ('A' for Active; 'I' for Inactive)
REMARK    1  A    between atoms: C_1  and  C_2
REMARK    2  A    between atoms: C_2  and  C_3
REMARK    3  A    between atoms: C_2  and  C_4
REMARK    4  A    between atoms: C_2  and  C_5
REMARK    5  A    between atoms: C_8  and  O_9
REMARK    6  A    between atoms: O_9  and  C_10
REMARK    7  A    between atoms: C_10  and  C_11
REMARK    8  A    between atoms: C_11  and  C_12
REMARK    9  A    between atoms: C_12  and  N_13
REMARK   10  A    between atoms: N_13  and  C_14
REMARK   11  A    between atoms: C_14  and  C_15
REMARK                            x       y       z     vdW  Elec       q    Type
REMARK                         _______ _______ _______ _____ _____    ______ ____
ROOT
ATOM      1  C   UNL     1       1.398   2.399  19.504  0.00  0.00    +0.000 C 
ENDROOT
BRANCH   1   2
ATOM      2  O   UNL     1       2.750   1.962  19.358  0.00  0.00    +0.000 OA
BRANCH   2   6
ATOM      3  C   UNL     1       5.124   4.666  17.181  0.00  0.00    +0.000 A 
ATOM      4  C   UNL     1       3.925   4.129  16.682  0.00  0.00    +0.000 A 
ATOM      5  C   UNL     1       3.154   3.239  17.440  0.00  0.00    +0.000 A 
ATOM      6  C   UNL     1       3.569   2.845  18.709  0.00  0.00    +0.000 A 
ATOM      7  C   UNL     1       4.738   3.389  19.235  0.00  0.00    +0.000 A 
ATOM      8  C   UNL     1       5.502   4.285  18.480  0.00  0.00    +0.000 A 
BRANCH   3  10
ATOM      9  C   UNL     1       5.226   6.652  15.545  0.00  0.00    +0.000 C 
ATOM     10  C   UNL     1       6.019   5.613  16.366  0.00  0.00    +0.000 C 
ATOM     11  C   UNL     1       6.866   4.785  15.373  0.00  0.00    +0.000 C 
ATOM     12  C   UNL     1       6.969   6.394  17.299  0.00  0.00    +0.000 C 
ENDBRANCH   3  10
ENDBRANCH   2   6
ENDBRANCH   1   2
BRANCH   1  13
ATOM     13  C   UNL     1       1.283   3.254  20.760  0.00  0.00    +0.000 C 
BRANCH  13  14
ATOM     14  C   UNL     1       1.047   4.713  20.376  0.00  0.00    +0.000 C 
BRANCH  14  15
ATOM     15  N   UNL     1       2.095   5.564  20.929  0.00  0.00    +0.000 NA
ATOM     16  H   UNL     1       2.765   5.005  21.456  0.00  0.00    +0.000 HD
BRANCH  15  17
ATOM     17  C   UNL     1       2.807   6.275  19.866  0.00  0.00    +0.000 C 
BRANCH  17  18
ATOM     18  C   UNL     1       2.138   7.591  19.547  0.00  0.00    +0.000 A 
ATOM     19  C   UNL     1       1.408   8.281  20.525  0.00  0.00    +0.000 A 
ATOM     20  C   UNL     1       0.814   9.510  20.226  0.00  0.00    +0.000 A 
ATOM     21  C   UNL     1       0.941  10.058  18.951  0.00  0.00    +0.000 A 
ATOM     22  C   UNL     1       1.662   9.380  17.971  0.00  0.00    +0.000 A 
ATOM     23  C   UNL     1       2.259   8.155  18.268  0.00  0.00    +0.000 A 
ENDBRANCH  17  18
ENDBRANCH  15  17
ENDBRANCH  14  15
ENDBRANCH  13  14
ENDBRANCH   1  13
TORSDOF 8
ENDMDL
MODEL 2
REMARK VINA RESULT:      -7.0      1.815      6.399
REMARK  Name = 
REMARK  11 active torsions:
REMARK  status: ('A' for Active; 'I' for Inactive)
REMARK    1  A    between atoms: C_1  and  C_2
REMARK    2  A    between atoms: C_2  and  C_3
REMARK    3  A    between atoms: C_2  and  C_4
REMARK    4  A    between atoms: C_2  and  C_5
REMARK    5  A    between atoms: C_8  and  O_9
REMARK    6  A    between atoms: O_9  and  C_10
REMARK    7  A    between atoms: C_10  and  C_11
REMARK    8  A    between atoms: C_11  and  C_12
REMARK    9  A    between atoms: C_12  and  N_13
REMARK   10  A    between atoms: N_13  and  C_14
REMARK   11  A    between atoms: C_14  and  C_15
REMARK                            x       y       z     vdW  Elec       q    Type
REMARK                         _______ _______ _______ _____ _____    ______ ____
ROOT
ATOM      1  C   UNL     1       4.722   6.235  17.942  0.00  0.00    +0.000 C 
ENDROOT
BRANCH   1   2
ATOM      2  O   UNL     1       3.307   6.182  17.757  0.00  0.00    +0.000 OA
BRANCH   2   6
ATOM      3  C   UNL     1       1.126   9.152  19.784  0.00  0.00    +0.000 A 
ATOM      4  C   UNL     1       1.450   9.240  18.419  0.00  0.00    +0.000 A 
ATOM      5  C   UNL     1       2.169   8.225  17.775  0.00  0.00    +0.000 A 
ATOM      6  C   UNL     1       2.601   7.105  18.478  0.00  0.00    +0.000 A 
ATOM      7  C   UNL     1       2.265   6.983  19.824  0.00  0.00    +0.000 A 
ATOM      8  C   UNL     1       1.539   7.992  20.464  0.00  0.00    +0.000 A 
BRANCH   3  10
ATOM      9  C   UNL     1      -0.014   9.868  21.980  0.00  0.00    +0.000 C 
ATOM     10  C   UNL     1       0.375  10.260  20.538  0.00  0.00    +0.000 C 
ATOM     11  C   UNL     1      -0.929  10.599  19.780  0.00  0.00    +0.000 C 
ATOM     12  C   UNL     1       1.243  11.535  20.629  0.00  0.00    +0.000 C 
ENDBRANCH   3  10
ENDBRANCH   2   6
ENDBRANCH   1   2
BRANCH   1  13
ATOM     13  C   UNL     1       5.410   5.698  16.693  0.00  0.00    +0.000 C 
BRANCH  13  14
ATOM     14  C   UNL     1       4.985   4.253  16.446  0.00  0.00    +0.000 C 
BRANCH  14  15
ATOM     15  N   UNL     1       4.896   3.523  17.706  0.00  0.00    +0.000 NA
ATOM     16  H   UNL     1       4.834   4.173  18.489  0.00  0.00    +0.000 HD
BRANCH  15  17
ATOM     17  C   UNL     1       3.721   2.650  17.723  0.00  0.00    +0.000 C 
BRANCH  17  18
ATOM     18  C   UNL     1       2.888   2.879  18.961  0.00  0.00    +0.000 A 
ATOM     19  C   UNL     1       1.568   3.341  18.862  0.00  0.00    +0.000 A 
ATOM     20  C   UNL     1       0.797   3.525  20.013  0.00  0.00    +0.000 A 
ATOM     21  C   UNL     1       1.336   3.253  21.269  0.00  0.00    +0.000 A 
ATOM     22  C   UNL     1       2.646   2.795  21.379  0.00  0.00    +0.000 A 
ATOM     23  C   UNL     1       3.417   2.606  20.231  0.00  0.00    +0.000 A 
ENDBRANCH  17  18
ENDBRANCH  15  17
ENDBRANCH  14  15
ENDBRANCH  13  14
ENDBRANCH   1  13
TORSDOF 8
ENDMDL
MODEL 3
REMARK VINA RESULT:      -7.0      1.813      6.382
REMARK  Name = 
REMARK  11 active torsions:
REMARK  status: ('A' for Active; 'I' for Inactive)
REMARK    1  A    between atoms: C_1  and  C_2
REMARK    2  A    between atoms: C_2  and  C_3
REMARK    3  A    between atoms: C_2  and  C_4
REMARK    4  A    between atoms: C_2  and  C_5
REMARK    5  A    between atoms: C_8  and  O_9
REMARK    6  A    between atoms: O_9  and  C_10
REMARK    7  A    between atoms: C_10  and  C_11
REMARK    8  A    between atoms: C_11  and  C_12
REMARK    9  A    between atoms: C_12  and  N_13
REMARK   10  A    between atoms: N_13  and  C_14
REMARK   11  A    between atoms: C_14  and  C_15
REMARK                            x       y       z     vdW  Elec       q    Type
REMARK                         _______ _______ _______ _____ _____    ______ ____
ROOT
ATOM      1  C   UNL     1       4.704   6.199  18.000  0.00  0.00    +0.000 C 
ENDROOT
BRANCH   1   2
ATOM      2  O   UNL     1       3.285   6.102  17.873  0.00  0.00    +0.000 OA
BRANCH   2   6
ATOM      3  C   UNL     1       1.121   9.167  19.772  0.00  0.00    +0.000 A 
ATOM      4  C   UNL     1       1.463   9.205  18.409  0.00  0.00    +0.000 A 
ATOM      5  C   UNL     1       2.175   8.160  17.808  0.00  0.00    +0.000 A 
ATOM      6  C   UNL     1       2.583   7.058  18.554  0.00  0.00    +0.000 A 
ATOM      7  C   UNL     1       2.228   6.986  19.899  0.00  0.00    +0.000 A 
ATOM      8  C   UNL     1       1.509   8.026  20.495  0.00  0.00    +0.000 A 
BRANCH   3  10
ATOM      9  C   UNL     1       1.220  11.595  20.625  0.00  0.00    +0.000 C 
ATOM     10  C   UNL     1       0.376  10.311  20.478  0.00  0.00    +0.000 C 
ATOM     11  C   UNL     1      -0.028   9.855  21.898  0.00  0.00    +0.000 C 
ATOM     12  C   UNL     1      -0.901  10.688  19.695  0.00  0.00    +0.000 C 
ENDBRANCH   3  10
ENDBRANCH   2   6
ENDBRANCH   1   2
BRANCH   1  13
ATOM     13  C   UNL     1       5.358   5.635  16.745  0.00  0.00    +0.000 C 
BRANCH  13  14
ATOM     14  C   UNL     1       4.777   4.258  16.430  0.00  0.00    +0.000 C 
BRANCH  14  15
ATOM     15  N   UNL     1       4.837   3.396  17.606  0.00  0.00    +0.000 NA
ATOM     16  H   UNL     1       4.878   3.957  18.456  0.00  0.00    +0.000 HD
BRANCH  15  17
ATOM     17  C   UNL     1       3.665   2.521  17.673  0.00  0.00    +0.000 C 
BRANCH  17  18
ATOM     18  C   UNL     1       2.854   2.790  18.917  0.00  0.00    +0.000 A 
ATOM     19  C   UNL     1       3.407   2.599  20.191  0.00  0.00    +0.000 A 
ATOM     20  C   UNL     1       2.655   2.875  21.336  0.00  0.00    +0.000 A 
ATOM     21  C   UNL     1       1.347   3.341  21.219  0.00  0.00    +0.000 A 
ATOM     22  C   UNL     1       0.786   3.533  19.959  0.00  0.00    +0.000 A 
ATOM     23  C   UNL     1       1.536   3.261  18.815  0.00  0.00    +0.000 A 
ENDBRANCH  17  18
ENDBRANCH  15  17
ENDBRANCH  14  15
ENDBRANCH  13  14
ENDBRANCH   1  13
TORSDOF 8
ENDMDL
MODEL 4
REMARK VINA RESULT:      -7.0      1.816      6.478
REMARK  Name = 
REMARK  11 active torsions:
REMARK  status: ('A' for Active; 'I' for Inactive)
REMARK    1  A    between atoms: C_1  and  C_2
REMARK    2  A    between atoms: C_2  and  C_3
REMARK    3  A    between atoms: C_2  and  C_4
REMARK    4  A    between atoms: C_2  and  C_5
REMARK    5  A    between atoms: C_8  and  O_9
REMARK    6  A    between atoms: O_9  and  C_10
REMARK    7  A    between atoms: C_10  and  C_11
REMARK    8  A    between atoms: C_11  and  C_12
REMARK    9  A    between atoms: C_12  and  N_13
REMARK   10  A    between atoms: N_13  and  C_14
REMARK   11  A    between atoms: C_14  and  C_15
REMARK                            x       y       z     vdW  Elec       q    Type
REMARK                         _______ _______ _______ _____ _____    ______ ____
ROOT
ATOM      1  C   UNL     1       4.649   6.446  17.570  0.00  0.00    +0.000 C 
ENDROOT
BRANCH   1   2
ATOM      2  O   UNL     1       3.249   6.206  17.728  0.00  0.00    +0.000 OA
BRANCH   2   6
ATOM      3  C   UNL     1       1.130   9.207  19.775  0.00  0.00    +0.000 A 
ATOM      4  C   UNL     1       1.576   8.028  20.396  0.00  0.00    +0.000 A 
ATOM      5  C   UNL     1       2.289   7.054  19.684  0.00  0.00    +0.000 A 
ATOM      6  C   UNL     1       2.559   7.222  18.330  0.00  0.00    +0.000 A 
ATOM      7  C   UNL     1       2.154   8.398  17.702  0.00  0.00    +0.000 A 
ATOM      8  C   UNL     1       1.451   9.372  18.416  0.00  0.00    +0.000 A 
BRANCH   3  10
ATOM      9  C   UNL     1      -0.135   9.852  21.923  0.00  0.00    +0.000 C 
ATOM     10  C   UNL     1       0.311  10.280  20.509  0.00  0.00    +0.000 C 
ATOM     11  C   UNL     1      -0.964  10.594  19.694  0.00  0.00    +0.000 C 
ATOM     12  C   UNL     1       1.135  11.577  20.662  0.00  0.00    +0.000 C 
ENDBRANCH   3  10
ENDBRANCH   2   6
ENDBRANCH   1   2
BRANCH   1  13
ATOM     13  C   UNL     1       5.119   5.821  16.263  0.00  0.00    +0.000 C 
BRANCH  13  14
ATOM     14  C   UNL     1       4.898   4.310  16.300  0.00  0.00    +0.000 C 
BRANCH  14  15
ATOM     15  N   UNL     1       4.819   3.838  17.678  0.00  0.00    +0.000 NA
ATOM     16  H   UNL     1       4.548   4.599  18.300  0.00  0.00    +0.000 HD
BRANCH  15  17
ATOM     17  C   UNL     1       3.843   2.754  17.805  0.00  0.00    +0.000 C 
BRANCH  17  18
ATOM     18  C   UNL     1       2.962   2.951  19.014  0.00  0.00    +0.000 A 
ATOM     19  C   UNL     1       1.654   3.438  18.878  0.00  0.00    +0.000 A 
ATOM     20  C   UNL     1       0.837   3.593  20.002  0.00  0.00    +0.000 A 
ATOM     21  C   UNL     1       1.319   3.266  21.268  0.00  0.00    +0.000 A 
ATOM     22  C   UNL     1       2.617   2.782  21.415  0.00  0.00    +0.000 A 
ATOM     23  C   UNL     1       3.432   2.624  20.295  0.00  0.00    +0.000 A 
ENDBRANCH  17  18
ENDBRANCH  15  17
ENDBRANCH  14  15
ENDBRANCH  13  14
ENDBRANCH   1  13
TORSDOF 8
ENDMDL
MODEL 5
REMARK VINA RESULT:      -7.0      0.706      1.410
REMARK  Name = 
REMARK  11 active torsions:
REMARK  status: ('A' for Active; 'I' for Inactive)
REMARK    1  A    between atoms: C_1  and  C_2
REMARK    2  A    between atoms: C_2  and  C_3
REMARK    3  A    between atoms: C_2  and  C_4
REMARK    4  A    between atoms: C_2  and  C_5
REMARK    5  A    between atoms: C_8  and  O_9
REMARK    6  A    between atoms: O_9  and  C_10
REMARK    7  A    between atoms: C_10  and  C_11
REMARK    8  A    between atoms: C_11  and  C_12
REMARK    9  A    between atoms: C_12  and  N_13
REMARK   10  A    between atoms: N_13  and  C_14
REMARK   11  A    between atoms: C_14  and  C_15
REMARK                            x       y       z     vdW  Elec       q    Type
REMARK                         _______ _______ _______ _____ _____    ______ ____
ROOT
ATOM      1  C   UNL     1       2.157   2.343  20.255  0.00  0.00    +0.000 C 
ENDROOT
BRANCH   1   2
ATOM      2  O   UNL     1       3.586   2.339  20.243  0.00  0.00    +0.000 OA
BRANCH   2   6
ATOM      3  C   UNL     1       5.160   4.378  16.919  0.00  0.00    +0.000 A 
ATOM      4  C   UNL     1       4.017   3.564  16.844  0.00  0.00    +0.000 A 
ATOM      5  C   UNL     1       3.515   2.909  17.976  0.00  0.00    +0.000 A 
ATOM      6  C   UNL     1       4.150   3.032  19.207  0.00  0.00    +0.000 A 
ATOM      7  C   UNL     1       5.267   3.858  19.310  0.00  0.00    +0.000 A 
ATOM      8  C   UNL     1       5.761   4.520  18.182  0.00  0.00    +0.000 A 
BRANCH   3  10
ATOM      9  C   UNL     1       5.500   4.341  14.366  0.00  0.00    +0.000 C 
ATOM     10  C   UNL     1       5.767   5.082  15.694  0.00  0.00    +0.000 C 
ATOM     11  C   UNL     1       7.299   5.182  15.871  0.00  0.00    +0.000 C 
ATOM     12  C   UNL     1       5.188   6.506  15.549  0.00  0.00    +0.000 C 
ENDBRANCH   3  10
ENDBRANCH   2   6
ENDBRANCH   1   2
BRANCH   1  13
ATOM     13  C   UNL     1       1.669   3.353  21.286  0.00  0.00    +0.000 C 
BRANCH  13  14
ATOM     14  C   UNL     1       1.225   4.636  20.588  0.00  0.00    +0.000 C 
BRANCH  14  15
ATOM     15  N   UNL     1       2.111   5.741  20.936  0.00  0.00    +0.000 NA
ATOM     16  H   UNL     1       2.837   5.425  21.578  0.00  0.00    +0.000 HD
BRANCH  15  17
ATOM     17  C   UNL     1       2.746   6.299  19.741  0.00  0.00    +0.000 C 
BRANCH  17  18
ATOM     18  C   UNL     1       2.136   7.628  19.368  0.00  0.00    +0.000 A 
ATOM     19  C   UNL     1       2.242   8.126  18.061  0.00  0.00    +0.000 A 
ATOM     20  C   UNL     1       1.651   9.345  17.720  0.00  0.00    +0.000 A 
ATOM     21  C   UNL     1       0.954  10.078  18.679  0.00  0.00    +0.000 A 
ATOM     22  C   UNL     1       0.844   9.595  19.980  0.00  0.00    +0.000 A 
ATOM     23  C   UNL     1       1.429   8.376  20.322  0.00  0.00    +0.000 A 
ENDBRANCH  17  18
ENDBRANCH  15  17
ENDBRANCH  14  15
ENDBRANCH  13  14
ENDBRANCH   1  13
TORSDOF 8
ENDMDL
MODEL 6
REMARK VINA RESULT:      -7.0      1.838      6.217
REMARK  Name = 
REMARK  11 active torsions:
REMARK  status: ('A' for Active; 'I' for Inactive)
REMARK    1  A    between atoms: C_1  and  C_2
REMARK    2  A    between atoms: C_2  and  C_3
REMARK    3  A    between atoms: C_2  and  C_4
REMARK    4  A    between atoms: C_2  and  C_5
REMARK    5  A    between atoms: C_8  and  O_9
REMARK    6  A    between atoms: O_9  and  C_10
REMARK    7  A    between atoms: C_10  and  C_11
REMARK    8  A    between atoms: C_11  and  C_12
REMARK    9  A    between atoms: C_12  and  N_13
REMARK   10  A    between atoms: N_13  and  C_14
REMARK   11  A    between atoms: C_14  and  C_15
REMARK                            x       y       z     vdW  Elec       q    Type
REMARK                         _______ _______ _______ _____ _____    ______ ____
ROOT
ATOM      1  C   UNL     1       4.933   5.658  18.287  0.00  0.00    +0.000 C 
ENDROOT
BRANCH   1   2
ATOM      2  O   UNL     1       3.567   5.545  18.688  0.00  0.00    +0.000 OA
BRANCH   2   6
ATOM      3  C   UNL     1       1.453   9.139  19.234  0.00  0.00    +0.000 A 
ATOM      4  C   UNL     1       1.506   8.128  20.210  0.00  0.00    +0.000 A 
ATOM      5  C   UNL     1       2.230   6.948  19.996  0.00  0.00    +0.000 A 
ATOM      6  C   UNL     1       2.903   6.736  18.798  0.00  0.00    +0.000 A 
ATOM      7  C   UNL     1       2.889   7.737  17.830  0.00  0.00    +0.000 A 
ATOM      8  C   UNL     1       2.175   8.919  18.048  0.00  0.00    +0.000 A 
BRANCH   3  10
ATOM      9  C   UNL     1       1.277  11.658  18.729  0.00  0.00    +0.000 C 
ATOM     10  C   UNL     1       0.638  10.430  19.412  0.00  0.00    +0.000 C 
ATOM     11  C   UNL     1       0.510  10.749  20.918  0.00  0.00    +0.000 C 
ATOM     12  C   UNL     1      -0.777  10.260  18.818  0.00  0.00    +0.000 C 
ENDBRANCH   3  10
ENDBRANCH   2   6
ENDBRANCH   1   2
BRANCH   1  13
ATOM     13  C   UNL     1       5.107   5.014  16.917  0.00  0.00    +0.000 C 
BRANCH  13  14
ATOM     14  C   UNL     1       4.147   3.836  16.771  0.00  0.00    +0.000 C 
BRANCH  14  15
ATOM     15  N   UNL     1       4.603   2.702  17.566  0.00  0.00    +0.000 NA
ATOM     16  H   UNL     1       5.045   3.025  18.426  0.00  0.00    +0.000 HD
BRANCH  15  17
ATOM     17  C   UNL     1       3.485   1.822  17.912  0.00  0.00    +0.000 C 
BRANCH  17  18
ATOM     18  C   UNL     1       2.709   2.361  19.090  0.00  0.00    +0.000 A 
ATOM     19  C   UNL     1       1.370   2.752  18.949  0.00  0.00    +0.000 A 
ATOM     20  C   UNL     1       0.653   3.226  20.051  0.00  0.00    +0.000 A 
ATOM     21  C   UNL     1       1.267   3.316  21.299  0.00  0.00    +0.000 A 
ATOM     22  C   UNL     1       2.597   2.932  21.450  0.00  0.00    +0.000 A 
ATOM     23  C   UNL     1       3.313   2.455  20.353  0.00  0.00    +0.000 A 
ENDBRANCH  17  18
ENDBRANCH  15  17
ENDBRANCH  14  15
ENDBRANCH  13  14
ENDBRANCH   1  13
TORSDOF 8
ENDMDL
MODEL 7
REMARK VINA RESULT:      -6.9      1.827      6.501
REMARK  Name = 
REMARK  11 active torsions:
REMARK  status: ('A' for Active; 'I' for Inactive)
REMARK    1  A    between atoms: C_1  and  C_2
REMARK    2  A    between atoms: C_2  and  C_3
REMARK    3  A    between atoms: C_2  and  C_4
REMARK    4  A    between atoms: C_2  and  C_5
REMARK    5  A    between atoms: C_8  and  O_9
REMARK    6  A    between atoms: O_9  and  C_10
REMARK    7  A    between atoms: C_10  and  C_11
REMARK    8  A    between atoms: C_11  and  C_12
REMARK    9  A    between atoms: C_12  and  N_13
REMARK   10  A    between atoms: N_13  and  C_14
REMARK   11  A    between atoms: C_14  and  C_15
REMARK                            x       y       z     vdW  Elec       q    Type
REMARK                         _______ _______ _______ _____ _____    ______ ____
ROOT
ATOM      1  C   UNL     1       4.596   6.530  17.513  0.00  0.00    +0.000 C 
ENDROOT
BRANCH   1   2
ATOM      2  O   UNL     1       3.518   6.283  18.416  0.00  0.00    +0.000 OA
BRANCH   2   6
ATOM      3  C   UNL     1       0.938   9.494  19.265  0.00  0.00    +0.000 A 
ATOM      4  C   UNL     1       1.280   8.517  20.216  0.00  0.00    +0.000 A 
ATOM      5  C   UNL     1       2.152   7.467  19.900  0.00  0.00    +0.000 A 
ATOM      6  C   UNL     1       2.690   7.352  18.622  0.00  0.00    +0.000 A 
ATOM      7  C   UNL     1       2.389   8.327  17.674  0.00  0.00    +0.000 A 
ATOM      8  C   UNL     1       1.526   9.380  17.993  0.00  0.00    +0.000 A 
BRANCH   3  10
ATOM      9  C   UNL     1      -0.464  10.722  21.042  0.00  0.00    +0.000 C 
ATOM     10  C   UNL     1      -0.045  10.638  19.559  0.00  0.00    +0.000 C 
ATOM     11  C   UNL     1      -1.330  10.433  18.724  0.00  0.00    +0.000 C 
ATOM     12  C   UNL     1       0.581  11.998  19.182  0.00  0.00    +0.000 C 
ENDBRANCH   3  10
ENDBRANCH   2   6
ENDBRANCH   1   2
BRANCH   1  13
ATOM     13  C   UNL     1       4.702   5.369  16.532  0.00  0.00    +0.000 C 
BRANCH  13  14
ATOM     14  C   UNL     1       5.755   4.374  17.014  0.00  0.00    +0.000 C 
BRANCH  14  15
ATOM     15  N   UNL     1       5.235   3.570  18.114  0.00  0.00    +0.000 NA
ATOM     16  H   UNL     1       5.104   4.146  18.944  0.00  0.00    +0.000 HD
BRANCH  15  17
ATOM     17  C   UNL     1       3.953   2.960  17.755  0.00  0.00    +0.000 C 
BRANCH  17  18
ATOM     18  C   UNL     1       3.006   2.949  18.930  0.00  0.00    +0.000 A 
ATOM     19  C   UNL     1       3.479   2.734  20.233  0.00  0.00    +0.000 A 
ATOM     20  C   UNL     1       2.598   2.751  21.316  0.00  0.00    +0.000 A 
ATOM     21  C   UNL     1       1.238   2.979  21.110  0.00  0.00    +0.000 A 
ATOM     22  C   UNL     1       0.756   3.192  19.821  0.00  0.00    +0.000 A 
ATOM     23  C   UNL     1       1.635   3.180  18.738  0.00  0.00    +0.000 A 
ENDBRANCH  17  18
ENDBRANCH  15  17
ENDBRANCH  14  15
ENDBRANCH  13  14
ENDBRANCH   1  13
TORSDOF 8
ENDMDL
MODEL 8
REMARK VINA RESULT:      -6.9      0.641      1.589
REMARK  Name = 
REMARK  11 active torsions:
REMARK  status: ('A' for Active; 'I' for Inactive)
REMARK    1  A    between atoms: C_1  and  C_2
REMARK    2  A    between atoms: C_2  and  C_3
REMARK    3  A    between atoms: C_2  and  C_4
REMARK    4  A    between atoms: C_2  and  C_5
REMARK    5  A    between atoms: C_8  and  O_9
REMARK    6  A    between atoms: O_9  and  C_10
REMARK    7  A    between atoms: C_10  and  C_11
REMARK    8  A    between atoms: C_11  and  C_12
REMARK    9  A    between atoms: C_12  and  N_13
REMARK   10  A    between atoms: N_13  and  C_14
REMARK   11  A    between atoms: C_14  and  C_15
REMARK                            x       y       z     vdW  Elec       q    Type
REMARK                         _______ _______ _______ _____ _____    ______ ____
ROOT
ATOM      1  C   UNL     1       2.832   2.528  21.159  0.00  0.00    +0.000 C 
ENDROOT
BRANCH   1   2
ATOM      2  O   UNL     1       2.704   2.079  19.809  0.00  0.00    +0.000 OA
BRANCH   2   6
ATOM      3  C   UNL     1       4.981   4.409  17.149  0.00  0.00    +0.000 A 
ATOM      4  C   UNL     1       5.393   4.128  18.464  0.00  0.00    +0.000 A 
ATOM      5  C   UNL     1       4.612   3.339  19.318  0.00  0.00    +0.000 A 
ATOM      6  C   UNL     1       3.392   2.825  18.892  0.00  0.00    +0.000 A 
ATOM      7  C   UNL     1       2.980   3.065  17.583  0.00  0.00    +0.000 A 
ATOM      8  C   UNL     1       3.764   3.845  16.728  0.00  0.00    +0.000 A 
BRANCH   3  10
ATOM      9  C   UNL     1       5.132   6.677  15.940  0.00  0.00    +0.000 C 
ATOM     10  C   UNL     1       5.787   5.303  16.194  0.00  0.00    +0.000 C 
ATOM     11  C   UNL     1       5.925   4.594  14.828  0.00  0.00    +0.000 C 
ATOM     12  C   UNL     1       7.198   5.566  16.763  0.00  0.00    +0.000 C 
ENDBRANCH   3  10
ENDBRANCH   2   6
ENDBRANCH   1   2
BRANCH   1  13
ATOM     13  C   UNL     1       1.570   3.282  21.557  0.00  0.00    +0.000 C 
BRANCH  13  14
ATOM     14  C   UNL     1       1.264   4.365  20.525  0.00  0.00    +0.000 C 
BRANCH  14  15
ATOM     15  N   UNL     1       1.867   5.633  20.919  0.00  0.00    +0.000 NA
ATOM     16  H   UNL     1       2.479   5.501  21.724  0.00  0.00    +0.000 HD
BRANCH  15  17
ATOM     17  C   UNL     1       2.647   6.206  19.821  0.00  0.00    +0.000 C 
BRANCH  17  18
ATOM     18  C   UNL     1       2.127   7.569  19.434  0.00  0.00    +0.000 A 
ATOM     19  C   UNL     1       2.354   8.086  18.150  0.00  0.00    +0.000 A 
ATOM     20  C   UNL     1       1.846   9.338  17.793  0.00  0.00    +0.000 A 
ATOM     21  C   UNL     1       1.110  10.083  18.713  0.00  0.00    +0.000 A 
ATOM     22  C   UNL     1       0.880   9.580  19.991  0.00  0.00    +0.000 A 
ATOM     23  C   UNL     1       1.383   8.329  20.348  0.00  0.00    +0.000 A 
ENDBRANCH  17  18
ENDBRANCH  15  17
ENDBRANCH  14  15
ENDBRANCH  13  14
ENDBRANCH   1  13
TORSDOF 8
ENDMDL
MODEL 9
REMARK VINA RESULT:      -6.9      1.879      6.426
REMARK  Name = 
REMARK  11 active torsions:
REMARK  status: ('A' for Active; 'I' for Inactive)
REMARK    1  A    between atoms: C_1  and  C_2
REMARK    2  A    between atoms: C_2  and  C_3
REMARK    3  A    between atoms: C_2  and  C_4
REMARK    4  A    between atoms: C_2  and  C_5
REMARK    5  A    between atoms: C_8  and  O_9
REMARK    6  A    between atoms: O_9  and  C_10
REMARK    7  A    between atoms: C_10  and  C_11
REMARK    8  A    between atoms: C_11  and  C_12
REMARK    9  A    between atoms: C_12  and  N_13
REMARK   10  A    between atoms: N_13  and  C_14
REMARK   11  A    between atoms: C_14  and  C_15
REMARK                            x       y       z     vdW  Elec       q    Type
REMARK                         _______ _______ _______ _____ _____    ______ ____
ROOT
ATOM      1  C   UNL     1       4.940   6.726  17.539  0.00  0.00    +0.000 C 
ENDROOT
BRANCH   1   2
ATOM      2  O   UNL     1       3.540   6.443  17.507  0.00  0.00    +0.000 OA
BRANCH   2   6
ATOM      3  C   UNL     1       1.155   9.031  19.809  0.00  0.00    +0.000 A 
ATOM      4  C   UNL     1       1.676   7.825  20.309  0.00  0.00    +0.000 A 
ATOM      5  C   UNL     1       2.476   6.994  19.516  0.00  0.00    +0.000 A 
ATOM      6  C   UNL     1       2.762   7.332  18.197  0.00  0.00    +0.000 A 
ATOM      7  C   UNL     1       2.282   8.538  17.691  0.00  0.00    +0.000 A 
ATOM      8  C   UNL     1       1.491   9.372  18.487  0.00  0.00    +0.000 A 
BRANCH   3  10
ATOM      9  C   UNL     1       0.925  11.264  21.071  0.00  0.00    +0.000 C 
ATOM     10  C   UNL     1       0.240   9.952  20.633  0.00  0.00    +0.000 C 
ATOM     11  C   UNL     1      -0.209   9.212  21.912  0.00  0.00    +0.000 C 
ATOM     12  C   UNL     1      -1.012  10.339  19.816  0.00  0.00    +0.000 C 
ENDBRANCH   3  10
ENDBRANCH   2   6
ENDBRANCH   1   2
BRANCH   1  13
ATOM     13  C   UNL     1       5.681   5.517  18.094  0.00  0.00    +0.000 C 
BRANCH  13  14
ATOM     14  C   UNL     1       5.586   4.352  17.111  0.00  0.00    +0.000 C 
BRANCH  14  15
ATOM     15  N   UNL     1       4.987   3.188  17.754  0.00  0.00    +0.000 NA
ATOM     16  H   UNL     1       5.152   3.214  18.760  0.00  0.00    +0.000 HD
BRANCH  15  17
ATOM     17  C   UNL     1       3.544   3.140  17.512  0.00  0.00    +0.000 C 
BRANCH  17  18
ATOM     18  C   UNL     1       2.772   3.151  18.809  0.00  0.00    +0.000 A 
ATOM     19  C   UNL     1       3.385   2.774  20.013  0.00  0.00    +0.000 A 
ATOM     20  C   UNL     1       2.668   2.812  21.212  0.00  0.00    +0.000 A 
ATOM     21  C   UNL     1       1.337   3.225  21.220  0.00  0.00    +0.000 A 
ATOM     22  C   UNL     1       0.718   3.600  20.031  0.00  0.00    +0.000 A 
ATOM     23  C   UNL     1       1.432   3.567  18.833  0.00  0.00    +0.000 A 
ENDBRANCH  17  18
ENDBRANCH  15  17
ENDBRANCH  14  15
ENDBRANCH  13  14
ENDBRANCH   1  13
TORSDOF 8
ENDMDL
