MODEL 1
REMARK VINA RESULT:      -6.5      0.000      0.000
REMARK  Name = 
REMARK  11 active torsions:
REMARK  status: ('A' for Active; 'I' for Inactive)
REMARK    1  A    between atoms: C_1  and  C_2
REMARK    2  A    between atoms: C_2  and  N_3
REMARK    3  A    between atoms: N_3  and  C_4
REMARK    4  A    between atoms: N_3  and  C_6
REMARK    5  A    between atoms: C_4  and  C_5
REMARK    6  A    between atoms: C_9  and  C_10
REMARK    7  A    between atoms: C_16  and  C_17
REMARK    8  A    between atoms: C_17  and  N_18
REMARK    9  A    between atoms: N_18  and  C_28
REMARK   10  A    between atoms: C_19  and  C_21
REMARK   11  A    between atoms: C_24  and  C_25
REMARK                            x       y       z     vdW  Elec       q    Type
REMARK                         _______ _______ _______ _____ _____    ______ ____
ROOT
ATOM      1  C   UNL     1      -1.351  13.749  20.878  0.00  0.00    +0.000 A 
ATOM      2  O   UNL     1      -0.898  14.693  21.762  0.00  0.00    +0.000 OA
ATOM      3  N   UNL     1      -0.065  15.593  21.144  0.00  0.00    +0.000 NA
ATOM      4  C   UNL     1       0.012  15.213  19.861  0.00  0.00    +0.000 A 
ATOM      5  C   UNL     1      -0.690  13.964  19.676  0.00  0.00    +0.000 A 
ENDROOT
BRANCH   4   6
ATOM      6  C   UNL     1       0.728  16.038  18.870  0.00  0.00    +0.000 A 
ATOM      7  C   UNL     1       2.072  15.780  18.547  0.00  0.00    +0.000 A 
ATOM      8  C   UNL     1       2.738  16.545  17.582  0.00  0.00    +0.000 A 
ATOM      9  C   UNL     1       2.076  17.585  16.927  0.00  0.00    +0.000 A 
ATOM     10  C   UNL     1       0.760  17.879  17.269  0.00  0.00    +0.000 A 
ATOM     11  C   UNL     1       0.104  17.129  18.250  0.00  0.00    +0.000 A 
ENDBRANCH   4   6
BRANCH   1  12
ATOM     12  N   UNL     1      -2.292  12.865  21.352  0.00  0.00    +0.000 N 
BRANCH  12  14
ATOM     13  C   UNL     1      -4.635  13.101  22.037  0.00  0.00    +0.000 C 
ATOM     14  C   UNL     1      -3.672  12.962  20.865  0.00  0.00    +0.000 C 
ENDBRANCH  12  14
BRANCH  12  15
ATOM     15  C   UNL     1      -2.008  11.952  22.463  0.00  0.00    +0.000 C 
ATOM     16  C   UNL     1      -0.661  11.244  22.415  0.00  0.00    +0.000 C 
ENDBRANCH  12  15
ENDBRANCH   1  12
BRANCH   5  17
ATOM     17  C   UNL     1      -0.703  13.153  18.423  0.00  0.00    +0.000 C 
BRANCH  17  18
ATOM     18  N   UNL     1      -0.451  11.721  18.650  0.00  0.00    +0.000 N 
ATOM     19  C   UNL     1       0.883  11.374  18.937  0.00  0.00    +0.000 C 
ATOM     20  O   UNL     1       1.732  12.265  19.078  0.00  0.00    +0.000 OA
BRANCH  19  21
ATOM     21  C   UNL     1       1.396   9.963  19.022  0.00  0.00    +0.000 A 
ATOM     22  C   UNL     1       1.237   9.095  20.103  0.00  0.00    +0.000 A 
ATOM     23  C   UNL     1       1.754   7.793  20.065  0.00  0.00    +0.000 A 
ATOM     24  C   UNL     1       2.392   7.308  18.922  0.00  0.00    +0.000 A 
ATOM     25  C   UNL     1       2.871   5.889  18.855  0.00  0.00    +0.000 C 
ATOM     26  C   UNL     1       2.505   8.145  17.811  0.00  0.00    +0.000 A 
ATOM     27  C   UNL     1       2.022   9.456  17.869  0.00  0.00    +0.000 A 
ENDBRANCH  19  21
BRANCH  18  28
ATOM     28  C   UNL     1      -1.599  10.847  18.629  0.00  0.00    +0.000 C 
ATOM     29  C   UNL     1      -2.858  11.171  17.867  0.00  0.00    +0.000 C 
ATOM     30  C   UNL     1      -1.976  10.067  17.388  0.00  0.00    +0.000 C 
ENDBRANCH  18  28
ENDBRANCH  17  18
ENDBRANCH   5  17
TORSDOF 8
ENDMDL
MODEL 2
REMARK VINA RESULT:      -6.3      0.504      1.330
REMARK  Name = 
REMARK  11 active torsions:
REMARK  status: ('A' for Active; 'I' for Inactive)
REMARK    1  A    between atoms: C_1  and  C_2
REMARK    2  A    between atoms: C_2  and  N_3
REMARK    3  A    between atoms: N_3  and  C_4
REMARK    4  A    between atoms: N_3  and  C_6
REMARK    5  A    between atoms: C_4  and  C_5
REMARK    6  A    between atoms: C_9  and  C_10
REMARK    7  A    between atoms: C_16  and  C_17
REMARK    8  A    between atoms: C_17  and  N_18
REMARK    9  A    between atoms: N_18  and  C_28
REMARK   10  A    between atoms: C_19  and  C_21
REMARK   11  A    between atoms: C_24  and  C_25
REMARK                            x       y       z     vdW  Elec       q    Type
REMARK                         _______ _______ _______ _____ _____    ______ ____
ROOT
ATOM      1  C   UNL     1      -0.950  13.564  21.288  0.00  0.00    +0.000 A 
ATOM      2  O   UNL     1      -0.348  14.473  22.120  0.00  0.00    +0.000 OA
ATOM      3  N   UNL     1       0.308  15.443  21.403  0.00  0.00    +0.000 NA
ATOM      4  C   UNL     1       0.122  15.146  20.110  0.00  0.00    +0.000 A 
ATOM      5  C   UNL     1      -0.566  13.881  19.992  0.00  0.00    +0.000 A 
ENDROOT
BRANCH   4   6
ATOM      6  C   UNL     1       0.586  16.059  19.049  0.00  0.00    +0.000 A 
ATOM      7  C   UNL     1      -0.309  16.917  18.387  0.00  0.00    +0.000 A 
ATOM      8  C   UNL     1       0.142  17.805  17.403  0.00  0.00    +0.000 A 
ATOM      9  C   UNL     1       1.492  17.846  17.057  0.00  0.00    +0.000 A 
ATOM     10  C   UNL     1       2.382  16.971  17.672  0.00  0.00    +0.000 A 
ATOM     11  C   UNL     1       1.926  16.069  18.638  0.00  0.00    +0.000 A 
ENDBRANCH   4   6
BRANCH   1  12
ATOM     12  N   UNL     1      -1.742  12.613  21.887  0.00  0.00    +0.000 N 
BRANCH  12  14
ATOM     13  C   UNL     1      -3.863  13.845  21.860  0.00  0.00    +0.000 C 
ATOM     14  C   UNL     1      -3.161  12.535  21.525  0.00  0.00    +0.000 C 
ENDBRANCH  12  14
BRANCH  12  15
ATOM     15  C   UNL     1      -1.264  11.800  23.010  0.00  0.00    +0.000 C 
ATOM     16  C   UNL     1      -0.811  10.389  22.663  0.00  0.00    +0.000 C 
ENDBRANCH  12  15
ENDBRANCH   1  12
BRANCH   5  17
ATOM     17  C   UNL     1      -0.820  13.147  18.717  0.00  0.00    +0.000 C 
BRANCH  17  18
ATOM     18  N   UNL     1      -0.534  11.706  18.804  0.00  0.00    +0.000 N 
ATOM     19  C   UNL     1       0.821  11.363  18.981  0.00  0.00    +0.000 C 
ATOM     20  O   UNL     1       1.663  12.256  19.149  0.00  0.00    +0.000 OA
BRANCH  19  21
ATOM     21  C   UNL     1       1.359   9.961  18.913  0.00  0.00    +0.000 A 
ATOM     22  C   UNL     1       2.021   9.386  17.829  0.00  0.00    +0.000 A 
ATOM     23  C   UNL     1       2.487   8.065  17.885  0.00  0.00    +0.000 A 
ATOM     24  C   UNL     1       2.355   7.307  19.050  0.00  0.00    +0.000 A 
ATOM     25  C   UNL     1       2.926   5.924  19.134  0.00  0.00    +0.000 C 
ATOM     26  C   UNL     1       1.748   7.890  20.163  0.00  0.00    +0.000 A 
ATOM     27  C   UNL     1       1.250   9.194  20.088  0.00  0.00    +0.000 A 
ENDBRANCH  19  21
BRANCH  18  28
ATOM     28  C   UNL     1      -1.667  10.814  18.773  0.00  0.00    +0.000 C 
ATOM     29  C   UNL     1      -2.958  11.158  18.076  0.00  0.00    +0.000 C 
ATOM     30  C   UNL     1      -2.077  10.098  17.504  0.00  0.00    +0.000 C 
ENDBRANCH  18  28
ENDBRANCH  17  18
ENDBRANCH   5  17
TORSDOF 8
ENDMDL
MODEL 3
REMARK VINA RESULT:      -6.1      7.577     11.061
REMARK  Name = 
REMARK  11 active torsions:
REMARK  status: ('A' for Active; 'I' for Inactive)
REMARK    1  A    between atoms: C_1  and  C_2
REMARK    2  A    between atoms: C_2  and  N_3
REMARK    3  A    between atoms: N_3  and  C_4
REMARK    4  A    between atoms: N_3  and  C_6
REMARK    5  A    between atoms: C_4  and  C_5
REMARK    6  A    between atoms: C_9  and  C_10
REMARK    7  A    between atoms: C_16  and  C_17
REMARK    8  A    between atoms: C_17  and  N_18
REMARK    9  A    between atoms: N_18  and  C_28
REMARK   10  A    between atoms: C_19  and  C_21
REMARK   11  A    between atoms: C_24  and  C_25
REMARK                            x       y       z     vdW  Elec       q    Type
REMARK                         _______ _______ _______ _____ _____    ______ ____
ROOT
ATOM      1  C   UNL     1       7.112   5.781  16.641  0.00  0.00    +0.000 A 
ATOM      2  O   UNL     1       8.200   5.029  16.281  0.00  0.00    +0.000 OA
ATOM      3  N   UNL     1       7.928   4.256  15.180  0.00  0.00    +0.000 NA
ATOM      4  C   UNL     1       6.658   4.518  14.842  0.00  0.00    +0.000 A 
ATOM      5  C   UNL     1       6.058   5.388  15.827  0.00  0.00    +0.000 A 
ENDROOT
BRANCH   4   6
ATOM      6  C   UNL     1       6.069   3.951  13.614  0.00  0.00    +0.000 A 
ATOM      7  C   UNL     1       6.879   3.373  12.622  0.00  0.00    +0.000 A 
ATOM      8  C   UNL     1       6.313   2.808  11.472  0.00  0.00    +0.000 A 
ATOM      9  C   UNL     1       4.930   2.817  11.290  0.00  0.00    +0.000 A 
ATOM     10  C   UNL     1       4.121   3.426  12.244  0.00  0.00    +0.000 A 
ATOM     11  C   UNL     1       4.689   4.011  13.379  0.00  0.00    +0.000 A 
ENDBRANCH   4   6
BRANCH   1  12
ATOM     12  N   UNL     1       7.300   6.689  17.656  0.00  0.00    +0.000 N 
BRANCH  12  14
ATOM     13  C   UNL     1       8.342   8.859  18.127  0.00  0.00    +0.000 C 
ATOM     14  C   UNL     1       7.260   8.122  17.349  0.00  0.00    +0.000 C 
ENDBRANCH  12  14
BRANCH  12  15
ATOM     15  C   UNL     1       7.726   6.276  18.997  0.00  0.00    +0.000 C 
ATOM     16  C   UNL     1       6.830   5.266  19.699  0.00  0.00    +0.000 C 
ENDBRANCH  12  15
ENDBRANCH   1  12
BRANCH   5  17
ATOM     17  C   UNL     1       4.619   5.782  15.876  0.00  0.00    +0.000 C 
BRANCH  17  18
ATOM     18  N   UNL     1       3.996   5.562  17.191  0.00  0.00    +0.000 N 
ATOM     19  C   UNL     1       3.736   4.219  17.526  0.00  0.00    +0.000 C 
ATOM     20  O   UNL     1       4.120   3.314  16.773  0.00  0.00    +0.000 OA
BRANCH  19  21
ATOM     21  C   UNL     1       2.948   3.780  18.728  0.00  0.00    +0.000 A 
ATOM     22  C   UNL     1       1.557   3.759  18.837  0.00  0.00    +0.000 A 
ATOM     23  C   UNL     1       0.931   3.320  20.011  0.00  0.00    +0.000 A 
ATOM     24  C   UNL     1       1.680   2.834  21.085  0.00  0.00    +0.000 A 
ATOM     25  C   UNL     1       1.004   2.290  22.307  0.00  0.00    +0.000 C 
ATOM     26  C   UNL     1       3.069   2.793  20.968  0.00  0.00    +0.000 A 
ATOM     27  C   UNL     1       3.690   3.270  19.809  0.00  0.00    +0.000 A 
ENDBRANCH  19  21
BRANCH  18  28
ATOM     28  C   UNL     1       3.790   6.728  18.016  0.00  0.00    +0.000 C 
ATOM     29  C   UNL     1       3.341   8.054  17.458  0.00  0.00    +0.000 C 
ATOM     30  C   UNL     1       2.402   7.259  18.303  0.00  0.00    +0.000 C 
ENDBRANCH  18  28
ENDBRANCH  17  18
ENDBRANCH   5  17
TORSDOF 8
ENDMDL
MODEL 4
REMARK VINA RESULT:      -6.0      1.318      2.662
REMARK  Name = 
REMARK  11 active torsions:
REMARK  status: ('A' for Active; 'I' for Inactive)
REMARK    1  A    between atoms: C_1  and  C_2
REMARK    2  A    between atoms: C_2  and  N_3
REMARK    3  A    between atoms: N_3  and  C_4
REMARK    4  A    between atoms: N_3  and  C_6
REMARK    5  A    between atoms: C_4  and  C_5
REMARK    6  A    between atoms: C_9  and  C_10
REMARK    7  A    between atoms: C_16  and  C_17
REMARK    8  A    between atoms: C_17  and  N_18
REMARK    9  A    between atoms: N_18  and  C_28
REMARK   10  A    between atoms: C_19  and  C_21
REMARK   11  A    between atoms: C_24  and  C_25
REMARK                            x       y       z     vdW  Elec       q    Type
REMARK                         _______ _______ _______ _____ _____    ______ ____
ROOT
ATOM      1  C   UNL     1      -0.694  13.659  21.681  0.00  0.00    +0.000 A 
ATOM      2  O   UNL     1      -0.331  14.709  22.483  0.00  0.00    +0.000 OA
ATOM      3  N   UNL     1      -0.004  15.815  21.738  0.00  0.00    +0.000 NA
ATOM      4  C   UNL     1      -0.159  15.462  20.455  0.00  0.00    +0.000 A 
ATOM      5  C   UNL     1      -0.474  14.054  20.367  0.00  0.00    +0.000 A 
ENDROOT
BRANCH   4   6
ATOM      6  C   UNL     1      -0.016  16.455  19.374  0.00  0.00    +0.000 A 
ATOM      7  C   UNL     1      -1.144  17.046  18.778  0.00  0.00    +0.000 A 
ATOM      8  C   UNL     1      -1.003  18.012  17.774  0.00  0.00    +0.000 A 
ATOM      9  C   UNL     1       0.266  18.399  17.342  0.00  0.00    +0.000 A 
ATOM     10  C   UNL     1       1.389  17.789  17.892  0.00  0.00    +0.000 A 
ATOM     11  C   UNL     1       1.246  16.808  18.877  0.00  0.00    +0.000 A 
ENDBRANCH   4   6
BRANCH   1  12
ATOM     12  N   UNL     1      -1.162  12.533  22.315  0.00  0.00    +0.000 N 
BRANCH  12  14
ATOM     13  C   UNL     1      -0.977  10.255  23.205  0.00  0.00    +0.000 C 
ATOM     14  C   UNL     1      -0.317  11.335  22.359  0.00  0.00    +0.000 C 
ENDBRANCH  12  14
BRANCH  12  15
ATOM     15  C   UNL     1      -2.547  12.425  22.785  0.00  0.00    +0.000 C 
ATOM     16  C   UNL     1      -3.605  13.050  21.885  0.00  0.00    +0.000 C 
ENDBRANCH  12  15
ENDBRANCH   1  12
BRANCH   5  17
ATOM     17  C   UNL     1      -0.572  13.263  19.106  0.00  0.00    +0.000 C 
BRANCH  17  18
ATOM     18  N   UNL     1       0.445  12.205  18.997  0.00  0.00    +0.000 N 
ATOM     19  C   UNL     1      -0.050  10.901  18.798  0.00  0.00    +0.000 C 
ATOM     20  O   UNL     1      -1.264  10.725  18.629  0.00  0.00    +0.000 OA
BRANCH  19  21
ATOM     21  C   UNL     1       0.792   9.657  18.839  0.00  0.00    +0.000 A 
ATOM     22  C   UNL     1       1.477   9.091  17.764  0.00  0.00    +0.000 A 
ATOM     23  C   UNL     1       2.241   7.927  17.925  0.00  0.00    +0.000 A 
ATOM     24  C   UNL     1       2.387   7.334  19.181  0.00  0.00    +0.000 A 
ATOM     25  C   UNL     1       3.270   6.137  19.365  0.00  0.00    +0.000 C 
ATOM     26  C   UNL     1       1.757   7.923  20.277  0.00  0.00    +0.000 A 
ATOM     27  C   UNL     1       0.964   9.062  20.102  0.00  0.00    +0.000 A 
ENDBRANCH  19  21
BRANCH  18  28
ATOM     28  C   UNL     1       1.825  12.624  19.031  0.00  0.00    +0.000 C 
ATOM     29  C   UNL     1       2.819  12.250  17.961  0.00  0.00    +0.000 C 
ATOM     30  C   UNL     1       2.360  13.665  18.072  0.00  0.00    +0.000 C 
ENDBRANCH  18  28
ENDBRANCH  17  18
ENDBRANCH   5  17
TORSDOF 8
ENDMDL
MODEL 5
REMARK VINA RESULT:      -6.0      2.088      5.058
REMARK  Name = 
REMARK  11 active torsions:
REMARK  status: ('A' for Active; 'I' for Inactive)
REMARK    1  A    between atoms: C_1  and  C_2
REMARK    2  A    between atoms: C_2  and  N_3
REMARK    3  A    between atoms: N_3  and  C_4
REMARK    4  A    between atoms: N_3  and  C_6
REMARK    5  A    between atoms: C_4  and  C_5
REMARK    6  A    between atoms: C_9  and  C_10
REMARK    7  A    between atoms: C_16  and  C_17
REMARK    8  A    between atoms: C_17  and  N_18
REMARK    9  A    between atoms: N_18  and  C_28
REMARK   10  A    between atoms: C_19  and  C_21
REMARK   11  A    between atoms: C_24  and  C_25
REMARK                            x       y       z     vdW  Elec       q    Type
REMARK                         _______ _______ _______ _____ _____    ______ ____
ROOT
ATOM      1  C   UNL     1      -0.191  13.877  20.697  0.00  0.00    +0.000 A 
ATOM      2  O   UNL     1      -0.434  15.095  21.277  0.00  0.00    +0.000 OA
ATOM      3  N   UNL     1      -1.601  15.078  21.998  0.00  0.00    +0.000 NA
ATOM      4  C   UNL     1      -2.103  13.842  21.872  0.00  0.00    +0.000 A 
ATOM      5  C   UNL     1      -1.302  13.080  20.943  0.00  0.00    +0.000 A 
ENDROOT
BRANCH   4   6
ATOM      6  C   UNL     1      -3.299  13.430  22.630  0.00  0.00    +0.000 A 
ATOM      7  C   UNL     1      -3.193  12.947  23.947  0.00  0.00    +0.000 A 
ATOM      8  C   UNL     1      -4.334  12.587  24.674  0.00  0.00    +0.000 A 
ATOM      9  C   UNL     1      -5.600  12.695  24.098  0.00  0.00    +0.000 A 
ATOM     10  C   UNL     1      -5.715  13.128  22.780  0.00  0.00    +0.000 A 
ATOM     11  C   UNL     1      -4.574  13.465  22.048  0.00  0.00    +0.000 A 
ENDBRANCH   4   6
BRANCH   1  12
ATOM     12  N   UNL     1       1.013  13.732  20.049  0.00  0.00    +0.000 N 
BRANCH  12  14
ATOM     13  C   UNL     1       2.286  13.128  18.041  0.00  0.00    +0.000 C 
ATOM     14  C   UNL     1       1.054  13.839  18.587  0.00  0.00    +0.000 C 
ENDBRANCH  12  14
BRANCH  12  15
ATOM     15  C   UNL     1       2.222  13.289  20.750  0.00  0.00    +0.000 C 
ATOM     16  C   UNL     1       3.028  14.380  21.441  0.00  0.00    +0.000 C 
ENDBRANCH  12  15
ENDBRANCH   1  12
BRANCH   5  17
ATOM     17  C   UNL     1      -1.627  11.716  20.432  0.00  0.00    +0.000 C 
BRANCH  17  18
ATOM     18  N   UNL     1      -0.496  10.777  20.508  0.00  0.00    +0.000 N 
ATOM     19  C   UNL     1       0.013  10.334  19.272  0.00  0.00    +0.000 C 
ATOM     20  O   UNL     1      -0.430  10.812  18.219  0.00  0.00    +0.000 OA
BRANCH  19  21
ATOM     21  C   UNL     1       1.037   9.244  19.116  0.00  0.00    +0.000 A 
ATOM     22  C   UNL     1       1.319   8.241  20.044  0.00  0.00    +0.000 A 
ATOM     23  C   UNL     1       2.294   7.270  19.783  0.00  0.00    +0.000 A 
ATOM     24  C   UNL     1       2.971   7.242  18.562  0.00  0.00    +0.000 A 
ATOM     25  C   UNL     1       3.954   6.153  18.255  0.00  0.00    +0.000 C 
ATOM     26  C   UNL     1       2.656   8.202  17.600  0.00  0.00    +0.000 A 
ATOM     27  C   UNL     1       1.710   9.193  17.881  0.00  0.00    +0.000 A 
ENDBRANCH  19  21
BRANCH  18  28
ATOM     28  C   UNL     1       0.010  10.474  21.824  0.00  0.00    +0.000 C 
ATOM     29  C   UNL     1      -0.843  10.548  23.064  0.00  0.00    +0.000 C 
ATOM     30  C   UNL     1      -0.400   9.216  22.560  0.00  0.00    +0.000 C 
ENDBRANCH  18  28
ENDBRANCH  17  18
ENDBRANCH   5  17
TORSDOF 8
ENDMDL
MODEL 6
REMARK VINA RESULT:      -6.0      7.545     11.050
REMARK  Name = 
REMARK  11 active torsions:
REMARK  status: ('A' for Active; 'I' for Inactive)
REMARK    1  A    between atoms: C_1  and  C_2
REMARK    2  A    between atoms: C_2  and  N_3
REMARK    3  A    between atoms: N_3  and  C_4
REMARK    4  A    between atoms: N_3  and  C_6
REMARK    5  A    between atoms: C_4  and  C_5
REMARK    6  A    between atoms: C_9  and  C_10
REMARK    7  A    between atoms: C_16  and  C_17
REMARK    8  A    between atoms: C_17  and  N_18
REMARK    9  A    between atoms: N_18  and  C_28
REMARK   10  A    between atoms: C_19  and  C_21
REMARK   11  A    between atoms: C_24  and  C_25
REMARK                            x       y       z     vdW  Elec       q    Type
REMARK                         _______ _______ _______ _____ _____    ______ ____
ROOT
ATOM      1  C   UNL     1       7.159   5.795  16.647  0.00  0.00    +0.000 A 
ATOM      2  O   UNL     1       8.224   5.008  16.293  0.00  0.00    +0.000 OA
ATOM      3  N   UNL     1       7.929   4.235  15.198  0.00  0.00    +0.000 NA
ATOM      4  C   UNL     1       6.667   4.532  14.858  0.00  0.00    +0.000 A 
ATOM      5  C   UNL     1       6.094   5.428  15.836  0.00  0.00    +0.000 A 
ENDROOT
BRANCH   4   6
ATOM      6  C   UNL     1       6.061   3.974  13.635  0.00  0.00    +0.000 A 
ATOM      7  C   UNL     1       6.853   3.368  12.644  0.00  0.00    +0.000 A 
ATOM      8  C   UNL     1       6.270   2.811  11.499  0.00  0.00    +0.000 A 
ATOM      9  C   UNL     1       4.888   2.856  11.320  0.00  0.00    +0.000 A 
ATOM     10  C   UNL     1       4.096   3.492  12.271  0.00  0.00    +0.000 A 
ATOM     11  C   UNL     1       4.682   4.068  13.402  0.00  0.00    +0.000 A 
ENDBRANCH   4   6
BRANCH   1  12
ATOM     12  N   UNL     1       7.375   6.705  17.655  0.00  0.00    +0.000 N 
BRANCH  12  14
ATOM     13  C   UNL     1       6.677   5.228  19.484  0.00  0.00    +0.000 C 
ATOM     14  C   UNL     1       7.725   6.218  18.993  0.00  0.00    +0.000 C 
ENDBRANCH  12  14
BRANCH  12  15
ATOM     15  C   UNL     1       7.085   8.132  17.487  0.00  0.00    +0.000 C 
ATOM     16  C   UNL     1       8.171   9.091  17.953  0.00  0.00    +0.000 C 
ENDBRANCH  12  15
ENDBRANCH   1  12
BRANCH   5  17
ATOM     17  C   UNL     1       4.667   5.865  15.882  0.00  0.00    +0.000 C 
BRANCH  17  18
ATOM     18  N   UNL     1       4.023   5.626  17.184  0.00  0.00    +0.000 N 
ATOM     19  C   UNL     1       3.768   4.277  17.499  0.00  0.00    +0.000 C 
ATOM     20  O   UNL     1       4.171   3.383  16.742  0.00  0.00    +0.000 OA
BRANCH  19  21
ATOM     21  C   UNL     1       2.962   3.818  18.682  0.00  0.00    +0.000 A 
ATOM     22  C   UNL     1       1.571   3.725  18.743  0.00  0.00    +0.000 A 
ATOM     23  C   UNL     1       0.928   3.274  19.904  0.00  0.00    +0.000 A 
ATOM     24  C   UNL     1       1.664   2.849  21.012  0.00  0.00    +0.000 A 
ATOM     25  C   UNL     1       0.975   2.291  22.221  0.00  0.00    +0.000 C 
ATOM     26  C   UNL     1       3.057   2.879  20.943  0.00  0.00    +0.000 A 
ATOM     27  C   UNL     1       3.692   3.368  19.797  0.00  0.00    +0.000 A 
ENDBRANCH  19  21
BRANCH  18  28
ATOM     28  C   UNL     1       3.794   6.780  18.018  0.00  0.00    +0.000 C 
ATOM     29  C   UNL     1       3.277   8.088  17.477  0.00  0.00    +0.000 C 
ATOM     30  C   UNL     1       2.394   7.255  18.345  0.00  0.00    +0.000 C 
ENDBRANCH  18  28
ENDBRANCH  17  18
ENDBRANCH   5  17
TORSDOF 8
ENDMDL
MODEL 7
REMARK VINA RESULT:      -5.9      5.428      9.556
REMARK  Name = 
REMARK  11 active torsions:
REMARK  status: ('A' for Active; 'I' for Inactive)
REMARK    1  A    between atoms: C_1  and  C_2
REMARK    2  A    between atoms: C_2  and  N_3
REMARK    3  A    between atoms: N_3  and  C_4
REMARK    4  A    between atoms: N_3  and  C_6
REMARK    5  A    between atoms: C_4  and  C_5
REMARK    6  A    between atoms: C_9  and  C_10
REMARK    7  A    between atoms: C_16  and  C_17
REMARK    8  A    between atoms: C_17  and  N_18
REMARK    9  A    between atoms: N_18  and  C_28
REMARK   10  A    between atoms: C_19  and  C_21
REMARK   11  A    between atoms: C_24  and  C_25
REMARK                            x       y       z     vdW  Elec       q    Type
REMARK                         _______ _______ _______ _____ _____    ______ ____
ROOT
ATOM      1  C   UNL     1       3.178   4.196  19.756  0.00  0.00    +0.000 A 
ATOM      2  O   UNL     1       1.917   4.078  20.280  0.00  0.00    +0.000 OA
ATOM      3  N   UNL     1       1.301   5.302  20.372  0.00  0.00    +0.000 NA
ATOM      4  C   UNL     1       2.179   6.200  19.905  0.00  0.00    +0.000 A 
ATOM      5  C   UNL     1       3.440   5.553  19.623  0.00  0.00    +0.000 A 
ENDROOT
BRANCH   4   6
ATOM      6  C   UNL     1       1.798   7.615  19.738  0.00  0.00    +0.000 A 
ATOM      7  C   UNL     1       1.271   8.356  20.810  0.00  0.00    +0.000 A 
ATOM      8  C   UNL     1       0.941   9.708  20.654  0.00  0.00    +0.000 A 
ATOM      9  C   UNL     1       1.124  10.341  19.425  0.00  0.00    +0.000 A 
ATOM     10  C   UNL     1       1.602   9.607  18.344  0.00  0.00    +0.000 A 
ATOM     11  C   UNL     1       1.909   8.252  18.494  0.00  0.00    +0.000 A 
ENDBRANCH   4   6
BRANCH   1  12
ATOM     12  N   UNL     1       3.849   3.023  19.500  0.00  0.00    +0.000 N 
BRANCH  12  14
ATOM     13  C   UNL     1       2.367   2.332  17.671  0.00  0.00    +0.000 C 
ATOM     14  C   UNL     1       3.809   2.459  18.147  0.00  0.00    +0.000 C 
ENDBRANCH  12  14
BRANCH  12  15
ATOM     15  C   UNL     1       4.444   2.220  20.572  0.00  0.00    +0.000 C 
ATOM     16  C   UNL     1       5.036   0.882  20.151  0.00  0.00    +0.000 C 
ENDBRANCH  12  15
ENDBRANCH   1  12
BRANCH   5  17
ATOM     17  C   UNL     1       4.702   6.245  19.230  0.00  0.00    +0.000 C 
BRANCH  17  18
ATOM     18  N   UNL     1       5.432   5.563  18.149  0.00  0.00    +0.000 N 
ATOM     19  C   UNL     1       5.019   5.880  16.840  0.00  0.00    +0.000 C 
ATOM     20  O   UNL     1       4.164   6.758  16.662  0.00  0.00    +0.000 OA
BRANCH  19  21
ATOM     21  C   UNL     1       5.498   5.172  15.603  0.00  0.00    +0.000 A 
ATOM     22  C   UNL     1       4.852   4.117  14.958  0.00  0.00    +0.000 A 
ATOM     23  C   UNL     1       5.393   3.539  13.801  0.00  0.00    +0.000 A 
ATOM     24  C   UNL     1       6.562   4.042  13.227  0.00  0.00    +0.000 A 
ATOM     25  C   UNL     1       7.093   3.474  11.945  0.00  0.00    +0.000 C 
ATOM     26  C   UNL     1       7.186   5.136  13.828  0.00  0.00    +0.000 A 
ATOM     27  C   UNL     1       6.664   5.683  15.004  0.00  0.00    +0.000 A 
ENDBRANCH  19  21
BRANCH  18  28
ATOM     28  C   UNL     1       6.528   4.711  18.541  0.00  0.00    +0.000 C 
ATOM     29  C   UNL     1       7.798   4.592  17.739  0.00  0.00    +0.000 C 
ATOM     30  C   UNL     1       7.829   5.283  19.061  0.00  0.00    +0.000 C 
ENDBRANCH  18  28
ENDBRANCH  17  18
ENDBRANCH   5  17
TORSDOF 8
ENDMDL
MODEL 8
REMARK VINA RESULT:      -5.7      5.341      9.545
REMARK  Name = 
REMARK  11 active torsions:
REMARK  status: ('A' for Active; 'I' for Inactive)
REMARK    1  A    between atoms: C_1  and  C_2
REMARK    2  A    between atoms: C_2  and  N_3
REMARK    3  A    between atoms: N_3  and  C_4
REMARK    4  A    between atoms: N_3  and  C_6
REMARK    5  A    between atoms: C_4  and  C_5
REMARK    6  A    between atoms: C_9  and  C_10
REMARK    7  A    between atoms: C_16  and  C_17
REMARK    8  A    between atoms: C_17  and  N_18
REMARK    9  A    between atoms: N_18  and  C_28
REMARK   10  A    between atoms: C_19  and  C_21
REMARK   11  A    between atoms: C_24  and  C_25
REMARK                            x       y       z     vdW  Elec       q    Type
REMARK                         _______ _______ _______ _____ _____    ______ ____
ROOT
ATOM      1  C   UNL     1       3.120   4.304  19.729  0.00  0.00    +0.000 A 
ATOM      2  O   UNL     1       1.853   4.216  20.244  0.00  0.00    +0.000 OA
ATOM      3  N   UNL     1       1.254   5.450  20.304  0.00  0.00    +0.000 NA
ATOM      4  C   UNL     1       2.149   6.325  19.827  0.00  0.00    +0.000 A 
ATOM      5  C   UNL     1       3.403   5.655  19.570  0.00  0.00    +0.000 A 
ENDROOT
BRANCH   4   6
ATOM      6  C   UNL     1       1.790   7.742  19.626  0.00  0.00    +0.000 A 
ATOM      7  C   UNL     1       1.219   8.499  20.664  0.00  0.00    +0.000 A 
ATOM      8  C   UNL     1       0.909   9.853  20.478  0.00  0.00    +0.000 A 
ATOM      9  C   UNL     1       1.157  10.470  19.252  0.00  0.00    +0.000 A 
ATOM     10  C   UNL     1       1.681   9.721  18.204  0.00  0.00    +0.000 A 
ATOM     11  C   UNL     1       1.967   8.365  18.383  0.00  0.00    +0.000 A 
ENDBRANCH   4   6
BRANCH   1  12
ATOM     12  N   UNL     1       3.776   3.117  19.504  0.00  0.00    +0.000 N 
BRANCH  12  14
ATOM     13  C   UNL     1       4.918   1.096  20.295  0.00  0.00    +0.000 C 
ATOM     14  C   UNL     1       4.645   2.572  20.552  0.00  0.00    +0.000 C 
ENDBRANCH  12  14
BRANCH  12  15
ATOM     15  C   UNL     1       3.787   2.474  18.187  0.00  0.00    +0.000 C 
ATOM     16  C   UNL     1       2.423   2.145  17.596  0.00  0.00    +0.000 C 
ENDBRANCH  12  15
ENDBRANCH   1  12
BRANCH   5  17
ATOM     17  C   UNL     1       4.678   6.320  19.174  0.00  0.00    +0.000 C 
BRANCH  17  18
ATOM     18  N   UNL     1       5.401   5.613  18.105  0.00  0.00    +0.000 N 
ATOM     19  C   UNL     1       5.015   5.938  16.790  0.00  0.00    +0.000 C 
ATOM     20  O   UNL     1       4.189   6.841  16.598  0.00  0.00    +0.000 OA
BRANCH  19  21
ATOM     21  C   UNL     1       5.487   5.212  15.561  0.00  0.00    +0.000 A 
ATOM     22  C   UNL     1       4.808   4.191  14.897  0.00  0.00    +0.000 A 
ATOM     23  C   UNL     1       5.347   3.591  13.751  0.00  0.00    +0.000 A 
ATOM     24  C   UNL     1       6.551   4.040  13.205  0.00  0.00    +0.000 A 
ATOM     25  C   UNL     1       7.083   3.452  11.933  0.00  0.00    +0.000 C 
ATOM     26  C   UNL     1       7.212   5.101  13.824  0.00  0.00    +0.000 A 
ATOM     27  C   UNL     1       6.689   5.669  14.991  0.00  0.00    +0.000 A 
ENDBRANCH  19  21
BRANCH  18  28
ATOM     28  C   UNL     1       6.465   4.729  18.513  0.00  0.00    +0.000 C 
ATOM     29  C   UNL     1       7.753   4.591  17.743  0.00  0.00    +0.000 C 
ATOM     30  C   UNL     1       7.766   5.262  19.076  0.00  0.00    +0.000 C 
ENDBRANCH  18  28
ENDBRANCH  17  18
ENDBRANCH   5  17
TORSDOF 8
ENDMDL
MODEL 9
REMARK VINA RESULT:      -5.6      3.215      6.032
REMARK  Name = 
REMARK  11 active torsions:
REMARK  status: ('A' for Active; 'I' for Inactive)
REMARK    1  A    between atoms: C_1  and  C_2
REMARK    2  A    between atoms: C_2  and  N_3
REMARK    3  A    between atoms: N_3  and  C_4
REMARK    4  A    between atoms: N_3  and  C_6
REMARK    5  A    between atoms: C_4  and  C_5
REMARK    6  A    between atoms: C_9  and  C_10
REMARK    7  A    between atoms: C_16  and  C_17
REMARK    8  A    between atoms: C_17  and  N_18
REMARK    9  A    between atoms: N_18  and  C_28
REMARK   10  A    between atoms: C_19  and  C_21
REMARK   11  A    between atoms: C_24  and  C_25
REMARK                            x       y       z     vdW  Elec       q    Type
REMARK                         _______ _______ _______ _____ _____    ______ ____
ROOT
ATOM      1  C   UNL     1      -6.536  12.296  21.342  0.00  0.00    +0.000 A 
ATOM      2  O   UNL     1      -6.872  11.793  22.572  0.00  0.00    +0.000 OA
ATOM      3  N   UNL     1      -6.186  12.432  23.575  0.00  0.00    +0.000 NA
ATOM      4  C   UNL     1      -5.407  13.343  22.976  0.00  0.00    +0.000 A 
ATOM      5  C   UNL     1      -5.502  13.202  21.541  0.00  0.00    +0.000 A 
ENDROOT
BRANCH   4   6
ATOM      6  C   UNL     1      -4.621  14.306  23.769  0.00  0.00    +0.000 A 
ATOM      7  C   UNL     1      -4.991  15.660  23.842  0.00  0.00    +0.000 A 
ATOM      8  C   UNL     1      -4.260  16.564  24.622  0.00  0.00    +0.000 A 
ATOM      9  C   UNL     1      -3.141  16.134  25.337  0.00  0.00    +0.000 A 
ATOM     10  C   UNL     1      -2.738  14.806  25.237  0.00  0.00    +0.000 A 
ATOM     11  C   UNL     1      -3.455  13.910  24.440  0.00  0.00    +0.000 A 
ENDBRANCH   4   6
BRANCH   1  12
ATOM     12  N   UNL     1      -7.250  11.821  20.268  0.00  0.00    +0.000 N 
BRANCH  12  14
ATOM     13  C   UNL     1      -7.183  12.372  17.878  0.00  0.00    +0.000 C 
ATOM     14  C   UNL     1      -7.718  12.766  19.248  0.00  0.00    +0.000 C 
ENDBRANCH  12  14
BRANCH  12  15
ATOM     15  C   UNL     1      -7.720  10.434  20.200  0.00  0.00    +0.000 C 
ATOM     16  C   UNL     1      -6.759   9.436  19.569  0.00  0.00    +0.000 C 
ENDBRANCH  12  15
ENDBRANCH   1  12
BRANCH   5  17
ATOM     17  C   UNL     1      -4.674  13.936  20.540  0.00  0.00    +0.000 C 
BRANCH  17  18
ATOM     18  N   UNL     1      -3.303  13.415  20.419  0.00  0.00    +0.000 N 
ATOM     19  C   UNL     1      -3.144  12.307  19.565  0.00  0.00    +0.000 C 
ATOM     20  O   UNL     1      -4.108  11.901  18.902  0.00  0.00    +0.000 OA
BRANCH  19  21
ATOM     21  C   UNL     1      -1.877  11.508  19.434  0.00  0.00    +0.000 A 
ATOM     22  C   UNL     1      -0.960  11.250  20.453  0.00  0.00    +0.000 A 
ATOM     23  C   UNL     1       0.188  10.482  20.213  0.00  0.00    +0.000 A 
ATOM     24  C   UNL     1       0.416   9.903  18.963  0.00  0.00    +0.000 A 
ATOM     25  C   UNL     1       1.601   9.015  18.734  0.00  0.00    +0.000 C 
ATOM     26  C   UNL     1      -0.524  10.103  17.952  0.00  0.00    +0.000 A 
ATOM     27  C   UNL     1      -1.647  10.903  18.185  0.00  0.00    +0.000 A 
ENDBRANCH  19  21
BRANCH  18  28
ATOM     28  C   UNL     1      -2.270  14.135  21.124  0.00  0.00    +0.000 C 
ATOM     29  C   UNL     1      -1.224  14.960  20.420  0.00  0.00    +0.000 C 
ATOM     30  C   UNL     1      -2.281  15.645  21.220  0.00  0.00    +0.000 C 
ENDBRANCH  18  28
ENDBRANCH  17  18
ENDBRANCH   5  17
TORSDOF 8
ENDMDL
