MODEL 1
REMARK VINA RESULT:      -7.8      0.000      0.000
REMARK  Name = 
REMARK  9 active torsions:
REMARK  status: ('A' for Active; 'I' for Inactive)
REMARK    1  A    between atoms: C_1  and  N_2
REMARK    2  A    between atoms: N_2  and  C_3
REMARK    3  A    between atoms: N_2  and  C_11
REMARK    4  A    between atoms: C_3  and  C_4
REMARK    5  A    between atoms: C_8  and  O_9
REMARK    6  A    between atoms: C_11  and  C_12
REMARK    7  A    between atoms: N_16  and  C_17
REMARK    8  A    between atoms: C_17  and  C_18
REMARK    9  A    between atoms: C_18  and  C_19
REMARK                            x       y       z     vdW  Elec       q    Type
REMARK                         _______ _______ _______ _____ _____    ______ ____
ROOT
ATOM      1  C   UNL     1       6.872   5.708  16.862  0.00  0.00    +0.000 C 
ATOM      2  C   UNL     1       7.669   4.920  17.915  0.00  0.00    +0.000 C 
ATOM      3  C   UNL     1       7.799   5.698  19.224  0.00  0.00    +0.000 C 
ATOM      4  C   UNL     1       8.333   7.115  18.995  0.00  0.00    +0.000 C 
ATOM      5  N   UNL     1       7.562   7.844  17.975  0.00  0.00    +0.000 NA
ATOM      6  C   UNL     1       7.515   7.095  16.709  0.00  0.00    +0.000 C 
ENDROOT
BRANCH   1   7
ATOM      7  C   UNL     1       5.358   5.767  17.216  0.00  0.00    +0.000 C 
BRANCH   7   9
ATOM      8  C   UNL     1       4.972   3.987  15.580  0.00  0.00    +0.000 C 
ATOM      9  N   UNL     1       4.544   4.585  16.848  0.00  0.00    +0.000 NA
BRANCH   9  10
ATOM     10  C   UNL     1       4.597   3.544  17.899  0.00  0.00    +0.000 C 
BRANCH  10  11
ATOM     11  C   UNL     1       3.315   3.347  18.682  0.00  0.00    +0.000 A 
ATOM     12  C   UNL     1       2.076   3.326  18.020  0.00  0.00    +0.000 A 
ATOM     13  C   UNL     1       0.887   3.178  18.740  0.00  0.00    +0.000 A 
ATOM     14  C   UNL     1       0.922   3.053  20.128  0.00  0.00    +0.000 A 
ATOM     15  C   UNL     1       2.150   3.073  20.785  0.00  0.00    +0.000 A 
ATOM     16  C   UNL     1       3.338   3.218  20.077  0.00  0.00    +0.000 A 
BRANCH  15  17
ATOM     17  O   UNL     1       2.225   2.955  22.143  0.00  0.00    +0.000 OA
ATOM     18  H   UNL     1       3.136   3.149  22.416  0.00  0.00    +0.000 HD
ENDBRANCH  15  17
ENDBRANCH  10  11
ENDBRANCH   9  10
ENDBRANCH   7   9
ENDBRANCH   1   7
BRANCH   5  19
ATOM     19  C   UNL     1       8.107   9.204  17.790  0.00  0.00    +0.000 C 
BRANCH  19  20
ATOM     20  C   UNL     1       9.016   9.662  18.945  0.00  0.00    +0.000 C 
BRANCH  20  21
ATOM     21  C   UNL     1       9.614  11.025  18.704  0.00  0.00    +0.000 A 
ATOM     22  C   UNL     1       8.949  11.951  17.889  0.00  0.00    +0.000 A 
ATOM     23  C   UNL     1       9.487  13.224  17.684  0.00  0.00    +0.000 A 
ATOM     24  C   UNL     1      10.691  13.568  18.287  0.00  0.00    +0.000 A 
ATOM     25 CL   UNL     1      11.352  15.139  18.043  0.00  0.00    +0.000 Cl
ATOM     26  C   UNL     1      11.368  12.651  19.091  0.00  0.00    +0.000 A 
ATOM     27  C   UNL     1      10.831  11.381  19.298  0.00  0.00    +0.000 A 
ENDBRANCH  20  21
ENDBRANCH  19  20
ENDBRANCH   5  19
TORSDOF 8
ENDMDL
MODEL 2
REMARK VINA RESULT:      -7.5      0.982      1.206
REMARK  Name = 
REMARK  9 active torsions:
REMARK  status: ('A' for Active; 'I' for Inactive)
REMARK    1  A    between atoms: C_1  and  N_2
REMARK    2  A    between atoms: N_2  and  C_3
REMARK    3  A    between atoms: N_2  and  C_11
REMARK    4  A    between atoms: C_3  and  C_4
REMARK    5  A    between atoms: C_8  and  O_9
REMARK    6  A    between atoms: C_11  and  C_12
REMARK    7  A    between atoms: N_16  and  C_17
REMARK    8  A    between atoms: C_17  and  C_18
REMARK    9  A    between atoms: C_18  and  C_19
REMARK                            x       y       z     vdW  Elec       q    Type
REMARK                         _______ _______ _______ _____ _____    ______ ____
ROOT
ATOM      1  C   UNL     1       6.784   5.434  16.242  0.00  0.00    +0.000 C 
ATOM      2  C   UNL     1       7.250   4.548  17.409  0.00  0.00    +0.000 C 
ATOM      3  C   UNL     1       7.131   5.271  18.751  0.00  0.00    +0.000 C 
ATOM      4  C   UNL     1       7.811   6.643  18.721  0.00  0.00    +0.000 C 
ATOM      5  N   UNL     1       7.357   7.466  17.589  0.00  0.00    +0.000 NA
ATOM      6  C   UNL     1       7.550   6.764  16.311  0.00  0.00    +0.000 C 
ENDROOT
BRANCH   1   7
ATOM      7  C   UNL     1       5.238   5.612  16.241  0.00  0.00    +0.000 C 
BRANCH   7   9
ATOM      8  C   UNL     1       3.834   6.449  18.063  0.00  0.00    +0.000 C 
ATOM      9  N   UNL     1       4.531   5.289  17.502  0.00  0.00    +0.000 NA
BRANCH   9  10
ATOM     10  C   UNL     1       3.547   4.200  17.306  0.00  0.00    +0.000 C 
BRANCH  10  11
ATOM     11  C   UNL     1       2.850   3.722  18.563  0.00  0.00    +0.000 A 
ATOM     12  C   UNL     1       1.476   3.950  18.742  0.00  0.00    +0.000 A 
ATOM     13  C   UNL     1       0.833   3.540  19.914  0.00  0.00    +0.000 A 
ATOM     14  C   UNL     1       1.556   2.903  20.921  0.00  0.00    +0.000 A 
ATOM     15  C   UNL     1       2.919   2.675  20.744  0.00  0.00    +0.000 A 
ATOM     16  C   UNL     1       3.566   3.078  19.581  0.00  0.00    +0.000 A 
BRANCH  15  17
ATOM     17  O   UNL     1       3.661   2.056  21.708  0.00  0.00    +0.000 OA
ATOM     18  H   UNL     1       3.725   1.114  21.486  0.00  0.00    +0.000 HD
ENDBRANCH  15  17
ENDBRANCH  10  11
ENDBRANCH   9  10
ENDBRANCH   7   9
ENDBRANCH   1   7
BRANCH   5  19
ATOM     19  C   UNL     1       8.033   8.780  17.604  0.00  0.00    +0.000 C 
BRANCH  19  20
ATOM     20  C   UNL     1       8.773   9.074  18.921  0.00  0.00    +0.000 C 
BRANCH  20  21
ATOM     21  C   UNL     1       9.283  10.491  18.993  0.00  0.00    +0.000 A 
ATOM     22  C   UNL     1       9.115  11.356  17.902  0.00  0.00    +0.000 A 
ATOM     23  C   UNL     1       9.562  12.676  17.974  0.00  0.00    +0.000 A 
ATOM     24  C   UNL     1      10.184  13.132  19.132  0.00  0.00    +0.000 A 
ATOM     25 CL   UNL     1      10.728  14.761  19.226  0.00  0.00    +0.000 Cl
ATOM     26  C   UNL     1      10.367  12.277  20.220  0.00  0.00    +0.000 A 
ATOM     27  C   UNL     1       9.919  10.959  20.149  0.00  0.00    +0.000 A 
ENDBRANCH  20  21
ENDBRANCH  19  20
ENDBRANCH   5  19
TORSDOF 8
ENDMDL
MODEL 3
REMARK VINA RESULT:      -7.4      1.597      2.036
REMARK  Name = 
REMARK  9 active torsions:
REMARK  status: ('A' for Active; 'I' for Inactive)
REMARK    1  A    between atoms: C_1  and  N_2
REMARK    2  A    between atoms: N_2  and  C_3
REMARK    3  A    between atoms: N_2  and  C_11
REMARK    4  A    between atoms: C_3  and  C_4
REMARK    5  A    between atoms: C_8  and  O_9
REMARK    6  A    between atoms: C_11  and  C_12
REMARK    7  A    between atoms: N_16  and  C_17
REMARK    8  A    between atoms: C_17  and  C_18
REMARK    9  A    between atoms: C_18  and  C_19
REMARK                            x       y       z     vdW  Elec       q    Type
REMARK                         _______ _______ _______ _____ _____    ______ ____
ROOT
ATOM      1  C   UNL     1       6.347   5.451  16.372  0.00  0.00    +0.000 C 
ATOM      2  C   UNL     1       7.240   4.505  17.193  0.00  0.00    +0.000 C 
ATOM      3  C   UNL     1       7.489   5.043  18.601  0.00  0.00    +0.000 C 
ATOM      4  C   UNL     1       7.997   6.488  18.578  0.00  0.00    +0.000 C 
ATOM      5  N   UNL     1       7.134   7.370  17.776  0.00  0.00    +0.000 NA
ATOM      6  C   UNL     1       6.971   6.854  16.408  0.00  0.00    +0.000 C 
ENDROOT
BRANCH   1   7
ATOM      7  C   UNL     1       4.873   5.419  16.866  0.00  0.00    +0.000 C 
BRANCH   7   9
ATOM      8  C   UNL     1       3.512   7.320  17.594  0.00  0.00    +0.000 C 
ATOM      9  N   UNL     1       4.525   6.333  17.979  0.00  0.00    +0.000 NA
BRANCH   9  10
ATOM     10  C   UNL     1       4.029   5.587  19.157  0.00  0.00    +0.000 C 
BRANCH  10  11
ATOM     11  C   UNL     1       3.296   4.298  18.846  0.00  0.00    +0.000 A 
ATOM     12  C   UNL     1       1.901   4.297  18.684  0.00  0.00    +0.000 A 
ATOM     13  C   UNL     1       1.214   3.106  18.430  0.00  0.00    +0.000 A 
ATOM     14  C   UNL     1       1.913   1.903  18.339  0.00  0.00    +0.000 A 
ATOM     15  C   UNL     1       3.297   1.903  18.499  0.00  0.00    +0.000 A 
ATOM     16  C   UNL     1       3.988   3.083  18.751  0.00  0.00    +0.000 A 
BRANCH  15  17
ATOM     17  O   UNL     1       4.016   0.745  18.420  0.00  0.00    +0.000 OA
ATOM     18  H   UNL     1       3.605   0.176  17.750  0.00  0.00    +0.000 HD
ENDBRANCH  15  17
ENDBRANCH  10  11
ENDBRANCH   9  10
ENDBRANCH   7   9
ENDBRANCH   1   7
BRANCH   5  19
ATOM     19  C   UNL     1       7.657   8.752  17.786  0.00  0.00    +0.000 C 
BRANCH  19  20
ATOM     20  C   UNL     1       8.881   8.937  18.702  0.00  0.00    +0.000 C 
BRANCH  20  21
ATOM     21  C   UNL     1       9.162  10.387  19.003  0.00  0.00    +0.000 A 
ATOM     22  C   UNL     1       9.376  10.803  20.325  0.00  0.00    +0.000 A 
ATOM     23  C   UNL     1       9.663  12.140  20.605  0.00  0.00    +0.000 A 
ATOM     24  C   UNL     1       9.731  13.064  19.567  0.00  0.00    +0.000 A 
ATOM     25 CL   UNL     1      10.093  14.711  19.910  0.00  0.00    +0.000 Cl
ATOM     26  C   UNL     1       9.509  12.663  18.249  0.00  0.00    +0.000 A 
ATOM     27  C   UNL     1       9.223  11.328  17.968  0.00  0.00    +0.000 A 
ENDBRANCH  20  21
ENDBRANCH  19  20
ENDBRANCH   5  19
TORSDOF 8
ENDMDL
MODEL 4
REMARK VINA RESULT:      -7.4      1.084      1.359
REMARK  Name = 
REMARK  9 active torsions:
REMARK  status: ('A' for Active; 'I' for Inactive)
REMARK    1  A    between atoms: C_1  and  N_2
REMARK    2  A    between atoms: N_2  and  C_3
REMARK    3  A    between atoms: N_2  and  C_11
REMARK    4  A    between atoms: C_3  and  C_4
REMARK    5  A    between atoms: C_8  and  O_9
REMARK    6  A    between atoms: C_11  and  C_12
REMARK    7  A    between atoms: N_16  and  C_17
REMARK    8  A    between atoms: C_17  and  C_18
REMARK    9  A    between atoms: C_18  and  C_19
REMARK                            x       y       z     vdW  Elec       q    Type
REMARK                         _______ _______ _______ _____ _____    ______ ____
ROOT
ATOM      1  C   UNL     1       6.915   5.920  16.764  0.00  0.00    +0.000 C 
ATOM      2  C   UNL     1       7.670   5.057  17.789  0.00  0.00    +0.000 C 
ATOM      3  C   UNL     1       7.794   5.762  19.139  0.00  0.00    +0.000 C 
ATOM      4  C   UNL     1       8.370   7.174  18.994  0.00  0.00    +0.000 C 
ATOM      5  N   UNL     1       7.639   7.975  17.999  0.00  0.00    +0.000 NA
ATOM      6  C   UNL     1       7.598   7.294  16.696  0.00  0.00    +0.000 C 
ENDROOT
BRANCH   1   7
ATOM      7  C   UNL     1       5.397   6.002  17.092  0.00  0.00    +0.000 C 
BRANCH   7   9
ATOM      8  C   UNL     1       5.096   3.985  15.737  0.00  0.00    +0.000 C 
ATOM      9  N   UNL     1       4.603   4.771  16.871  0.00  0.00    +0.000 NA
BRANCH   9  10
ATOM     10  C   UNL     1       4.599   3.907  18.074  0.00  0.00    +0.000 C 
BRANCH  10  11
ATOM     11  C   UNL     1       3.282   3.837  18.818  0.00  0.00    +0.000 A 
ATOM     12  C   UNL     1       3.105   4.547  20.017  0.00  0.00    +0.000 A 
ATOM     13  C   UNL     1       1.904   4.460  20.726  0.00  0.00    +0.000 A 
ATOM     14  C   UNL     1       0.867   3.661  20.247  0.00  0.00    +0.000 A 
ATOM     15  C   UNL     1       1.040   2.957  19.058  0.00  0.00    +0.000 A 
ATOM     16  C   UNL     1       2.231   3.038  18.346  0.00  0.00    +0.000 A 
BRANCH  15  17
ATOM     17  O   UNL     1       0.049   2.161  18.559  0.00  0.00    +0.000 OA
ATOM     18  H   UNL     1       0.356   1.242  18.580  0.00  0.00    +0.000 HD
ENDBRANCH  15  17
ENDBRANCH  10  11
ENDBRANCH   9  10
ENDBRANCH   7   9
ENDBRANCH   1   7
BRANCH   5  19
ATOM     19  C   UNL     1       8.224   9.328  17.896  0.00  0.00    +0.000 C 
BRANCH  19  20
ATOM     20  C   UNL     1       9.172   9.676  19.058  0.00  0.00    +0.000 C 
BRANCH  20  21
ATOM     21  C   UNL     1       9.530  11.140  19.092  0.00  0.00    +0.000 A 
ATOM     22  C   UNL     1       9.107  11.992  18.063  0.00  0.00    +0.000 A 
ATOM     23  C   UNL     1       9.414  13.354  18.104  0.00  0.00    +0.000 A 
ATOM     24  C   UNL     1      10.148  13.863  19.170  0.00  0.00    +0.000 A 
ATOM     25 CL   UNL     1      10.520  15.543  19.227  0.00  0.00    +0.000 Cl
ATOM     26  C   UNL     1      10.584  13.022  20.195  0.00  0.00    +0.000 A 
ATOM     27  C   UNL     1      10.277  11.663  20.155  0.00  0.00    +0.000 A 
ENDBRANCH  20  21
ENDBRANCH  19  20
ENDBRANCH   5  19
TORSDOF 8
ENDMDL
MODEL 5
REMARK VINA RESULT:      -7.4      4.095      7.487
REMARK  Name = 
REMARK  9 active torsions:
REMARK  status: ('A' for Active; 'I' for Inactive)
REMARK    1  A    between atoms: C_1  and  N_2
REMARK    2  A    between atoms: N_2  and  C_3
REMARK    3  A    between atoms: N_2  and  C_11
REMARK    4  A    between atoms: C_3  and  C_4
REMARK    5  A    between atoms: C_8  and  O_9
REMARK    6  A    between atoms: C_11  and  C_12
REMARK    7  A    between atoms: N_16  and  C_17
REMARK    8  A    between atoms: C_17  and  C_18
REMARK    9  A    between atoms: C_18  and  C_19
REMARK                            x       y       z     vdW  Elec       q    Type
REMARK                         _______ _______ _______ _____ _____    ______ ____
ROOT
ATOM      1  C   UNL     1       4.190   3.232  18.130  0.00  0.00    +0.000 C 
ATOM      2  C   UNL     1       3.643   1.795  18.158  0.00  0.00    +0.000 C 
ATOM      3  C   UNL     1       2.116   1.771  18.097  0.00  0.00    +0.000 C 
ATOM      4  C   UNL     1       1.488   2.680  19.157  0.00  0.00    +0.000 C 
ATOM      5  N   UNL     1       2.037   4.045  19.118  0.00  0.00    +0.000 NA
ATOM      6  C   UNL     1       3.502   4.032  19.247  0.00  0.00    +0.000 C 
ENDROOT
BRANCH   1   7
ATOM      7  C   UNL     1       4.032   3.877  16.723  0.00  0.00    +0.000 C 
BRANCH   7   9
ATOM      8  C   UNL     1       5.335   4.158  14.670  0.00  0.00    +0.000 C 
ATOM      9  N   UNL     1       5.258   4.434  16.107  0.00  0.00    +0.000 NA
BRANCH   9  10
ATOM     10  C   UNL     1       5.347   5.898  16.309  0.00  0.00    +0.000 C 
BRANCH  10  11
ATOM     11  C   UNL     1       6.453   6.360  17.234  0.00  0.00    +0.000 A 
ATOM     12  C   UNL     1       6.975   5.488  18.205  0.00  0.00    +0.000 A 
ATOM     13  C   UNL     1       7.973   5.918  19.085  0.00  0.00    +0.000 A 
ATOM     14  C   UNL     1       8.458   7.223  19.007  0.00  0.00    +0.000 A 
ATOM     15  C   UNL     1       7.942   8.087  18.044  0.00  0.00    +0.000 A 
ATOM     16  C   UNL     1       6.951   7.668  17.165  0.00  0.00    +0.000 A 
BRANCH  15  17
ATOM     17  O   UNL     1       8.390   9.373  17.939  0.00  0.00    +0.000 OA
ATOM     18  H   UNL     1       7.951   9.906  18.620  0.00  0.00    +0.000 HD
ENDBRANCH  15  17
ENDBRANCH  10  11
ENDBRANCH   9  10
ENDBRANCH   7   9
ENDBRANCH   1   7
BRANCH   5  19
ATOM     19  C   UNL     1       1.400   4.887  20.152  0.00  0.00    +0.000 C 
BRANCH  19  20
ATOM     20  C   UNL     1       2.299   6.033  20.649  0.00  0.00    +0.000 C 
BRANCH  20  21
ATOM     21  C   UNL     1       1.855   7.379  20.137  0.00  0.00    +0.000 A 
ATOM     22  C   UNL     1       1.108   8.234  20.961  0.00  0.00    +0.000 A 
ATOM     23  C   UNL     1       0.717   9.493  20.501  0.00  0.00    +0.000 A 
ATOM     24  C   UNL     1       1.065   9.896  19.216  0.00  0.00    +0.000 A 
ATOM     25 CL   UNL     1       0.591  11.450  18.649  0.00  0.00    +0.000 Cl
ATOM     26  C   UNL     1       1.798   9.050  18.383  0.00  0.00    +0.000 A 
ATOM     27  C   UNL     1       2.190   7.793  18.842  0.00  0.00    +0.000 A 
ENDBRANCH  20  21
ENDBRANCH  19  20
ENDBRANCH   5  19
TORSDOF 8
ENDMDL
MODEL 6
REMARK VINA RESULT:      -7.3      4.414      7.479
REMARK  Name = 
REMARK  9 active torsions:
REMARK  status: ('A' for Active; 'I' for Inactive)
REMARK    1  A    between atoms: C_1  and  N_2
REMARK    2  A    between atoms: N_2  and  C_3
REMARK    3  A    between atoms: N_2  and  C_11
REMARK    4  A    between atoms: C_3  and  C_4
REMARK    5  A    between atoms: C_8  and  O_9
REMARK    6  A    between atoms: C_11  and  C_12
REMARK    7  A    between atoms: N_16  and  C_17
REMARK    8  A    between atoms: C_17  and  C_18
REMARK    9  A    between atoms: C_18  and  C_19
REMARK                            x       y       z     vdW  Elec       q    Type
REMARK                         _______ _______ _______ _____ _____    ______ ____
ROOT
ATOM      1  C   UNL     1       3.940   3.272  18.138  0.00  0.00    +0.000 C 
ATOM      2  C   UNL     1       2.627   2.497  18.334  0.00  0.00    +0.000 C 
ATOM      3  C   UNL     1       1.407   3.403  18.173  0.00  0.00    +0.000 C 
ATOM      4  C   UNL     1       1.508   4.656  19.049  0.00  0.00    +0.000 C 
ATOM      5  N   UNL     1       2.778   5.373  18.853  0.00  0.00    +0.000 NA
ATOM      6  C   UNL     1       3.929   4.485  19.080  0.00  0.00    +0.000 C 
ENDROOT
BRANCH   1   7
ATOM      7  C   UNL     1       4.163   3.653  16.646  0.00  0.00    +0.000 C 
BRANCH   7   9
ATOM      8  C   UNL     1       5.961   3.582  14.986  0.00  0.00    +0.000 C 
ATOM      9  N   UNL     1       5.519   4.120  16.276  0.00  0.00    +0.000 NA
BRANCH   9  10
ATOM     10  C   UNL     1       5.583   5.598  16.214  0.00  0.00    +0.000 C 
BRANCH  10  11
ATOM     11  C   UNL     1       6.563   6.245  17.171  0.00  0.00    +0.000 A 
ATOM     12  C   UNL     1       6.983   7.570  16.967  0.00  0.00    +0.000 A 
ATOM     13  C   UNL     1       7.912   8.163  17.827  0.00  0.00    +0.000 A 
ATOM     14  C   UNL     1       8.434   7.439  18.898  0.00  0.00    +0.000 A 
ATOM     15  C   UNL     1       8.017   6.125  19.102  0.00  0.00    +0.000 A 
ATOM     16  C   UNL     1       7.093   5.528  18.252  0.00  0.00    +0.000 A 
BRANCH  15  17
ATOM     17  O   UNL     1       8.507   5.383  20.137  0.00  0.00    +0.000 OA
ATOM     18  H   UNL     1       7.944   5.533  20.913  0.00  0.00    +0.000 HD
ENDBRANCH  15  17
ENDBRANCH  10  11
ENDBRANCH   9  10
ENDBRANCH   7   9
ENDBRANCH   1   7
BRANCH   5  19
ATOM     19  C   UNL     1       2.830   6.574  19.710  0.00  0.00    +0.000 C 
BRANCH  19  20
ATOM     20  C   UNL     1       1.625   6.701  20.661  0.00  0.00    +0.000 C 
BRANCH  20  21
ATOM     21  C   UNL     1       1.122   8.118  20.769  0.00  0.00    +0.000 A 
ATOM     22  C   UNL     1       1.286   9.007  19.697  0.00  0.00    +0.000 A 
ATOM     23  C   UNL     1       0.797  10.312  19.783  0.00  0.00    +0.000 A 
ATOM     24  C   UNL     1       0.150  10.732  20.940  0.00  0.00    +0.000 A 
ATOM     25 CL   UNL     1      -0.460  12.337  21.045  0.00  0.00    +0.000 Cl
ATOM     26  C   UNL     1      -0.009   9.859  22.017  0.00  0.00    +0.000 A 
ATOM     27  C   UNL     1       0.477   8.556  21.932  0.00  0.00    +0.000 A 
ENDBRANCH  20  21
ENDBRANCH  19  20
ENDBRANCH   5  19
TORSDOF 8
ENDMDL
MODEL 7
REMARK VINA RESULT:      -7.3      4.433      5.683
REMARK  Name = 
REMARK  9 active torsions:
REMARK  status: ('A' for Active; 'I' for Inactive)
REMARK    1  A    between atoms: C_1  and  N_2
REMARK    2  A    between atoms: N_2  and  C_3
REMARK    3  A    between atoms: N_2  and  C_11
REMARK    4  A    between atoms: C_3  and  C_4
REMARK    5  A    between atoms: C_8  and  O_9
REMARK    6  A    between atoms: C_11  and  C_12
REMARK    7  A    between atoms: N_16  and  C_17
REMARK    8  A    between atoms: C_17  and  C_18
REMARK    9  A    between atoms: C_18  and  C_19
REMARK                            x       y       z     vdW  Elec       q    Type
REMARK                         _______ _______ _______ _____ _____    ______ ____
ROOT
ATOM      1  C   UNL     1       7.192   5.940  17.029  0.00  0.00    +0.000 C 
ATOM      2  C   UNL     1       7.625   5.763  18.495  0.00  0.00    +0.000 C 
ATOM      3  C   UNL     1       6.473   5.271  19.369  0.00  0.00    +0.000 C 
ATOM      4  C   UNL     1       5.222   6.140  19.206  0.00  0.00    +0.000 C 
ATOM      5  N   UNL     1       4.836   6.305  17.796  0.00  0.00    +0.000 NA
ATOM      6  C   UNL     1       5.950   6.843  16.999  0.00  0.00    +0.000 C 
ENDROOT
BRANCH   1   7
ATOM      7  C   UNL     1       6.975   4.569  16.327  0.00  0.00    +0.000 C 
BRANCH   7   9
ATOM      8  C   UNL     1       5.575   4.271  14.342  0.00  0.00    +0.000 C 
ATOM      9  N   UNL     1       5.616   4.298  15.806  0.00  0.00    +0.000 NA
BRANCH   9  10
ATOM     10  C   UNL     1       5.090   3.010  16.314  0.00  0.00    +0.000 C 
BRANCH  10  11
ATOM     11  C   UNL     1       3.957   3.121  17.312  0.00  0.00    +0.000 A 
ATOM     12  C   UNL     1       2.701   3.606  16.909  0.00  0.00    +0.000 A 
ATOM     13  C   UNL     1       1.660   3.742  17.833  0.00  0.00    +0.000 A 
ATOM     14  C   UNL     1       1.862   3.398  19.169  0.00  0.00    +0.000 A 
ATOM     15  C   UNL     1       3.106   2.915  19.569  0.00  0.00    +0.000 A 
ATOM     16  C   UNL     1       4.147   2.776  18.658  0.00  0.00    +0.000 A 
BRANCH  15  17
ATOM     17  O   UNL     1       3.343   2.571  20.868  0.00  0.00    +0.000 OA
ATOM     18  H   UNL     1       2.843   3.174  21.440  0.00  0.00    +0.000 HD
ENDBRANCH  15  17
ENDBRANCH  10  11
ENDBRANCH   9  10
ENDBRANCH   7   9
ENDBRANCH   1   7
BRANCH   5  19
ATOM     19  C   UNL     1       3.625   7.144  17.687  0.00  0.00    +0.000 C 
BRANCH  19  20
ATOM     20  C   UNL     1       2.632   6.940  18.845  0.00  0.00    +0.000 C 
BRANCH  20  21
ATOM     21  C   UNL     1       1.864   8.194  19.175  0.00  0.00    +0.000 A 
ATOM     22  C   UNL     1       1.575   9.127  18.170  0.00  0.00    +0.000 A 
ATOM     23  C   UNL     1       0.840  10.278  18.465  0.00  0.00    +0.000 A 
ATOM     24  C   UNL     1       0.400  10.499  19.766  0.00  0.00    +0.000 A 
ATOM     25 CL   UNL     1      -0.513  11.912  20.131  0.00  0.00    +0.000 Cl
ATOM     26  C   UNL     1       0.691   9.583  20.777  0.00  0.00    +0.000 A 
ATOM     27  C   UNL     1       1.422   8.434  20.482  0.00  0.00    +0.000 A 
ENDBRANCH  20  21
ENDBRANCH  19  20
ENDBRANCH   5  19
TORSDOF 8
ENDMDL
MODEL 8
REMARK VINA RESULT:      -7.3      1.104      1.277
REMARK  Name = 
REMARK  9 active torsions:
REMARK  status: ('A' for Active; 'I' for Inactive)
REMARK    1  A    between atoms: C_1  and  N_2
REMARK    2  A    between atoms: N_2  and  C_3
REMARK    3  A    between atoms: N_2  and  C_11
REMARK    4  A    between atoms: C_3  and  C_4
REMARK    5  A    between atoms: C_8  and  O_9
REMARK    6  A    between atoms: C_11  and  C_12
REMARK    7  A    between atoms: N_16  and  C_17
REMARK    8  A    between atoms: C_17  and  C_18
REMARK    9  A    between atoms: C_18  and  C_19
REMARK                            x       y       z     vdW  Elec       q    Type
REMARK                         _______ _______ _______ _____ _____    ______ ____
ROOT
ATOM      1  C   UNL     1       6.943   5.444  17.022  0.00  0.00    +0.000 C 
ATOM      2  C   UNL     1       7.825   4.805  18.107  0.00  0.00    +0.000 C 
ATOM      3  C   UNL     1       7.937   5.697  19.342  0.00  0.00    +0.000 C 
ATOM      4  C   UNL     1       8.362   7.123  18.978  0.00  0.00    +0.000 C 
ATOM      5  N   UNL     1       7.512   7.708  17.930  0.00  0.00    +0.000 NA
ATOM      6  C   UNL     1       7.481   6.854  16.732  0.00  0.00    +0.000 C 
ENDROOT
BRANCH   1   7
ATOM      7  C   UNL     1       5.440   5.429  17.422  0.00  0.00    +0.000 C 
BRANCH   7   9
ATOM      8  C   UNL     1       5.169   4.401  15.217  0.00  0.00    +0.000 C 
ATOM      9  N   UNL     1       4.500   4.827  16.449  0.00  0.00    +0.000 NA
BRANCH   9  10
ATOM     10  C   UNL     1       3.796   3.660  17.028  0.00  0.00    +0.000 C 
BRANCH  10  11
ATOM     11  C   UNL     1       2.851   3.972  18.169  0.00  0.00    +0.000 A 
ATOM     12  C   UNL     1       3.020   5.141  18.930  0.00  0.00    +0.000 A 
ATOM     13  C   UNL     1       2.171   5.419  20.006  0.00  0.00    +0.000 A 
ATOM     14  C   UNL     1       1.146   4.533  20.334  0.00  0.00    +0.000 A 
ATOM     15  C   UNL     1       0.977   3.375  19.578  0.00  0.00    +0.000 A 
ATOM     16  C   UNL     1       1.815   3.090  18.507  0.00  0.00    +0.000 A 
BRANCH  15  17
ATOM     17  O   UNL     1      -0.014   2.482  19.871  0.00  0.00    +0.000 OA
ATOM     18  H   UNL     1      -0.802   2.722  19.359  0.00  0.00    +0.000 HD
ENDBRANCH  15  17
ENDBRANCH  10  11
ENDBRANCH   9  10
ENDBRANCH   7   9
ENDBRANCH   1   7
BRANCH   5  19
ATOM     19  C   UNL     1       7.953   9.082  17.615  0.00  0.00    +0.000 C 
BRANCH  19  20
ATOM     20  C   UNL     1       8.867   9.695  18.692  0.00  0.00    +0.000 C 
BRANCH  20  21
ATOM     21  C   UNL     1       9.498  10.989  18.247  0.00  0.00    +0.000 A 
ATOM     22  C   UNL     1       8.691  12.077  17.885  0.00  0.00    +0.000 A 
ATOM     23  C   UNL     1       9.272  13.287  17.497  0.00  0.00    +0.000 A 
ATOM     24  C   UNL     1      10.657  13.407  17.464  0.00  0.00    +0.000 A 
ATOM     25 CL   UNL     1      11.375  14.900  16.994  0.00  0.00    +0.000 Cl
ATOM     26  C   UNL     1      11.470  12.327  17.811  0.00  0.00    +0.000 A 
ATOM     27  C   UNL     1      10.891  11.121  18.200  0.00  0.00    +0.000 A 
ENDBRANCH  20  21
ENDBRANCH  19  20
ENDBRANCH   5  19
TORSDOF 8
ENDMDL
MODEL 9
REMARK VINA RESULT:      -7.2      4.022      7.123
REMARK  Name = 
REMARK  9 active torsions:
REMARK  status: ('A' for Active; 'I' for Inactive)
REMARK    1  A    between atoms: C_1  and  N_2
REMARK    2  A    between atoms: N_2  and  C_3
REMARK    3  A    between atoms: N_2  and  C_11
REMARK    4  A    between atoms: C_3  and  C_4
REMARK    5  A    between atoms: C_8  and  O_9
REMARK    6  A    between atoms: C_11  and  C_12
REMARK    7  A    between atoms: N_16  and  C_17
REMARK    8  A    between atoms: C_17  and  C_18
REMARK    9  A    between atoms: C_18  and  C_19
REMARK                            x       y       z     vdW  Elec       q    Type
REMARK                         _______ _______ _______ _____ _____    ______ ____
ROOT
ATOM      1  C   UNL     1       4.398   3.321  17.779  0.00  0.00    +0.000 C 
ATOM      2  C   UNL     1       3.141   2.436  17.772  0.00  0.00    +0.000 C 
ATOM      3  C   UNL     1       1.862   3.270  17.846  0.00  0.00    +0.000 C 
ATOM      4  C   UNL     1       1.897   4.264  19.011  0.00  0.00    +0.000 C 
ATOM      5  N   UNL     1       3.115   5.090  19.003  0.00  0.00    +0.000 NA
ATOM      6  C   UNL     1       4.325   4.253  18.999  0.00  0.00    +0.000 C 
ENDROOT
BRANCH   1   7
ATOM      7  C   UNL     1       4.572   4.081  16.433  0.00  0.00    +0.000 C 
BRANCH   7   9
ATOM      8  C   UNL     1       6.116   3.497  14.625  0.00  0.00    +0.000 C 
ATOM      9  N   UNL     1       5.951   4.191  15.906  0.00  0.00    +0.000 NA
BRANCH   9  10
ATOM     10  C   UNL     1       6.350   5.606  15.727  0.00  0.00    +0.000 C 
BRANCH  10  11
ATOM     11  C   UNL     1       7.045   6.238  16.914  0.00  0.00    +0.000 A 
ATOM     12  C   UNL     1       7.313   7.618  16.927  0.00  0.00    +0.000 A 
ATOM     13  C   UNL     1       7.984   8.203  18.005  0.00  0.00    +0.000 A 
ATOM     14  C   UNL     1       8.397   7.417  19.080  0.00  0.00    +0.000 A 
ATOM     15  C   UNL     1       8.132   6.050  19.068  0.00  0.00    +0.000 A 
ATOM     16  C   UNL     1       7.464   5.459  18.001  0.00  0.00    +0.000 A 
BRANCH  15  17
ATOM     17  O   UNL     1       8.523   5.247  20.101  0.00  0.00    +0.000 OA
ATOM     18  H   UNL     1       7.737   5.006  20.615  0.00  0.00    +0.000 HD
ENDBRANCH  15  17
ENDBRANCH  10  11
ENDBRANCH   9  10
ENDBRANCH   7   9
ENDBRANCH   1   7
BRANCH   5  19
ATOM     19  C   UNL     1       3.103   6.036  20.137  0.00  0.00    +0.000 C 
BRANCH  19  20
ATOM     20  C   UNL     1       1.701   6.576  20.471  0.00  0.00    +0.000 C 
BRANCH  20  21
ATOM     21  C   UNL     1       1.508   8.001  20.019  0.00  0.00    +0.000 A 
ATOM     22  C   UNL     1       1.862   8.381  18.717  0.00  0.00    +0.000 A 
ATOM     23  C   UNL     1       1.660   9.693  18.285  0.00  0.00    +0.000 A 
ATOM     24  C   UNL     1       1.111  10.629  19.156  0.00  0.00    +0.000 A 
ATOM     25 CL   UNL     1       0.854  12.245  18.624  0.00  0.00    +0.000 Cl
ATOM     26  C   UNL     1       0.765  10.265  20.458  0.00  0.00    +0.000 A 
ATOM     27  C   UNL     1       0.965   8.955  20.889  0.00  0.00    +0.000 A 
ENDBRANCH  20  21
ENDBRANCH  19  20
ENDBRANCH   5  19
TORSDOF 8
ENDMDL
