MODEL 1
REMARK VINA RESULT:      -6.1      0.000      0.000
REMARK  Name = 
REMARK  7 active torsions:
REMARK  status: ('A' for Active; 'I' for Inactive)
REMARK    1  A    between atoms: C_1  and  C_2
REMARK    2  A    between atoms: C_2  and  O_3
REMARK    3  A    between atoms: O_3  and  C_4
REMARK    4  A    between atoms: C_4  and  C_6
REMARK    5  A    between atoms: C_12  and  C_14
REMARK    6  A    between atoms: C_14  and  O_16
REMARK    7  A    between atoms: O_16  and  C_17
REMARK                            x       y       z     vdW  Elec       q    Type
REMARK                         _______ _______ _______ _____ _____    ______ ____
ROOT
ATOM      1  C   UNL     1       3.381   4.776  18.194  0.00  0.00    +0.000 C 
ATOM      2  C   UNL     1       2.127   5.681  18.205  0.00  0.00    +0.000 C 
ATOM      3  C   UNL     1       2.456   7.154  18.437  0.00  0.00    +0.000 C 
ATOM      4  C   UNL     1       3.536   7.632  17.473  0.00  0.00    +0.000 C 
ATOM      5  C   UNL     1       4.755   6.720  17.518  0.00  0.00    +0.000 C 
ATOM      6  N   UNL     1       4.375   5.329  17.251  0.00  0.00    +0.000 N 
ATOM      7  C   UNL     1       5.227   4.456  16.561  0.00  0.00    +0.000 C 
ATOM      8  O   UNL     1       5.034   3.252  16.428  0.00  0.00    +0.000 OA
ENDROOT
BRANCH   1   9
ATOM      9  C   UNL     1       2.866   3.327  18.010  0.00  0.00    +0.000 C 
ATOM     10  O   UNL     1       2.074   2.959  17.156  0.00  0.00    +0.000 OA
BRANCH   9  11
ATOM     11  O   UNL     1       3.371   2.541  19.015  0.00  0.00    +0.000 OA
BRANCH  11  13
ATOM     12  C   UNL     1       1.581   2.674  20.673  0.00  0.00    +0.000 C 
ATOM     13  C   UNL     1       3.041   2.920  20.356  0.00  0.00    +0.000 C 
ENDBRANCH  11  13
ENDBRANCH   9  11
ENDBRANCH   1   9
BRANCH   7  14
ATOM     14  C   UNL     1       6.494   5.041  15.920  0.00  0.00    +0.000 C 
ATOM     15  O   UNL     1       6.452   5.868  15.029  0.00  0.00    +0.000 OA
BRANCH  14  16
ATOM     16  O   UNL     1       7.592   4.489  16.483  0.00  0.00    +0.000 OA
ATOM     17  C   UNL     1       7.705   4.742  17.883  0.00  0.00    +0.000 C 
ENDBRANCH  14  16
ENDBRANCH   7  14
TORSDOF 5
ENDMDL
MODEL 2
REMARK VINA RESULT:      -6.1      1.394      4.846
REMARK  Name = 
REMARK  7 active torsions:
REMARK  status: ('A' for Active; 'I' for Inactive)
REMARK    1  A    between atoms: C_1  and  C_2
REMARK    2  A    between atoms: C_2  and  O_3
REMARK    3  A    between atoms: O_3  and  C_4
REMARK    4  A    between atoms: C_4  and  C_6
REMARK    5  A    between atoms: C_12  and  C_14
REMARK    6  A    between atoms: C_14  and  O_16
REMARK    7  A    between atoms: O_16  and  C_17
REMARK                            x       y       z     vdW  Elec       q    Type
REMARK                         _______ _______ _______ _____ _____    ______ ____
ROOT
ATOM      1  C   UNL     1       5.013   5.210  17.748  0.00  0.00    +0.000 C 
ATOM      2  C   UNL     1       4.929   6.754  17.787  0.00  0.00    +0.000 C 
ATOM      3  C   UNL     1       3.528   7.282  17.488  0.00  0.00    +0.000 C 
ATOM      4  C   UNL     1       2.486   6.600  18.366  0.00  0.00    +0.000 C 
ATOM      5  C   UNL     1       2.597   5.084  18.273  0.00  0.00    +0.000 C 
ATOM      6  N   UNL     1       3.954   4.640  18.609  0.00  0.00    +0.000 N 
ATOM      7  C   UNL     1       4.187   3.428  19.271  0.00  0.00    +0.000 C 
ATOM      8  O   UNL     1       5.294   2.933  19.455  0.00  0.00    +0.000 OA
ENDROOT
BRANCH   1   9
ATOM      9  C   UNL     1       6.497   4.851  18.011  0.00  0.00    +0.000 C 
ATOM     10  O   UNL     1       7.127   5.136  19.018  0.00  0.00    +0.000 OA
BRANCH   9  11
ATOM     11  O   UNL     1       7.014   4.242  16.896  0.00  0.00    +0.000 OA
BRANCH  11  13
ATOM     12  C   UNL     1       6.557   4.399  14.500  0.00  0.00    +0.000 C 
ATOM     13  C   UNL     1       6.087   3.911  15.855  0.00  0.00    +0.000 C 
ENDBRANCH  11  13
ENDBRANCH   9  11
ENDBRANCH   1   9
BRANCH   7  14
ATOM     14  C   UNL     1       2.973   2.657  19.811  0.00  0.00    +0.000 C 
ATOM     15  O   UNL     1       2.337   1.879  19.126  0.00  0.00    +0.000 OA
BRANCH  14  16
ATOM     16  O   UNL     1       2.749   2.996  21.100  0.00  0.00    +0.000 OA
ATOM     17  C   UNL     1       1.389   2.839  21.503  0.00  0.00    +0.000 C 
ENDBRANCH  14  16
ENDBRANCH   7  14
TORSDOF 5
ENDMDL
MODEL 3
REMARK VINA RESULT:      -6.1      0.604      1.301
REMARK  Name = 
REMARK  7 active torsions:
REMARK  status: ('A' for Active; 'I' for Inactive)
REMARK    1  A    between atoms: C_1  and  C_2
REMARK    2  A    between atoms: C_2  and  O_3
REMARK    3  A    between atoms: O_3  and  C_4
REMARK    4  A    between atoms: C_4  and  C_6
REMARK    5  A    between atoms: C_12  and  C_14
REMARK    6  A    between atoms: C_14  and  O_16
REMARK    7  A    between atoms: O_16  and  C_17
REMARK                            x       y       z     vdW  Elec       q    Type
REMARK                         _______ _______ _______ _____ _____    ______ ____
ROOT
ATOM      1  C   UNL     1       3.391   4.640  18.189  0.00  0.00    +0.000 C 
ATOM      2  C   UNL     1       2.179   5.595  18.077  0.00  0.00    +0.000 C 
ATOM      3  C   UNL     1       2.542   7.053  18.344  0.00  0.00    +0.000 C 
ATOM      4  C   UNL     1       3.730   7.487  17.494  0.00  0.00    +0.000 C 
ATOM      5  C   UNL     1       4.902   6.528  17.659  0.00  0.00    +0.000 C 
ATOM      6  N   UNL     1       4.496   5.153  17.352  0.00  0.00    +0.000 N 
ATOM      7  C   UNL     1       5.377   4.246  16.748  0.00  0.00    +0.000 C 
ATOM      8  O   UNL     1       5.151   3.050  16.593  0.00  0.00    +0.000 OA
ENDROOT
BRANCH   1   9
ATOM      9  C   UNL     1       2.841   3.212  17.951  0.00  0.00    +0.000 C 
ATOM     10  O   UNL     1       2.098   2.882  17.038  0.00  0.00    +0.000 OA
BRANCH   9  11
ATOM     11  O   UNL     1       3.247   2.399  18.978  0.00  0.00    +0.000 OA
BRANCH  11  13
ATOM     12  C   UNL     1       2.196   2.737  21.158  0.00  0.00    +0.000 C 
ATOM     13  C   UNL     1       3.388   3.010  20.266  0.00  0.00    +0.000 C 
ENDBRANCH  11  13
ENDBRANCH   9  11
ENDBRANCH   1   9
BRANCH   7  14
ATOM     14  C   UNL     1       6.724   4.779  16.239  0.00  0.00    +0.000 C 
ATOM     15  O   UNL     1       7.758   4.645  16.866  0.00  0.00    +0.000 OA
BRANCH  14  16
ATOM     16  O   UNL     1       6.555   5.400  15.051  0.00  0.00    +0.000 OA
ATOM     17  C   UNL     1       6.667   4.527  13.928  0.00  0.00    +0.000 C 
ENDBRANCH  14  16
ENDBRANCH   7  14
TORSDOF 5
ENDMDL
MODEL 4
REMARK VINA RESULT:      -6.0      1.312      4.866
REMARK  Name = 
REMARK  7 active torsions:
REMARK  status: ('A' for Active; 'I' for Inactive)
REMARK    1  A    between atoms: C_1  and  C_2
REMARK    2  A    between atoms: C_2  and  O_3
REMARK    3  A    between atoms: O_3  and  C_4
REMARK    4  A    between atoms: C_4  and  C_6
REMARK    5  A    between atoms: C_12  and  C_14
REMARK    6  A    between atoms: C_14  and  O_16
REMARK    7  A    between atoms: O_16  and  C_17
REMARK                            x       y       z     vdW  Elec       q    Type
REMARK                         _______ _______ _______ _____ _____    ______ ____
ROOT
ATOM      1  C   UNL     1       4.339   5.129  16.992  0.00  0.00    +0.000 C 
ATOM      2  C   UNL     1       4.755   6.556  17.420  0.00  0.00    +0.000 C 
ATOM      3  C   UNL     1       3.562   7.480  17.652  0.00  0.00    +0.000 C 
ATOM      4  C   UNL     1       2.547   6.840  18.592  0.00  0.00    +0.000 C 
ATOM      5  C   UNL     1       2.156   5.448  18.113  0.00  0.00    +0.000 C 
ATOM      6  N   UNL     1       3.342   4.602  17.947  0.00  0.00    +0.000 N 
ATOM      7  C   UNL     1       3.303   3.226  18.211  0.00  0.00    +0.000 C 
ATOM      8  O   UNL     1       4.212   2.441  17.961  0.00  0.00    +0.000 OA
ENDROOT
BRANCH   1   9
ATOM      9  C   UNL     1       5.655   4.351  16.744  0.00  0.00    +0.000 C 
ATOM     10  O   UNL     1       6.625   4.342  17.488  0.00  0.00    +0.000 OA
BRANCH   9  11
ATOM     11  O   UNL     1       5.594   3.747  15.514  0.00  0.00    +0.000 OA
BRANCH  11  13
ATOM     12  C   UNL     1       6.146   3.695  13.134  0.00  0.00    +0.000 C 
ATOM     13  C   UNL     1       6.473   4.253  14.503  0.00  0.00    +0.000 C 
ENDBRANCH  11  13
ENDBRANCH   9  11
ENDBRANCH   1   9
BRANCH   7  14
ATOM     14  C   UNL     1       2.037   2.652  18.863  0.00  0.00    +0.000 C 
ATOM     15  O   UNL     1       1.023   2.427  18.230  0.00  0.00    +0.000 OA
BRANCH  14  16
ATOM     16  O   UNL     1       2.241   2.472  20.187  0.00  0.00    +0.000 OA
ATOM     17  C   UNL     1       1.258   3.101  21.007  0.00  0.00    +0.000 C 
ENDBRANCH  14  16
ENDBRANCH   7  14
TORSDOF 5
ENDMDL
MODEL 5
REMARK VINA RESULT:      -6.0      1.432      4.876
REMARK  Name = 
REMARK  7 active torsions:
REMARK  status: ('A' for Active; 'I' for Inactive)
REMARK    1  A    between atoms: C_1  and  C_2
REMARK    2  A    between atoms: C_2  and  O_3
REMARK    3  A    between atoms: O_3  and  C_4
REMARK    4  A    between atoms: C_4  and  C_6
REMARK    5  A    between atoms: C_12  and  C_14
REMARK    6  A    between atoms: C_14  and  O_16
REMARK    7  A    between atoms: O_16  and  C_17
REMARK                            x       y       z     vdW  Elec       q    Type
REMARK                         _______ _______ _______ _____ _____    ______ ____
ROOT
ATOM      1  C   UNL     1       4.915   5.262  17.689  0.00  0.00    +0.000 C 
ATOM      2  C   UNL     1       4.978   6.807  17.669  0.00  0.00    +0.000 C 
ATOM      3  C   UNL     1       3.615   7.457  17.445  0.00  0.00    +0.000 C 
ATOM      4  C   UNL     1       2.579   6.909  18.420  0.00  0.00    +0.000 C 
ATOM      5  C   UNL     1       2.542   5.387  18.384  0.00  0.00    +0.000 C 
ATOM      6  N   UNL     1       3.873   4.828  18.644  0.00  0.00    +0.000 N 
ATOM      7  C   UNL     1       4.039   3.623  19.339  0.00  0.00    +0.000 C 
ATOM      8  O   UNL     1       5.106   3.031  19.467  0.00  0.00    +0.000 OA
ENDROOT
BRANCH   1   9
ATOM      9  C   UNL     1       6.374   4.772  17.865  0.00  0.00    +0.000 C 
ATOM     10  O   UNL     1       7.124   5.091  18.775  0.00  0.00    +0.000 OA
BRANCH   9  11
ATOM     11  O   UNL     1       6.717   3.995  16.788  0.00  0.00    +0.000 OA
BRANCH  11  13
ATOM     12  C   UNL     1       6.159   3.995  14.408  0.00  0.00    +0.000 C 
ATOM     13  C   UNL     1       6.905   4.671  15.539  0.00  0.00    +0.000 C 
ENDBRANCH  11  13
ENDBRANCH   9  11
ENDBRANCH   1   9
BRANCH   7  14
ATOM     14  C   UNL     1       2.801   2.991  19.993  0.00  0.00    +0.000 C 
ATOM     15  O   UNL     1       2.409   3.318  21.098  0.00  0.00    +0.000 OA
BRANCH  14  16
ATOM     16  O   UNL     1       2.274   2.055  19.174  0.00  0.00    +0.000 OA
ATOM     17  C   UNL     1       0.884   2.243  18.911  0.00  0.00    +0.000 C 
ENDBRANCH  14  16
ENDBRANCH   7  14
TORSDOF 5
ENDMDL
MODEL 6
REMARK VINA RESULT:      -5.9      1.281      4.572
REMARK  Name = 
REMARK  7 active torsions:
REMARK  status: ('A' for Active; 'I' for Inactive)
REMARK    1  A    between atoms: C_1  and  C_2
REMARK    2  A    between atoms: C_2  and  O_3
REMARK    3  A    between atoms: O_3  and  C_4
REMARK    4  A    between atoms: C_4  and  C_6
REMARK    5  A    between atoms: C_12  and  C_14
REMARK    6  A    between atoms: C_14  and  O_16
REMARK    7  A    between atoms: O_16  and  C_17
REMARK                            x       y       z     vdW  Elec       q    Type
REMARK                         _______ _______ _______ _____ _____    ______ ____
ROOT
ATOM      1  C   UNL     1       4.180   5.059  17.076  0.00  0.00    +0.000 C 
ATOM      2  C   UNL     1       4.594   6.483  17.516  0.00  0.00    +0.000 C 
ATOM      3  C   UNL     1       3.402   7.416  17.713  0.00  0.00    +0.000 C 
ATOM      4  C   UNL     1       2.357   6.785  18.625  0.00  0.00    +0.000 C 
ATOM      5  C   UNL     1       1.968   5.396  18.135  0.00  0.00    +0.000 C 
ATOM      6  N   UNL     1       3.152   4.540  18.003  0.00  0.00    +0.000 N 
ATOM      7  C   UNL     1       3.096   3.165  18.266  0.00  0.00    +0.000 C 
ATOM      8  O   UNL     1       4.005   2.373  18.041  0.00  0.00    +0.000 OA
ENDROOT
BRANCH   1   9
ATOM      9  C   UNL     1       5.497   4.271  16.865  0.00  0.00    +0.000 C 
ATOM     10  O   UNL     1       5.790   3.634  15.864  0.00  0.00    +0.000 OA
BRANCH   9  11
ATOM     11  O   UNL     1       6.241   4.328  18.016  0.00  0.00    +0.000 OA
BRANCH  11  13
ATOM     12  C   UNL     1       7.946   5.832  18.913  0.00  0.00    +0.000 C 
ATOM     13  C   UNL     1       7.595   4.777  17.885  0.00  0.00    +0.000 C 
ENDBRANCH  11  13
ENDBRANCH   9  11
ENDBRANCH   1   9
BRANCH   7  14
ATOM     14  C   UNL     1       1.808   2.601  18.882  0.00  0.00    +0.000 C 
ATOM     15  O   UNL     1       0.783   2.467  18.241  0.00  0.00    +0.000 OA
BRANCH  14  16
ATOM     16  O   UNL     1       2.008   2.315  20.188  0.00  0.00    +0.000 OA
ATOM     17  C   UNL     1       1.319   3.194  21.077  0.00  0.00    +0.000 C 
ENDBRANCH  14  16
ENDBRANCH   7  14
TORSDOF 5
ENDMDL
MODEL 7
REMARK VINA RESULT:      -5.8      1.169      1.779
REMARK  Name = 
REMARK  7 active torsions:
REMARK  status: ('A' for Active; 'I' for Inactive)
REMARK    1  A    between atoms: C_1  and  C_2
REMARK    2  A    between atoms: C_2  and  O_3
REMARK    3  A    between atoms: O_3  and  C_4
REMARK    4  A    between atoms: C_4  and  C_6
REMARK    5  A    between atoms: C_12  and  C_14
REMARK    6  A    between atoms: C_14  and  O_16
REMARK    7  A    between atoms: O_16  and  C_17
REMARK                            x       y       z     vdW  Elec       q    Type
REMARK                         _______ _______ _______ _____ _____    ______ ____
ROOT
ATOM      1  C   UNL     1       4.028   5.170  18.916  0.00  0.00    +0.000 C 
ATOM      2  C   UNL     1       2.635   5.804  19.144  0.00  0.00    +0.000 C 
ATOM      3  C   UNL     1       2.613   7.306  18.876  0.00  0.00    +0.000 C 
ATOM      4  C   UNL     1       3.204   7.629  17.509  0.00  0.00    +0.000 C 
ATOM      5  C   UNL     1       4.582   7.001  17.346  0.00  0.00    +0.000 C 
ATOM      6  N   UNL     1       4.526   5.555  17.578  0.00  0.00    +0.000 N 
ATOM      7  C   UNL     1       5.346   4.666  16.870  0.00  0.00    +0.000 C 
ATOM      8  O   UNL     1       5.451   3.468  17.113  0.00  0.00    +0.000 OA
ENDROOT
BRANCH   1   9
ATOM      9  C   UNL     1       3.888   3.673  19.286  0.00  0.00    +0.000 C 
ATOM     10  O   UNL     1       4.737   2.999  19.849  0.00  0.00    +0.000 OA
BRANCH   9  11
ATOM     11  O   UNL     1       2.694   3.202  18.799  0.00  0.00    +0.000 OA
BRANCH  11  13
ATOM     12  C   UNL     1       1.313   2.830  20.781  0.00  0.00    +0.000 C 
ATOM     13  C   UNL     1       2.020   2.216  19.591  0.00  0.00    +0.000 C 
ENDBRANCH  11  13
ENDBRANCH   9  11
ENDBRANCH   1   9
BRANCH   7  14
ATOM     14  C   UNL     1       6.174   5.223  15.703  0.00  0.00    +0.000 C 
ATOM     15  O   UNL     1       7.224   5.813  15.871  0.00  0.00    +0.000 OA
BRANCH  14  16
ATOM     16  O   UNL     1       5.550   4.966  14.532  0.00  0.00    +0.000 OA
ATOM     17  C   UNL     1       6.228   4.006  13.722  0.00  0.00    +0.000 C 
ENDBRANCH  14  16
ENDBRANCH   7  14
TORSDOF 5
ENDMDL
MODEL 8
REMARK VINA RESULT:      -5.8      2.265      5.591
REMARK  Name = 
REMARK  7 active torsions:
REMARK  status: ('A' for Active; 'I' for Inactive)
REMARK    1  A    between atoms: C_1  and  C_2
REMARK    2  A    between atoms: C_2  and  O_3
REMARK    3  A    between atoms: O_3  and  C_4
REMARK    4  A    between atoms: C_4  and  C_6
REMARK    5  A    between atoms: C_12  and  C_14
REMARK    6  A    between atoms: C_14  and  O_16
REMARK    7  A    between atoms: O_16  and  C_17
REMARK                            x       y       z     vdW  Elec       q    Type
REMARK                         _______ _______ _______ _____ _____    ______ ____
ROOT
ATOM      1  C   UNL     1       6.974   4.729  17.397  0.00  0.00    +0.000 C 
ATOM      2  C   UNL     1       7.300   5.234  15.972  0.00  0.00    +0.000 C 
ATOM      3  C   UNL     1       6.683   4.367  14.877  0.00  0.00    +0.000 C 
ATOM      4  C   UNL     1       5.192   4.161  15.116  0.00  0.00    +0.000 C 
ATOM      5  C   UNL     1       4.928   3.643  16.524  0.00  0.00    +0.000 C 
ATOM      6  N   UNL     1       5.513   4.540  17.526  0.00  0.00    +0.000 N 
ATOM      7  C   UNL     1       4.901   4.749  18.769  0.00  0.00    +0.000 C 
ATOM      8  O   UNL     1       5.404   5.370  19.700  0.00  0.00    +0.000 OA
ENDROOT
BRANCH   1   9
ATOM      9  C   UNL     1       7.717   5.677  18.372  0.00  0.00    +0.000 C 
ATOM     10  O   UNL     1       8.273   5.337  19.406  0.00  0.00    +0.000 OA
BRANCH   9  11
ATOM     11  O   UNL     1       7.575   6.969  17.935  0.00  0.00    +0.000 OA
BRANCH  11  13
ATOM     12  C   UNL     1       8.225   9.325  17.951  0.00  0.00    +0.000 C 
ATOM     13  C   UNL     1       8.361   7.964  18.601  0.00  0.00    +0.000 C 
ENDBRANCH  11  13
ENDBRANCH   9  11
ENDBRANCH   1   9
BRANCH   7  14
ATOM     14  C   UNL     1       3.498   4.165  18.990  0.00  0.00    +0.000 C 
ATOM     15  O   UNL     1       3.316   3.095  19.539  0.00  0.00    +0.000 OA
BRANCH  14  16
ATOM     16  O   UNL     1       2.566   4.998  18.477  0.00  0.00    +0.000 OA
ATOM     17  C   UNL     1       1.518   4.325  17.781  0.00  0.00    +0.000 C 
ENDBRANCH  14  16
ENDBRANCH   7  14
TORSDOF 5
ENDMDL
MODEL 9
REMARK VINA RESULT:      -5.8      2.423      4.996
REMARK  Name = 
REMARK  7 active torsions:
REMARK  status: ('A' for Active; 'I' for Inactive)
REMARK    1  A    between atoms: C_1  and  C_2
REMARK    2  A    between atoms: C_2  and  O_3
REMARK    3  A    between atoms: O_3  and  C_4
REMARK    4  A    between atoms: C_4  and  C_6
REMARK    5  A    between atoms: C_12  and  C_14
REMARK    6  A    between atoms: C_14  and  O_16
REMARK    7  A    between atoms: O_16  and  C_17
REMARK                            x       y       z     vdW  Elec       q    Type
REMARK                         _______ _______ _______ _____ _____    ______ ____
ROOT
ATOM      1  C   UNL     1       4.091   3.751  18.662  0.00  0.00    +0.000 C 
ATOM      2  C   UNL     1       3.505   2.460  18.044  0.00  0.00    +0.000 C 
ATOM      3  C   UNL     1       2.178   2.046  18.676  0.00  0.00    +0.000 C 
ATOM      4  C   UNL     1       1.192   3.208  18.690  0.00  0.00    +0.000 C 
ATOM      5  C   UNL     1       1.810   4.445  19.327  0.00  0.00    +0.000 C 
ATOM      6  N   UNL     1       3.059   4.810  18.651  0.00  0.00    +0.000 N 
ATOM      7  C   UNL     1       3.450   6.148  18.504  0.00  0.00    +0.000 C 
ATOM      8  O   UNL     1       4.540   6.515  18.079  0.00  0.00    +0.000 OA
ENDROOT
BRANCH   1   9
ATOM      9  C   UNL     1       5.449   3.991  17.956  0.00  0.00    +0.000 C 
ATOM     10  O   UNL     1       6.483   4.335  18.508  0.00  0.00    +0.000 OA
BRANCH   9  11
ATOM     11  O   UNL     1       5.282   3.842  16.603  0.00  0.00    +0.000 OA
BRANCH  11  13
ATOM     12  C   UNL     1       6.076   4.058  14.301  0.00  0.00    +0.000 C 
ATOM     13  C   UNL     1       6.404   4.171  15.776  0.00  0.00    +0.000 C 
ENDBRANCH  11  13
ENDBRANCH   9  11
ENDBRANCH   1   9
BRANCH   7  14
ATOM     14  C   UNL     1       2.445   7.240  18.900  0.00  0.00    +0.000 C 
ATOM     15  O   UNL     1       2.175   7.487  20.060  0.00  0.00    +0.000 OA
BRANCH  14  16
ATOM     16  O   UNL     1       1.938   7.823  17.792  0.00  0.00    +0.000 OA
ATOM     17  C   UNL     1       1.919   9.249  17.854  0.00  0.00    +0.000 C 
ENDBRANCH  14  16
ENDBRANCH   7  14
TORSDOF 5
ENDMDL
