MODEL 1
REMARK VINA RESULT:      -7.8      0.000      0.000
REMARK  Name = 
REMARK  6 active torsions:
REMARK  status: ('A' for Active; 'I' for Inactive)
REMARK    1  A    between atoms: C_2  and  C_3
REMARK    2  A    between atoms: N_5  and  C_6
REMARK    3  A    between atoms: C_6  and  C_7
REMARK    4  A    between atoms: C_14  and  N_15
REMARK    5  A    between atoms: C_17  and  C_18
REMARK    6  A    between atoms: N_22  and  C_23
REMARK                            x       y       z     vdW  Elec       q    Type
REMARK                         _______ _______ _______ _____ _____    ______ ____
ROOT
ATOM      1  N   UNL     1      -0.075  10.265  19.257  0.00  0.00    +0.000 N 
ATOM      2  C   UNL     1      -0.308  10.586  20.565  0.00  0.00    +0.000 A 
ATOM      3  C   UNL     1       0.408   9.680  21.331  0.00  0.00    +0.000 A 
ATOM      4  C   UNL     1       1.079   8.861  20.380  0.00  0.00    +0.000 A 
ATOM      5  N   UNL     1       1.826   7.779  20.737  0.00  0.00    +0.000 N 
ATOM      6  N   UNL     1       0.803   9.259  19.135  0.00  0.00    +0.000 NA
ATOM      7  H   UNL     1       2.018   7.660  21.730  0.00  0.00    +0.000 HD
ENDROOT
BRANCH   5   8
ATOM      8  C   UNL     1       2.172   6.642  19.968  0.00  0.00    +0.000 A 
ATOM      9  C   UNL     1       2.877   6.725  18.757  0.00  0.00    +0.000 A 
ATOM     10  C   UNL     1       3.074   5.604  17.948  0.00  0.00    +0.000 A 
ATOM     11  C   UNL     1       2.567   4.378  18.351  0.00  0.00    +0.000 A 
ATOM     12  F   UNL     1       2.729   3.307  17.563  0.00  0.00    +0.000 F 
ATOM     13  C   UNL     1       1.889   4.253  19.555  0.00  0.00    +0.000 A 
ATOM     14  C   UNL     1       1.695   5.380  20.361  0.00  0.00    +0.000 A 
ENDBRANCH   5   8
BRANCH   1  20
ATOM     15  C   UNL     1      -2.050  10.228  17.701  0.00  0.00    +0.000 C 
ATOM     16  C   UNL     1      -3.068  10.632  18.797  0.00  0.00    +0.000 C 
ATOM     17  N   UNL     1      -3.172  12.099  18.996  0.00  0.00    +0.000 NA
ATOM     18  C   UNL     1      -1.876  12.759  19.200  0.00  0.00    +0.000 C 
ATOM     19  C   UNL     1      -0.824  12.377  18.157  0.00  0.00    +0.000 C 
ATOM     20  C   UNL     1      -0.671  10.849  18.043  0.00  0.00    +0.000 C 
BRANCH  15  22
ATOM     21  N   UNL     1      -3.034  11.211  15.293  0.00  0.00    +0.000 NA
ATOM     22  C   UNL     1      -2.588  10.765  16.385  0.00  0.00    +0.000 C 
ENDBRANCH  15  22
BRANCH  17  23
ATOM     23  C   UNL     1      -4.050  12.425  20.147  0.00  0.00    +0.000 C 
BRANCH  23  24
ATOM     24  C   UNL     1      -5.486  12.178  19.841  0.00  0.00    +0.000 A 
ATOM     25  C   UNL     1      -6.212  12.506  18.718  0.00  0.00    +0.000 A 
ATOM     26  O   UNL     1      -7.491  12.077  18.900  0.00  0.00    +0.000 OA
ATOM     27  C   UNL     1      -7.469  11.504  20.134  0.00  0.00    +0.000 A 
ATOM     28  N   UNL     1      -6.307  11.536  20.744  0.00  0.00    +0.000 NA
ENDBRANCH  23  24
ENDBRANCH  17  23
ENDBRANCH   1  20
BRANCH   3  29
ATOM     29  C   UNL     1       0.437   9.582  22.775  0.00  0.00    +0.000 C 
ATOM     30  N   UNL     1      -0.783   9.509  23.390  0.00  0.00    +0.000 N 
ATOM     31  O   UNL     1       1.475   9.509  23.426  0.00  0.00    +0.000 OA
ATOM     32  H   UNL     1      -1.607   9.245  22.870  0.00  0.00    +0.000 HD
ATOM     33  H   UNL     1      -0.775   9.319  24.383  0.00  0.00    +0.000 HD
ENDBRANCH   3  29
TORSDOF 6
ENDMDL
MODEL 2
REMARK VINA RESULT:      -7.6      4.779      7.883
REMARK  Name = 
REMARK  6 active torsions:
REMARK  status: ('A' for Active; 'I' for Inactive)
REMARK    1  A    between atoms: C_2  and  C_3
REMARK    2  A    between atoms: N_5  and  C_6
REMARK    3  A    between atoms: C_6  and  C_7
REMARK    4  A    between atoms: C_14  and  N_15
REMARK    5  A    between atoms: C_17  and  C_18
REMARK    6  A    between atoms: N_22  and  C_23
REMARK                            x       y       z     vdW  Elec       q    Type
REMARK                         _______ _______ _______ _____ _____    ______ ____
ROOT
ATOM      1  N   UNL     1       4.583   5.066  18.344  0.00  0.00    +0.000 N 
ATOM      2  C   UNL     1       5.530   5.482  19.236  0.00  0.00    +0.000 A 
ATOM      3  C   UNL     1       6.670   5.771  18.502  0.00  0.00    +0.000 A 
ATOM      4  C   UNL     1       6.295   5.527  17.151  0.00  0.00    +0.000 A 
ATOM      5  N   UNL     1       7.177   5.610  16.116  0.00  0.00    +0.000 N 
ATOM      6  N   UNL     1       5.018   5.141  17.078  0.00  0.00    +0.000 NA
ATOM      7  H   UNL     1       8.091   6.007  16.322  0.00  0.00    +0.000 HD
ENDROOT
BRANCH   5   8
ATOM      8  C   UNL     1       7.115   4.998  14.841  0.00  0.00    +0.000 A 
ATOM      9  C   UNL     1       7.848   5.459  13.736  0.00  0.00    +0.000 A 
ATOM     10  C   UNL     1       7.653   4.930  12.458  0.00  0.00    +0.000 A 
ATOM     11  C   UNL     1       6.721   3.920  12.276  0.00  0.00    +0.000 A 
ATOM     12  F   UNL     1       6.512   3.430  11.048  0.00  0.00    +0.000 F 
ATOM     13  C   UNL     1       6.000   3.419  13.351  0.00  0.00    +0.000 A 
ATOM     14  C   UNL     1       6.198   3.955  14.628  0.00  0.00    +0.000 A 
ENDBRANCH   5   8
BRANCH   1  20
ATOM     15  C   UNL     1       2.849   4.623  20.109  0.00  0.00    +0.000 C 
ATOM     16  C   UNL     1       2.719   6.111  20.521  0.00  0.00    +0.000 C 
ATOM     17  N   UNL     1       1.762   6.876  19.682  0.00  0.00    +0.000 NA
ATOM     18  C   UNL     1       2.002   6.737  18.240  0.00  0.00    +0.000 C 
ATOM     19  C   UNL     1       2.161   5.287  17.782  0.00  0.00    +0.000 C 
ATOM     20  C   UNL     1       3.229   4.548  18.608  0.00  0.00    +0.000 C 
BRANCH  15  22
ATOM     21  N   UNL     1       0.376   3.443  20.585  0.00  0.00    +0.000 NA
ATOM     22  C   UNL     1       1.497   3.978  20.370  0.00  0.00    +0.000 C 
ENDBRANCH  15  22
BRANCH  17  23
ATOM     23  C   UNL     1       1.781   8.319  20.025  0.00  0.00    +0.000 C 
BRANCH  23  24
ATOM     24  C   UNL     1       0.920   8.625  21.200  0.00  0.00    +0.000 A 
ATOM     25  C   UNL     1      -0.389   8.273  21.443  0.00  0.00    +0.000 A 
ATOM     26  O   UNL     1      -0.748   8.786  22.652  0.00  0.00    +0.000 OA
ATOM     27  C   UNL     1       0.375   9.425  23.081  0.00  0.00    +0.000 A 
ATOM     28  N   UNL     1       1.398   9.367  22.259  0.00  0.00    +0.000 NA
ENDBRANCH  23  24
ENDBRANCH  17  23
ENDBRANCH   1  20
BRANCH   3  29
ATOM     29  C   UNL     1       7.956   6.198  19.011  0.00  0.00    +0.000 C 
ATOM     30  N   UNL     1       8.555   5.348  19.900  0.00  0.00    +0.000 N 
ATOM     31  O   UNL     1       8.522   7.222  18.641  0.00  0.00    +0.000 OA
ATOM     32  H   UNL     1       8.269   4.381  19.963  0.00  0.00    +0.000 HD
ATOM     33  H   UNL     1       9.503   5.574  20.169  0.00  0.00    +0.000 HD
ENDBRANCH   3  29
TORSDOF 6
ENDMDL
MODEL 3
REMARK VINA RESULT:      -7.5      1.144      1.264
REMARK  Name = 
REMARK  6 active torsions:
REMARK  status: ('A' for Active; 'I' for Inactive)
REMARK    1  A    between atoms: C_2  and  C_3
REMARK    2  A    between atoms: N_5  and  C_6
REMARK    3  A    between atoms: C_6  and  C_7
REMARK    4  A    between atoms: C_14  and  N_15
REMARK    5  A    between atoms: C_17  and  C_18
REMARK    6  A    between atoms: N_22  and  C_23
REMARK                            x       y       z     vdW  Elec       q    Type
REMARK                         _______ _______ _______ _____ _____    ______ ____
ROOT
ATOM      1  N   UNL     1      -0.599  10.536  19.015  0.00  0.00    +0.000 N 
ATOM      2  C   UNL     1      -0.927  10.952  20.274  0.00  0.00    +0.000 A 
ATOM      3  C   UNL     1      -0.185  10.179  21.154  0.00  0.00    +0.000 A 
ATOM      4  C   UNL     1       0.598   9.337  20.316  0.00  0.00    +0.000 A 
ATOM      5  N   UNL     1       1.405   8.355  20.808  0.00  0.00    +0.000 N 
ATOM      6  N   UNL     1       0.360   9.599  19.028  0.00  0.00    +0.000 NA
ATOM      7  H   UNL     1       1.552   8.342  21.815  0.00  0.00    +0.000 HD
ENDROOT
BRANCH   5   8
ATOM      8  C   UNL     1       1.880   7.187  20.165  0.00  0.00    +0.000 A 
ATOM      9  C   UNL     1       2.548   7.212  18.931  0.00  0.00    +0.000 A 
ATOM     10  C   UNL     1       2.872   6.036  18.251  0.00  0.00    +0.000 A 
ATOM     11  C   UNL     1       2.531   4.813  18.810  0.00  0.00    +0.000 A 
ATOM     12  F   UNL     1       2.814   3.684  18.147  0.00  0.00    +0.000 F 
ATOM     13  C   UNL     1       1.894   4.749  20.041  0.00  0.00    +0.000 A 
ATOM     14  C   UNL     1       1.573   5.932  20.717  0.00  0.00    +0.000 A 
ENDBRANCH   5   8
BRANCH   1  20
ATOM     15  C   UNL     1      -2.016   9.843  17.056  0.00  0.00    +0.000 C 
ATOM     16  C   UNL     1      -3.282   9.591  17.914  0.00  0.00    +0.000 C 
ATOM     17  N   UNL     1      -4.091  10.813  18.148  0.00  0.00    +0.000 NA
ATOM     18  C   UNL     1      -3.312  11.945  18.665  0.00  0.00    +0.000 C 
ATOM     19  C   UNL     1      -2.036  12.224  17.868  0.00  0.00    +0.000 C 
ATOM     20  C   UNL     1      -1.171  10.959  17.724  0.00  0.00    +0.000 C 
BRANCH  15  22
ATOM     21  N   UNL     1      -2.898  10.615  14.534  0.00  0.00    +0.000 NA
ATOM     22  C   UNL     1      -2.498  10.265  15.678  0.00  0.00    +0.000 C 
ENDBRANCH  15  22
BRANCH  17  23
ATOM     23  C   UNL     1      -5.209  10.545  19.086  0.00  0.00    +0.000 C 
BRANCH  23  24
ATOM     24  C   UNL     1      -6.243  11.614  19.042  0.00  0.00    +0.000 A 
ATOM     25  C   UNL     1      -6.759  12.377  20.066  0.00  0.00    +0.000 A 
ATOM     26  O   UNL     1      -7.686  13.223  19.538  0.00  0.00    +0.000 OA
ATOM     27  C   UNL     1      -7.679  12.926  18.211  0.00  0.00    +0.000 A 
ATOM     28  N   UNL     1      -6.845  11.976  17.856  0.00  0.00    +0.000 NA
ENDBRANCH  23  24
ENDBRANCH  17  23
ENDBRANCH   1  20
BRANCH   3  29
ATOM     29  C   UNL     1      -0.228  10.213  22.601  0.00  0.00    +0.000 C 
ATOM     30  N   UNL     1      -1.333  10.805  23.149  0.00  0.00    +0.000 N 
ATOM     31  O   UNL     1       0.630   9.700  23.313  0.00  0.00    +0.000 OA
ATOM     32  H   UNL     1      -2.173  10.933  22.604  0.00  0.00    +0.000 HD
ATOM     33  H   UNL     1      -1.433  10.728  24.153  0.00  0.00    +0.000 HD
ENDBRANCH   3  29
TORSDOF 6
ENDMDL
MODEL 4
REMARK VINA RESULT:      -7.5      4.697      7.982
REMARK  Name = 
REMARK  6 active torsions:
REMARK  status: ('A' for Active; 'I' for Inactive)
REMARK    1  A    between atoms: C_2  and  C_3
REMARK    2  A    between atoms: N_5  and  C_6
REMARK    3  A    between atoms: C_6  and  C_7
REMARK    4  A    between atoms: C_14  and  N_15
REMARK    5  A    between atoms: C_17  and  C_18
REMARK    6  A    between atoms: N_22  and  C_23
REMARK                            x       y       z     vdW  Elec       q    Type
REMARK                         _______ _______ _______ _____ _____    ______ ____
ROOT
ATOM      1  N   UNL     1       4.576   5.040  18.360  0.00  0.00    +0.000 N 
ATOM      2  C   UNL     1       5.552   5.429  19.232  0.00  0.00    +0.000 A 
ATOM      3  C   UNL     1       6.661   5.759  18.467  0.00  0.00    +0.000 A 
ATOM      4  C   UNL     1       6.236   5.567  17.123  0.00  0.00    +0.000 A 
ATOM      5  N   UNL     1       7.077   5.702  16.059  0.00  0.00    +0.000 N 
ATOM      6  N   UNL     1       4.961   5.171  17.083  0.00  0.00    +0.000 NA
ATOM      7  H   UNL     1       7.994   6.101  16.246  0.00  0.00    +0.000 HD
ENDROOT
BRANCH   5   8
ATOM      8  C   UNL     1       6.971   5.142  14.763  0.00  0.00    +0.000 A 
ATOM      9  C   UNL     1       6.131   4.058  14.466  0.00  0.00    +0.000 A 
ATOM     10  C   UNL     1       6.159   3.433  13.218  0.00  0.00    +0.000 A 
ATOM     11  C   UNL     1       7.032   3.897  12.246  0.00  0.00    +0.000 A 
ATOM     12  F   UNL     1       7.082   3.281  11.057  0.00  0.00    +0.000 F 
ATOM     13  C   UNL     1       7.857   4.984  12.495  0.00  0.00    +0.000 A 
ATOM     14  C   UNL     1       7.824   5.605  13.748  0.00  0.00    +0.000 A 
ENDBRANCH   5   8
BRANCH   1  20
ATOM     15  C   UNL     1       2.854   4.645  20.149  0.00  0.00    +0.000 C 
ATOM     16  C   UNL     1       2.679   6.150  20.475  0.00  0.00    +0.000 C 
ATOM     17  N   UNL     1       1.700   6.836  19.595  0.00  0.00    +0.000 NA
ATOM     18  C   UNL     1       1.945   6.623  18.163  0.00  0.00    +0.000 C 
ATOM     19  C   UNL     1       2.149   5.154  17.788  0.00  0.00    +0.000 C 
ATOM     20  C   UNL     1       3.238   4.496  18.654  0.00  0.00    +0.000 C 
BRANCH  15  22
ATOM     21  N   UNL     1       0.417   3.419  20.693  0.00  0.00    +0.000 NA
ATOM     22  C   UNL     1       1.522   3.975  20.446  0.00  0.00    +0.000 C 
ENDBRANCH  15  22
BRANCH  17  23
ATOM     23  C   UNL     1       1.674   8.296  19.856  0.00  0.00    +0.000 C 
BRANCH  23  24
ATOM     24  C   UNL     1       0.985   8.624  21.134  0.00  0.00    +0.000 A 
ATOM     25  C   UNL     1       1.487   9.205  22.276  0.00  0.00    +0.000 A 
ATOM     26  O   UNL     1       0.476   9.299  23.183  0.00  0.00    +0.000 OA
ATOM     27  C   UNL     1      -0.594   8.767  22.533  0.00  0.00    +0.000 A 
ATOM     28  N   UNL     1      -0.353   8.345  21.314  0.00  0.00    +0.000 NA
ENDBRANCH  23  24
ENDBRANCH  17  23
ENDBRANCH   1  20
BRANCH   3  29
ATOM     29  C   UNL     1       7.961   6.179  18.944  0.00  0.00    +0.000 C 
ATOM     30  N   UNL     1       8.590   5.313  19.797  0.00  0.00    +0.000 N 
ATOM     31  O   UNL     1       8.513   7.212  18.577  0.00  0.00    +0.000 OA
ATOM     32  H   UNL     1       8.308   4.344  19.848  0.00  0.00    +0.000 HD
ATOM     33  H   UNL     1       9.546   5.536  20.040  0.00  0.00    +0.000 HD
ENDBRANCH   3  29
TORSDOF 6
ENDMDL
MODEL 5
REMARK VINA RESULT:      -7.3      0.908      1.018
REMARK  Name = 
REMARK  6 active torsions:
REMARK  status: ('A' for Active; 'I' for Inactive)
REMARK    1  A    between atoms: C_2  and  C_3
REMARK    2  A    between atoms: N_5  and  C_6
REMARK    3  A    between atoms: C_6  and  C_7
REMARK    4  A    between atoms: C_14  and  N_15
REMARK    5  A    between atoms: C_17  and  C_18
REMARK    6  A    between atoms: N_22  and  C_23
REMARK                            x       y       z     vdW  Elec       q    Type
REMARK                         _______ _______ _______ _____ _____    ______ ____
ROOT
ATOM      1  N   UNL     1      -0.167  10.294  19.186  0.00  0.00    +0.000 N 
ATOM      2  C   UNL     1      -0.434  10.635  20.482  0.00  0.00    +0.000 A 
ATOM      3  C   UNL     1       0.283   9.758  21.280  0.00  0.00    +0.000 A 
ATOM      4  C   UNL     1       0.990   8.934  20.359  0.00  0.00    +0.000 A 
ATOM      5  N   UNL     1       1.749   7.874  20.753  0.00  0.00    +0.000 N 
ATOM      6  N   UNL     1       0.732   9.304  19.102  0.00  0.00    +0.000 NA
ATOM      7  H   UNL     1       1.923   7.778  21.751  0.00  0.00    +0.000 HD
ENDROOT
BRANCH   5   8
ATOM      8  C   UNL     1       2.133   6.730  20.013  0.00  0.00    +0.000 A 
ATOM      9  C   UNL     1       2.824   6.805  18.793  0.00  0.00    +0.000 A 
ATOM     10  C   UNL     1       3.057   5.670  18.015  0.00  0.00    +0.000 A 
ATOM     11  C   UNL     1       2.603   4.437  18.458  0.00  0.00    +0.000 A 
ATOM     12  F   UNL     1       2.800   3.351  17.699  0.00  0.00    +0.000 F 
ATOM     13  C   UNL     1       1.942   4.320  19.672  0.00  0.00    +0.000 A 
ATOM     14  C   UNL     1       1.710   5.462  20.447  0.00  0.00    +0.000 A 
ENDBRANCH   5   8
BRANCH   1  20
ATOM     15  C   UNL     1      -2.030  10.089  17.510  0.00  0.00    +0.000 C 
ATOM     16  C   UNL     1      -3.150  10.356  18.548  0.00  0.00    +0.000 C 
ATOM     17  N   UNL     1      -3.421  11.798  18.769  0.00  0.00    +0.000 NA
ATOM     18  C   UNL     1      -2.217  12.586  19.065  0.00  0.00    +0.000 C 
ATOM     19  C   UNL     1      -1.070  12.343  18.082  0.00  0.00    +0.000 C 
ATOM     20  C   UNL     1      -0.749  10.843  17.948  0.00  0.00    +0.000 C 
BRANCH  15  22
ATOM     21  N   UNL     1      -2.968  11.025  15.065  0.00  0.00    +0.000 NA
ATOM     22  C   UNL     1      -2.543  10.600  16.173  0.00  0.00    +0.000 C 
ENDBRANCH  15  22
BRANCH  17  23
ATOM     23  C   UNL     1      -4.396  12.000  19.868  0.00  0.00    +0.000 C 
BRANCH  23  24
ATOM     24  C   UNL     1      -5.341  13.113  19.580  0.00  0.00    +0.000 A 
ATOM     25  C   UNL     1      -6.300  13.217  18.598  0.00  0.00    +0.000 A 
ATOM     26  O   UNL     1      -6.914  14.424  18.731  0.00  0.00    +0.000 OA
ATOM     27  C   UNL     1      -6.290  14.991  19.799  0.00  0.00    +0.000 A 
ATOM     28  N   UNL     1      -5.344  14.261  20.344  0.00  0.00    +0.000 NA
ENDBRANCH  23  24
ENDBRANCH  17  23
ENDBRANCH   1  20
BRANCH   3  29
ATOM     29  C   UNL     1       0.283   9.688  22.726  0.00  0.00    +0.000 C 
ATOM     30  N   UNL     1      -0.949   9.657  23.319  0.00  0.00    +0.000 N 
ATOM     31  O   UNL     1       1.307   9.602  23.397  0.00  0.00    +0.000 OA
ATOM     32  H   UNL     1      -1.770   9.403  22.789  0.00  0.00    +0.000 HD
ATOM     33  H   UNL     1      -0.964   9.487  24.316  0.00  0.00    +0.000 HD
ENDBRANCH   3  29
TORSDOF 6
ENDMDL
MODEL 6
REMARK VINA RESULT:      -7.3      4.812      7.990
REMARK  Name = 
REMARK  6 active torsions:
REMARK  status: ('A' for Active; 'I' for Inactive)
REMARK    1  A    between atoms: C_2  and  C_3
REMARK    2  A    between atoms: N_5  and  C_6
REMARK    3  A    between atoms: C_6  and  C_7
REMARK    4  A    between atoms: C_14  and  N_15
REMARK    5  A    between atoms: C_17  and  C_18
REMARK    6  A    between atoms: N_22  and  C_23
REMARK                            x       y       z     vdW  Elec       q    Type
REMARK                         _______ _______ _______ _____ _____    ______ ____
ROOT
ATOM      1  N   UNL     1       4.462   5.333  17.896  0.00  0.00    +0.000 N 
ATOM      2  C   UNL     1       5.427   6.041  18.555  0.00  0.00    +0.000 A 
ATOM      3  C   UNL     1       6.400   6.354  17.619  0.00  0.00    +0.000 A 
ATOM      4  C   UNL     1       5.907   5.813  16.398  0.00  0.00    +0.000 A 
ATOM      5  N   UNL     1       6.626   5.834  15.241  0.00  0.00    +0.000 N 
ATOM      6  N   UNL     1       4.717   5.236  16.584  0.00  0.00    +0.000 NA
ATOM      7  H   UNL     1       7.477   6.393  15.238  0.00  0.00    +0.000 HD
ENDROOT
BRANCH   5   8
ATOM      8  C   UNL     1       6.512   4.995  14.106  0.00  0.00    +0.000 A 
ATOM      9  C   UNL     1       5.525   4.005  13.984  0.00  0.00    +0.000 A 
ATOM     10  C   UNL     1       5.529   3.096  12.924  0.00  0.00    +0.000 A 
ATOM     11  C   UNL     1       6.527   3.176  11.965  0.00  0.00    +0.000 A 
ATOM     12  F   UNL     1       6.550   2.288  10.962  0.00  0.00    +0.000 F 
ATOM     13  C   UNL     1       7.503   4.160  12.038  0.00  0.00    +0.000 A 
ATOM     14  C   UNL     1       7.494   5.067  13.103  0.00  0.00    +0.000 A 
ENDBRANCH   5   8
BRANCH   1  20
ATOM     15  C   UNL     1       3.191   4.766  19.991  0.00  0.00    +0.000 C 
ATOM     16  C   UNL     1       2.977   6.246  20.400  0.00  0.00    +0.000 C 
ATOM     17  N   UNL     1       1.786   6.868  19.769  0.00  0.00    +0.000 NA
ATOM     18  C   UNL     1       1.738   6.703  18.310  0.00  0.00    +0.000 C 
ATOM     19  C   UNL     1       1.967   5.263  17.849  0.00  0.00    +0.000 C 
ATOM     20  C   UNL     1       3.261   4.678  18.444  0.00  0.00    +0.000 C 
BRANCH  15  22
ATOM     21  N   UNL     1       1.023   3.339  20.988  0.00  0.00    +0.000 NA
ATOM     22  C   UNL     1       2.006   3.986  20.536  0.00  0.00    +0.000 C 
ENDBRANCH  15  22
BRANCH  17  23
ATOM     23  C   UNL     1       1.707   8.316  20.081  0.00  0.00    +0.000 C 
BRANCH  23  24
ATOM     24  C   UNL     1       0.836   8.588  21.256  0.00  0.00    +0.000 A 
ATOM     25  C   UNL     1      -0.438   8.141  21.525  0.00  0.00    +0.000 A 
ATOM     26  O   UNL     1      -0.825   8.659  22.723  0.00  0.00    +0.000 OA
ATOM     27  C   UNL     1       0.248   9.396  23.120  0.00  0.00    +0.000 A 
ATOM     28  N   UNL     1       1.264   9.395  22.289  0.00  0.00    +0.000 NA
ENDBRANCH  23  24
ENDBRANCH  17  23
ENDBRANCH   1  20
BRANCH   3  29
ATOM     29  C   UNL     1       7.647   7.052  17.850  0.00  0.00    +0.000 C 
ATOM     30  N   UNL     1       8.317   6.710  18.992  0.00  0.00    +0.000 N 
ATOM     31  O   UNL     1       8.123   7.861  17.059  0.00  0.00    +0.000 OA
ATOM     32  H   UNL     1       8.113   5.843  19.469  0.00  0.00    +0.000 HD
ATOM     33  H   UNL     1       9.243   7.099  19.104  0.00  0.00    +0.000 HD
ENDBRANCH   3  29
TORSDOF 6
ENDMDL
MODEL 7
REMARK VINA RESULT:      -7.3      1.132      1.501
REMARK  Name = 
REMARK  6 active torsions:
REMARK  status: ('A' for Active; 'I' for Inactive)
REMARK    1  A    between atoms: C_2  and  C_3
REMARK    2  A    between atoms: N_5  and  C_6
REMARK    3  A    between atoms: C_6  and  C_7
REMARK    4  A    between atoms: C_14  and  N_15
REMARK    5  A    between atoms: C_17  and  C_18
REMARK    6  A    between atoms: N_22  and  C_23
REMARK                            x       y       z     vdW  Elec       q    Type
REMARK                         _______ _______ _______ _____ _____    ______ ____
ROOT
ATOM      1  N   UNL     1      -0.699  10.527  18.968  0.00  0.00    +0.000 N 
ATOM      2  C   UNL     1      -1.044  10.933  20.225  0.00  0.00    +0.000 A 
ATOM      3  C   UNL     1      -0.303  10.164  21.110  0.00  0.00    +0.000 A 
ATOM      4  C   UNL     1       0.498   9.335  20.275  0.00  0.00    +0.000 A 
ATOM      5  N   UNL     1       1.311   8.360  20.771  0.00  0.00    +0.000 N 
ATOM      6  N   UNL     1       0.270   9.601  18.986  0.00  0.00    +0.000 NA
ATOM      7  H   UNL     1       1.447   8.343  21.779  0.00  0.00    +0.000 HD
ENDROOT
BRANCH   5   8
ATOM      8  C   UNL     1       1.806   7.200  20.127  0.00  0.00    +0.000 A 
ATOM      9  C   UNL     1       1.709   5.916  20.686  0.00  0.00    +0.000 A 
ATOM     10  C   UNL     1       2.336   4.815  20.099  0.00  0.00    +0.000 A 
ATOM     11  C   UNL     1       3.067   4.990  18.935  0.00  0.00    +0.000 A 
ATOM     12  F   UNL     1       3.694   3.942  18.386  0.00  0.00    +0.000 F 
ATOM     13  C   UNL     1       3.162   6.240  18.339  0.00  0.00    +0.000 A 
ATOM     14  C   UNL     1       2.531   7.340  18.932  0.00  0.00    +0.000 A 
ENDBRANCH   5   8
BRANCH   1  20
ATOM     15  C   UNL     1      -2.074   9.823  16.984  0.00  0.00    +0.000 C 
ATOM     16  C   UNL     1      -3.346   9.537  17.821  0.00  0.00    +0.000 C 
ATOM     17  N   UNL     1      -4.184  10.739  18.056  0.00  0.00    +0.000 NA
ATOM     18  C   UNL     1      -3.435  11.883  18.594  0.00  0.00    +0.000 C 
ATOM     19  C   UNL     1      -2.155  12.196  17.817  0.00  0.00    +0.000 C 
ATOM     20  C   UNL     1      -1.263  10.950  17.674  0.00  0.00    +0.000 C 
BRANCH  15  22
ATOM     21  N   UNL     1      -2.938  10.601  14.457  0.00  0.00    +0.000 NA
ATOM     22  C   UNL     1      -2.546  10.248  15.603  0.00  0.00    +0.000 C 
ENDBRANCH  15  22
BRANCH  17  23
ATOM     23  C   UNL     1      -5.308  10.440  18.976  0.00  0.00    +0.000 C 
BRANCH  23  24
ATOM     24  C   UNL     1      -6.339  11.513  18.967  0.00  0.00    +0.000 A 
ATOM     25  C   UNL     1      -7.036  12.050  17.909  0.00  0.00    +0.000 A 
ATOM     26  O   UNL     1      -7.869  13.011  18.394  0.00  0.00    +0.000 OA
ATOM     27  C   UNL     1      -7.632  13.002  19.733  0.00  0.00    +0.000 A 
ATOM     28  N   UNL     1      -6.730  12.135  20.134  0.00  0.00    +0.000 NA
ENDBRANCH  23  24
ENDBRANCH  17  23
ENDBRANCH   1  20
BRANCH   3  29
ATOM     29  C   UNL     1      -0.361  10.190  22.556  0.00  0.00    +0.000 C 
ATOM     30  N   UNL     1      -1.159  11.159  23.101  0.00  0.00    +0.000 N 
ATOM     31  O   UNL     1       0.211   9.371  23.268  0.00  0.00    +0.000 OA
ATOM     32  H   UNL     1      -1.870  11.614  22.547  0.00  0.00    +0.000 HD
ATOM     33  H   UNL     1      -1.303  11.111  24.101  0.00  0.00    +0.000 HD
ENDBRANCH   3  29
TORSDOF 6
ENDMDL
MODEL 8
REMARK VINA RESULT:      -7.2      5.007      8.719
REMARK  Name = 
REMARK  6 active torsions:
REMARK  status: ('A' for Active; 'I' for Inactive)
REMARK    1  A    between atoms: C_2  and  C_3
REMARK    2  A    between atoms: N_5  and  C_6
REMARK    3  A    between atoms: C_6  and  C_7
REMARK    4  A    between atoms: C_14  and  N_15
REMARK    5  A    between atoms: C_17  and  C_18
REMARK    6  A    between atoms: N_22  and  C_23
REMARK                            x       y       z     vdW  Elec       q    Type
REMARK                         _______ _______ _______ _____ _____    ______ ____
ROOT
ATOM      1  N   UNL     1       4.548   3.928  17.249  0.00  0.00    +0.000 N 
ATOM      2  C   UNL     1       4.704   3.563  15.942  0.00  0.00    +0.000 A 
ATOM      3  C   UNL     1       5.825   4.231  15.473  0.00  0.00    +0.000 A 
ATOM      4  C   UNL     1       6.302   4.959  16.598  0.00  0.00    +0.000 A 
ATOM      5  N   UNL     1       7.352   5.825  16.524  0.00  0.00    +0.000 N 
ATOM      6  N   UNL     1       5.537   4.729  17.669  0.00  0.00    +0.000 NA
ATOM      7  H   UNL     1       7.890   5.820  15.660  0.00  0.00    +0.000 HD
ENDROOT
BRANCH   5   8
ATOM      8  C   UNL     1       7.667   6.918  17.366  0.00  0.00    +0.000 A 
ATOM      9  C   UNL     1       7.594   8.254  16.942  0.00  0.00    +0.000 A 
ATOM     10  C   UNL     1       8.053   9.301  17.745  0.00  0.00    +0.000 A 
ATOM     11  C   UNL     1       8.588   9.016  18.992  0.00  0.00    +0.000 A 
ATOM     12  F   UNL     1       9.056  10.015  19.752  0.00  0.00    +0.000 F 
ATOM     13  C   UNL     1       8.650   7.709  19.455  0.00  0.00    +0.000 A 
ATOM     14  C   UNL     1       8.189   6.665  18.646  0.00  0.00    +0.000 A 
ENDBRANCH   5   8
BRANCH   1  20
ATOM     15  C   UNL     1       3.741   4.064  19.627  0.00  0.00    +0.000 C 
ATOM     16  C   UNL     1       3.721   5.613  19.654  0.00  0.00    +0.000 C 
ATOM     17  N   UNL     1       2.463   6.198  19.126  0.00  0.00    +0.000 NA
ATOM     18  C   UNL     1       2.081   5.681  17.806  0.00  0.00    +0.000 C 
ATOM     19  C   UNL     1       2.106   4.154  17.716  0.00  0.00    +0.000 C 
ATOM     20  C   UNL     1       3.458   3.584  18.180  0.00  0.00    +0.000 C 
BRANCH  15  22
ATOM     21  N   UNL     1       1.760   3.208  21.381  0.00  0.00    +0.000 NA
ATOM     22  C   UNL     1       2.658   3.596  20.585  0.00  0.00    +0.000 C 
ENDBRANCH  15  22
BRANCH  17  23
ATOM     23  C   UNL     1       2.551   7.677  19.043  0.00  0.00    +0.000 C 
BRANCH  23  24
ATOM     24  C   UNL     1       1.537   8.346  19.902  0.00  0.00    +0.000 A 
ATOM     25  C   UNL     1       0.823   9.502  19.678  0.00  0.00    +0.000 A 
ATOM     26  O   UNL     1       0.017   9.718  20.753  0.00  0.00    +0.000 OA
ATOM     27  C   UNL     1       0.286   8.669  21.577  0.00  0.00    +0.000 A 
ATOM     28  N   UNL     1       1.183   7.822  21.128  0.00  0.00    +0.000 NA
ENDBRANCH  23  24
ENDBRANCH  17  23
ENDBRANCH   1  20
BRANCH   3  29
ATOM     29  C   UNL     1       6.362   4.206  14.129  0.00  0.00    +0.000 C 
ATOM     30  N   UNL     1       5.945   3.169  13.341  0.00  0.00    +0.000 N 
ATOM     31  O   UNL     1       7.100   5.079  13.682  0.00  0.00    +0.000 OA
ATOM     32  H   UNL     1       5.113   2.646  13.575  0.00  0.00    +0.000 HD
ATOM     33  H   UNL     1       6.216   3.207  12.367  0.00  0.00    +0.000 HD
ENDBRANCH   3  29
TORSDOF 6
ENDMDL
MODEL 9
REMARK VINA RESULT:      -7.1      3.752      5.748
REMARK  Name = 
REMARK  6 active torsions:
REMARK  status: ('A' for Active; 'I' for Inactive)
REMARK    1  A    between atoms: C_2  and  C_3
REMARK    2  A    between atoms: N_5  and  C_6
REMARK    3  A    between atoms: C_6  and  C_7
REMARK    4  A    between atoms: C_14  and  N_15
REMARK    5  A    between atoms: C_17  and  C_18
REMARK    6  A    between atoms: N_22  and  C_23
REMARK                            x       y       z     vdW  Elec       q    Type
REMARK                         _______ _______ _______ _____ _____    ______ ____
ROOT
ATOM      1  N   UNL     1      -0.930  10.551  19.138  0.00  0.00    +0.000 N 
ATOM      2  C   UNL     1       0.091   9.712  19.485  0.00  0.00    +0.000 A 
ATOM      3  C   UNL     1       0.202   9.770  20.866  0.00  0.00    +0.000 A 
ATOM      4  C   UNL     1      -0.835  10.657  21.270  0.00  0.00    +0.000 A 
ATOM      5  N   UNL     1      -1.004  11.051  22.563  0.00  0.00    +0.000 N 
ATOM      6  N   UNL     1      -1.530  11.084  20.212  0.00  0.00    +0.000 NA
ATOM      7  H   UNL     1      -0.453  10.565  23.268  0.00  0.00    +0.000 HD
ENDROOT
BRANCH   5   8
ATOM      8  C   UNL     1      -1.645  12.209  23.065  0.00  0.00    +0.000 A 
ATOM      9  C   UNL     1      -0.985  13.437  23.229  0.00  0.00    +0.000 A 
ATOM     10  C   UNL     1      -1.600  14.518  23.865  0.00  0.00    +0.000 A 
ATOM     11  C   UNL     1      -2.896  14.379  24.339  0.00  0.00    +0.000 A 
ATOM     12  F   UNL     1      -3.478  15.404  24.975  0.00  0.00    +0.000 F 
ATOM     13  C   UNL     1      -3.589  13.189  24.170  0.00  0.00    +0.000 A 
ATOM     14  C   UNL     1      -2.966  12.110  23.533  0.00  0.00    +0.000 A 
ENDBRANCH   5   8
BRANCH   1  20
ATOM     15  C   UNL     1      -2.146   9.780  17.076  0.00  0.00    +0.000 C 
ATOM     16  C   UNL     1      -3.477   9.509  17.822  0.00  0.00    +0.000 C 
ATOM     17  N   UNL     1      -4.336  10.712  17.956  0.00  0.00    +0.000 NA
ATOM     18  C   UNL     1      -3.636  11.876  18.515  0.00  0.00    +0.000 C 
ATOM     19  C   UNL     1      -2.302  12.175  17.831  0.00  0.00    +0.000 C 
ATOM     20  C   UNL     1      -1.395  10.932  17.793  0.00  0.00    +0.000 C 
BRANCH  15  22
ATOM     21  N   UNL     1      -2.817  10.477  14.469  0.00  0.00    +0.000 NA
ATOM     22  C   UNL     1      -2.513  10.161  15.651  0.00  0.00    +0.000 C 
ENDBRANCH  15  22
BRANCH  17  23
ATOM     23  C   UNL     1      -5.527  10.432  18.796  0.00  0.00    +0.000 C 
BRANCH  23  24
ATOM     24  C   UNL     1      -6.447  11.599  18.868  0.00  0.00    +0.000 A 
ATOM     25  C   UNL     1      -6.859  12.323  19.965  0.00  0.00    +0.000 A 
ATOM     26  O   UNL     1      -7.706  13.298  19.534  0.00  0.00    +0.000 OA
ATOM     27  C   UNL     1      -7.759  13.112  18.187  0.00  0.00    +0.000 A 
ATOM     28  N   UNL     1      -7.034  12.116  17.733  0.00  0.00    +0.000 NA
ENDBRANCH  23  24
ENDBRANCH  17  23
ENDBRANCH   1  20
BRANCH   3  29
ATOM     29  C   UNL     1       1.176   9.095  21.696  0.00  0.00    +0.000 C 
ATOM     30  N   UNL     1       1.689   7.933  21.187  0.00  0.00    +0.000 N 
ATOM     31  O   UNL     1       1.578   9.544  22.766  0.00  0.00    +0.000 OA
ATOM     32  H   UNL     1       1.619   7.728  20.200  0.00  0.00    +0.000 HD
ATOM     33  H   UNL     1       2.455   7.517  21.699  0.00  0.00    +0.000 HD
ENDBRANCH   3  29
TORSDOF 6
ENDMDL
