MODEL 1
REMARK VINA RESULT:      -7.3      0.000      0.000
REMARK  Name = 
REMARK  4 active torsions:
REMARK  status: ('A' for Active; 'I' for Inactive)
REMARK    1  A    between atoms: C_1  and  C_2
REMARK    2  A    between atoms: C_5  and  C_6
REMARK    3  A    between atoms: C_9  and  C_10
REMARK    4  A    between atoms: C_12  and  C_13
REMARK                            x       y       z     vdW  Elec       q    Type
REMARK                         _______ _______ _______ _____ _____    ______ ____
ROOT
ATOM      1  C   UNL     1       2.842   6.780  18.222  0.00  0.00    +0.000 C 
ATOM      2  C   UNL     1       3.963   6.875  17.473  0.00  0.00    +0.000 C 
ATOM      3  C   UNL     1       4.424   5.602  17.111  0.00  0.00    +0.000 A 
ATOM      4  C   UNL     1       5.410   4.949  16.422  0.00  0.00    +0.000 A 
ATOM      5  C   UNL     1       6.551   5.542  15.682  0.00  0.00    +0.000 C 
ATOM      6  C   UNL     1       5.102   3.558  16.570  0.00  0.00    +0.000 A 
ATOM      7  C   UNL     1       3.952   3.429  17.340  0.00  0.00    +0.000 A 
ATOM      8  C   UNL     1       3.214   2.218  17.774  0.00  0.00    +0.000 C 
ATOM      9  N   UNL     1       3.565   4.705  17.663  0.00  0.00    +0.000 N 
ATOM     10  C   UNL     1       2.552   5.317  18.384  0.00  0.00    +0.000 C 
ATOM     11  O   UNL     1       1.679   4.717  18.975  0.00  0.00    +0.000 OA
ENDROOT
BRANCH   1  16
ATOM     12  C   UNL     1      -0.120  11.266  20.383  0.00  0.00    +0.000 C 
ATOM     13  C   UNL     1       0.653  10.109  19.822  0.00  0.00    +0.000 A 
ATOM     14  C   UNL     1       0.984  10.061  18.467  0.00  0.00    +0.000 A 
ATOM     15  C   UNL     1       1.691   8.971  17.952  0.00  0.00    +0.000 A 
ATOM     16  C   UNL     1       2.088   7.905  18.777  0.00  0.00    +0.000 A 
ATOM     17  C   UNL     1       1.747   7.958  20.133  0.00  0.00    +0.000 A 
ATOM     18  C   UNL     1       1.041   9.051  20.651  0.00  0.00    +0.000 A 
ENDBRANCH   1  16
TORSDOF 1
ENDMDL
MODEL 2
REMARK VINA RESULT:      -7.3      0.141      1.143
REMARK  Name = 
REMARK  4 active torsions:
REMARK  status: ('A' for Active; 'I' for Inactive)
REMARK    1  A    between atoms: C_1  and  C_2
REMARK    2  A    between atoms: C_5  and  C_6
REMARK    3  A    between atoms: C_9  and  C_10
REMARK    4  A    between atoms: C_12  and  C_13
REMARK                            x       y       z     vdW  Elec       q    Type
REMARK                         _______ _______ _______ _____ _____    ______ ____
ROOT
ATOM      1  C   UNL     1       2.946   6.699  18.200  0.00  0.00    +0.000 C 
ATOM      2  C   UNL     1       4.073   6.779  17.458  0.00  0.00    +0.000 C 
ATOM      3  C   UNL     1       4.534   5.498  17.122  0.00  0.00    +0.000 A 
ATOM      4  C   UNL     1       5.524   4.831  16.453  0.00  0.00    +0.000 A 
ATOM      5  C   UNL     1       6.672   5.408  15.712  0.00  0.00    +0.000 C 
ATOM      6  C   UNL     1       5.211   3.444  16.622  0.00  0.00    +0.000 A 
ATOM      7  C   UNL     1       4.054   3.331  17.385  0.00  0.00    +0.000 A 
ATOM      8  C   UNL     1       3.310   2.130  17.834  0.00  0.00    +0.000 C 
ATOM      9  N   UNL     1       3.668   4.613  17.683  0.00  0.00    +0.000 N 
ATOM     10  C   UNL     1       2.651   5.240  18.385  0.00  0.00    +0.000 C 
ATOM     11  O   UNL     1       1.772   4.652  18.979  0.00  0.00    +0.000 OA
ENDROOT
BRANCH   1  16
ATOM     12  C   UNL     1      -0.071  11.166  20.324  0.00  0.00    +0.000 C 
ATOM     13  C   UNL     1       0.705  10.005  19.775  0.00  0.00    +0.000 A 
ATOM     14  C   UNL     1       1.087   8.947  20.602  0.00  0.00    +0.000 A 
ATOM     15  C   UNL     1       1.822   7.878  20.083  0.00  0.00    +0.000 A 
ATOM     16  C   UNL     1       2.190   7.836  18.729  0.00  0.00    +0.000 A 
ATOM     17  C   UNL     1       1.809   8.903  17.908  0.00  0.00    +0.000 A 
ATOM     18  C   UNL     1       1.069   9.974  18.424  0.00  0.00    +0.000 A 
ENDBRANCH   1  16
TORSDOF 1
ENDMDL
MODEL 3
REMARK VINA RESULT:      -7.1      3.469      5.537
REMARK  Name = 
REMARK  4 active torsions:
REMARK  status: ('A' for Active; 'I' for Inactive)
REMARK    1  A    between atoms: C_1  and  C_2
REMARK    2  A    between atoms: C_5  and  C_6
REMARK    3  A    between atoms: C_9  and  C_10
REMARK    4  A    between atoms: C_12  and  C_13
REMARK                            x       y       z     vdW  Elec       q    Type
REMARK                         _______ _______ _______ _____ _____    ______ ____
ROOT
ATOM      1  C   UNL     1       5.314   4.505  15.681  0.00  0.00    +0.000 C 
ATOM      2  C   UNL     1       4.960   3.702  14.653  0.00  0.00    +0.000 C 
ATOM      3  C   UNL     1       5.857   3.844  13.585  0.00  0.00    +0.000 A 
ATOM      4  C   UNL     1       6.129   3.404  12.318  0.00  0.00    +0.000 A 
ATOM      5  C   UNL     1       5.375   2.411  11.516  0.00  0.00    +0.000 C 
ATOM      6  C   UNL     1       7.311   4.114  11.930  0.00  0.00    +0.000 A 
ATOM      7  C   UNL     1       7.699   4.951  12.970  0.00  0.00    +0.000 A 
ATOM      8  C   UNL     1       8.848   5.881  13.080  0.00  0.00    +0.000 C 
ATOM      9  N   UNL     1       6.778   4.767  13.970  0.00  0.00    +0.000 N 
ATOM     10  C   UNL     1       6.538   5.255  15.244  0.00  0.00    +0.000 C 
ATOM     11  O   UNL     1       7.221   6.095  15.791  0.00  0.00    +0.000 OA
ENDROOT
BRANCH   1  16
ATOM     12  C   UNL     1       2.499   4.903  20.729  0.00  0.00    +0.000 C 
ATOM     13  C   UNL     1       3.223   4.796  19.420  0.00  0.00    +0.000 A 
ATOM     14  C   UNL     1       3.748   3.575  18.992  0.00  0.00    +0.000 A 
ATOM     15  C   UNL     1       4.433   3.490  17.777  0.00  0.00    +0.000 A 
ATOM     16  C   UNL     1       4.608   4.617  16.959  0.00  0.00    +0.000 A 
ATOM     17  C   UNL     1       4.084   5.839  17.397  0.00  0.00    +0.000 A 
ATOM     18  C   UNL     1       3.394   5.926  18.613  0.00  0.00    +0.000 A 
ENDBRANCH   1  16
TORSDOF 1
ENDMDL
MODEL 4
REMARK VINA RESULT:      -7.1      2.185      6.911
REMARK  Name = 
REMARK  4 active torsions:
REMARK  status: ('A' for Active; 'I' for Inactive)
REMARK    1  A    between atoms: C_1  and  C_2
REMARK    2  A    between atoms: C_5  and  C_6
REMARK    3  A    between atoms: C_9  and  C_10
REMARK    4  A    between atoms: C_12  and  C_13
REMARK                            x       y       z     vdW  Elec       q    Type
REMARK                         _______ _______ _______ _____ _____    ______ ____
ROOT
ATOM      1  C   UNL     1       2.063   8.020  19.041  0.00  0.00    +0.000 C 
ATOM      2  C   UNL     1       1.625   7.982  20.320  0.00  0.00    +0.000 C 
ATOM      3  C   UNL     1       0.955   9.168  20.648  0.00  0.00    +0.000 A 
ATOM      4  C   UNL     1       0.297   9.809  21.661  0.00  0.00    +0.000 A 
ATOM      5  C   UNL     1       0.040   9.317  23.036  0.00  0.00    +0.000 C 
ATOM      6  C   UNL     1      -0.096  11.069  21.104  0.00  0.00    +0.000 A 
ATOM      7  C   UNL     1       0.342  11.138  19.787  0.00  0.00    +0.000 A 
ATOM      8  C   UNL     1       0.189  12.211  18.776  0.00  0.00    +0.000 C 
ATOM      9  N   UNL     1       0.993   9.955  19.540  0.00  0.00    +0.000 N 
ATOM     10  C   UNL     1       1.662   9.355  18.486  0.00  0.00    +0.000 C 
ATOM     11  O   UNL     1       1.832   9.874  17.403  0.00  0.00    +0.000 OA
ENDROOT
BRANCH   1  16
ATOM     12  C   UNL     1       4.979   3.778  16.384  0.00  0.00    +0.000 C 
ATOM     13  C   UNL     1       4.226   4.873  17.078  0.00  0.00    +0.000 A 
ATOM     14  C   UNL     1       3.086   4.589  17.831  0.00  0.00    +0.000 A 
ATOM     15  C   UNL     1       2.383   5.620  18.462  0.00  0.00    +0.000 A 
ATOM     16  C   UNL     1       2.802   6.956  18.360  0.00  0.00    +0.000 A 
ATOM     17  C   UNL     1       3.942   7.233  17.597  0.00  0.00    +0.000 A 
ATOM     18  C   UNL     1       4.650   6.202  16.968  0.00  0.00    +0.000 A 
ENDBRANCH   1  16
TORSDOF 1
ENDMDL
MODEL 5
REMARK VINA RESULT:      -7.1      2.182      6.855
REMARK  Name = 
REMARK  4 active torsions:
REMARK  status: ('A' for Active; 'I' for Inactive)
REMARK    1  A    between atoms: C_1  and  C_2
REMARK    2  A    between atoms: C_5  and  C_6
REMARK    3  A    between atoms: C_9  and  C_10
REMARK    4  A    between atoms: C_12  and  C_13
REMARK                            x       y       z     vdW  Elec       q    Type
REMARK                         _______ _______ _______ _____ _____    ______ ____
ROOT
ATOM      1  C   UNL     1       2.051   8.006  19.079  0.00  0.00    +0.000 C 
ATOM      2  C   UNL     1       1.632   7.984  20.364  0.00  0.00    +0.000 C 
ATOM      3  C   UNL     1       0.957   9.170  20.684  0.00  0.00    +0.000 A 
ATOM      4  C   UNL     1       0.307   9.820  21.697  0.00  0.00    +0.000 A 
ATOM      5  C   UNL     1       0.073   9.347  23.083  0.00  0.00    +0.000 C 
ATOM      6  C   UNL     1      -0.104  11.068  21.128  0.00  0.00    +0.000 A 
ATOM      7  C   UNL     1       0.315  11.121  19.803  0.00  0.00    +0.000 A 
ATOM      8  C   UNL     1       0.139  12.177  18.778  0.00  0.00    +0.000 C 
ATOM      9  N   UNL     1       0.972   9.940  19.564  0.00  0.00    +0.000 N 
ATOM     10  C   UNL     1       1.632   9.330  18.510  0.00  0.00    +0.000 C 
ATOM     11  O   UNL     1       1.782   9.834  17.417  0.00  0.00    +0.000 OA
ENDROOT
BRANCH   1  16
ATOM     12  C   UNL     1       4.987   3.814  16.365  0.00  0.00    +0.000 C 
ATOM     13  C   UNL     1       4.225   4.902  17.061  0.00  0.00    +0.000 A 
ATOM     14  C   UNL     1       4.640   6.232  16.975  0.00  0.00    +0.000 A 
ATOM     15  C   UNL     1       3.931   7.236  17.640  0.00  0.00    +0.000 A 
ATOM     16  C   UNL     1       2.790   6.939  18.403  0.00  0.00    +0.000 A 
ATOM     17  C   UNL     1       2.385   5.602  18.490  0.00  0.00    +0.000 A 
ATOM     18  C   UNL     1       3.091   4.595  17.822  0.00  0.00    +0.000 A 
ENDBRANCH   1  16
TORSDOF 1
ENDMDL
MODEL 6
REMARK VINA RESULT:      -7.1      1.135      1.220
REMARK  Name = 
REMARK  4 active torsions:
REMARK  status: ('A' for Active; 'I' for Inactive)
REMARK    1  A    between atoms: C_1  and  C_2
REMARK    2  A    between atoms: C_5  and  C_6
REMARK    3  A    between atoms: C_9  and  C_10
REMARK    4  A    between atoms: C_12  and  C_13
REMARK                            x       y       z     vdW  Elec       q    Type
REMARK                         _______ _______ _______ _____ _____    ______ ____
ROOT
ATOM      1  C   UNL     1       2.540   7.042  19.139  0.00  0.00    +0.000 C 
ATOM      2  C   UNL     1       3.237   7.165  17.987  0.00  0.00    +0.000 C 
ATOM      3  C   UNL     1       3.903   5.970  17.683  0.00  0.00    +0.000 A 
ATOM      4  C   UNL     1       4.729   5.380  16.766  0.00  0.00    +0.000 A 
ATOM      5  C   UNL     1       5.296   5.977  15.532  0.00  0.00    +0.000 C 
ATOM      6  C   UNL     1       4.931   4.050  17.256  0.00  0.00    +0.000 A 
ATOM      7  C   UNL     1       4.225   3.894  18.444  0.00  0.00    +0.000 A 
ATOM      8  C   UNL     1       4.095   2.719  19.339  0.00  0.00    +0.000 C 
ATOM      9  N   UNL     1       3.610   5.096  18.682  0.00  0.00    +0.000 N 
ATOM     10  C   UNL     1       2.785   5.652  19.646  0.00  0.00    +0.000 C 
ATOM     11  O   UNL     1       2.404   5.064  20.637  0.00  0.00    +0.000 OA
ENDROOT
BRANCH   1  16
ATOM     12  C   UNL     1      -0.651  11.220  21.574  0.00  0.00    +0.000 C 
ATOM     13  C   UNL     1       0.181  10.143  20.942  0.00  0.00    +0.000 A 
ATOM     14  C   UNL     1       0.572  10.234  19.606  0.00  0.00    +0.000 A 
ATOM     15  C   UNL     1       1.334   9.218  19.024  0.00  0.00    +0.000 A 
ATOM     16  C   UNL     1       1.727   8.089  19.761  0.00  0.00    +0.000 A 
ATOM     17  C   UNL     1       1.326   8.001  21.099  0.00  0.00    +0.000 A 
ATOM     18  C   UNL     1       0.565   9.020  21.685  0.00  0.00    +0.000 A 
ENDBRANCH   1  16
TORSDOF 1
ENDMDL
MODEL 7
REMARK VINA RESULT:      -7.0      1.208      2.621
REMARK  Name = 
REMARK  4 active torsions:
REMARK  status: ('A' for Active; 'I' for Inactive)
REMARK    1  A    between atoms: C_1  and  C_2
REMARK    2  A    between atoms: C_5  and  C_6
REMARK    3  A    between atoms: C_9  and  C_10
REMARK    4  A    between atoms: C_12  and  C_13
REMARK                            x       y       z     vdW  Elec       q    Type
REMARK                         _______ _______ _______ _____ _____    ______ ____
ROOT
ATOM      1  C   UNL     1       2.784   6.735  18.238  0.00  0.00    +0.000 C 
ATOM      2  C   UNL     1       2.307   5.472  18.309  0.00  0.00    +0.000 C 
ATOM      3  C   UNL     1       3.206   4.571  17.723  0.00  0.00    +0.000 A 
ATOM      4  C   UNL     1       3.400   3.247  17.439  0.00  0.00    +0.000 A 
ATOM      5  C   UNL     1       2.500   2.108  17.743  0.00  0.00    +0.000 C 
ATOM      6  C   UNL     1       4.671   3.194  16.782  0.00  0.00    +0.000 A 
ATOM      7  C   UNL     1       5.187   4.482  16.692  0.00  0.00    +0.000 A 
ATOM      8  C   UNL     1       6.463   4.971  16.115  0.00  0.00    +0.000 C 
ATOM      9  N   UNL     1       4.257   5.307  17.274  0.00  0.00    +0.000 N 
ATOM     10  C   UNL     1       4.103   6.660  17.525  0.00  0.00    +0.000 C 
ATOM     11  O   UNL     1       4.907   7.509  17.202  0.00  0.00    +0.000 OA
ENDROOT
BRANCH   1  16
ATOM     12  C   UNL     1       0.098  11.442  20.285  0.00  0.00    +0.000 C 
ATOM     13  C   UNL     1       0.788  10.219  19.757  0.00  0.00    +0.000 A 
ATOM     14  C   UNL     1       1.063   9.137  20.593  0.00  0.00    +0.000 A 
ATOM     15  C   UNL     1       1.719   8.009  20.093  0.00  0.00    +0.000 A 
ATOM     16  C   UNL     1       2.113   7.932  18.747  0.00  0.00    +0.000 A 
ATOM     17  C   UNL     1       1.839   9.024  17.916  0.00  0.00    +0.000 A 
ATOM     18  C   UNL     1       1.178  10.154  18.414  0.00  0.00    +0.000 A 
ENDBRANCH   1  16
TORSDOF 1
ENDMDL
MODEL 8
REMARK VINA RESULT:      -7.0      2.013      6.162
REMARK  Name = 
REMARK  4 active torsions:
REMARK  status: ('A' for Active; 'I' for Inactive)
REMARK    1  A    between atoms: C_1  and  C_2
REMARK    2  A    between atoms: C_5  and  C_6
REMARK    3  A    between atoms: C_9  and  C_10
REMARK    4  A    between atoms: C_12  and  C_13
REMARK                            x       y       z     vdW  Elec       q    Type
REMARK                         _______ _______ _______ _____ _____    ______ ____
ROOT
ATOM      1  C   UNL     1       4.210   4.896  17.468  0.00  0.00    +0.000 C 
ATOM      2  C   UNL     1       3.724   5.997  18.083  0.00  0.00    +0.000 C 
ATOM      3  C   UNL     1       2.855   5.638  19.123  0.00  0.00    +0.000 A 
ATOM      4  C   UNL     1       2.052   6.152  20.105  0.00  0.00    +0.000 A 
ATOM      5  C   UNL     1       1.809   7.578  20.430  0.00  0.00    +0.000 C 
ATOM      6  C   UNL     1       1.493   5.007  20.757  0.00  0.00    +0.000 A 
ATOM      7  C   UNL     1       1.975   3.856  20.144  0.00  0.00    +0.000 A 
ATOM      8  C   UNL     1       1.716   2.426  20.439  0.00  0.00    +0.000 C 
ATOM      9  N   UNL     1       2.805   4.280  19.137  0.00  0.00    +0.000 N 
ATOM     10  C   UNL     1       3.594   3.711  18.151  0.00  0.00    +0.000 C 
ATOM     11  O   UNL     1       3.694   2.516  17.965  0.00  0.00    +0.000 OA
ENDROOT
BRANCH   1  16
ATOM     12  C   UNL     1       7.915   4.920  13.014  0.00  0.00    +0.000 C 
ATOM     13  C   UNL     1       6.955   4.921  14.167  0.00  0.00    +0.000 A 
ATOM     14  C   UNL     1       7.247   5.619  15.339  0.00  0.00    +0.000 A 
ATOM     15  C   UNL     1       6.352   5.600  16.412  0.00  0.00    +0.000 A 
ATOM     16  C   UNL     1       5.143   4.889  16.340  0.00  0.00    +0.000 A 
ATOM     17  C   UNL     1       4.860   4.187  15.163  0.00  0.00    +0.000 A 
ATOM     18  C   UNL     1       5.754   4.207  14.085  0.00  0.00    +0.000 A 
ENDBRANCH   1  16
TORSDOF 1
ENDMDL
MODEL 9
REMARK VINA RESULT:      -7.0      1.205      2.364
REMARK  Name = 
REMARK  4 active torsions:
REMARK  status: ('A' for Active; 'I' for Inactive)
REMARK    1  A    between atoms: C_1  and  C_2
REMARK    2  A    between atoms: C_5  and  C_6
REMARK    3  A    between atoms: C_9  and  C_10
REMARK    4  A    between atoms: C_12  and  C_13
REMARK                            x       y       z     vdW  Elec       q    Type
REMARK                         _______ _______ _______ _____ _____    ______ ____
ROOT
ATOM      1  C   UNL     1       2.769   6.730  18.245  0.00  0.00    +0.000 C 
ATOM      2  C   UNL     1       2.299   5.464  18.316  0.00  0.00    +0.000 C 
ATOM      3  C   UNL     1       3.201   4.569  17.725  0.00  0.00    +0.000 A 
ATOM      4  C   UNL     1       3.402   3.246  17.439  0.00  0.00    +0.000 A 
ATOM      5  C   UNL     1       2.509   2.102  17.742  0.00  0.00    +0.000 C 
ATOM      6  C   UNL     1       4.672   3.202  16.778  0.00  0.00    +0.000 A 
ATOM      7  C   UNL     1       5.181   4.493  16.690  0.00  0.00    +0.000 A 
ATOM      8  C   UNL     1       6.452   4.989  16.111  0.00  0.00    +0.000 C 
ATOM      9  N   UNL     1       4.248   5.311  17.275  0.00  0.00    +0.000 N 
ATOM     10  C   UNL     1       4.086   6.663  17.530  0.00  0.00    +0.000 C 
ATOM     11  O   UNL     1       4.885   7.517  17.206  0.00  0.00    +0.000 OA
ENDROOT
BRANCH   1  16
ATOM     12  C   UNL     1       0.119  11.478  20.244  0.00  0.00    +0.000 C 
ATOM     13  C   UNL     1       0.811  10.252  19.725  0.00  0.00    +0.000 A 
ATOM     14  C   UNL     1       1.193  10.161  18.386  0.00  0.00    +0.000 A 
ATOM     15  C   UNL     1       1.824   9.009  17.910  0.00  0.00    +0.000 A 
ATOM     16  C   UNL     1       2.092   7.922  18.759  0.00  0.00    +0.000 A 
ATOM     17  C   UNL     1       1.701   8.019  20.098  0.00  0.00    +0.000 A 
ATOM     18  C   UNL     1       1.072   9.174  20.578  0.00  0.00    +0.000 A 
ENDBRANCH   1  16
TORSDOF 1
ENDMDL
