MODEL 1
REMARK VINA RESULT:      -8.7      0.000      0.000
REMARK  Name = 
REMARK  10 active torsions:
REMARK  status: ('A' for Active; 'I' for Inactive)
REMARK    1  A    between atoms: C_1  and  O_2
REMARK    2  A    between atoms: O_2  and  C_3
REMARK    3  A    between atoms: C_6  and  O_7
REMARK    4  A    between atoms: O_7  and  C_8
REMARK    5  A    between atoms: C_9  and  C_10
REMARK    6  A    between atoms: C_16  and  C_17
REMARK    7  A    between atoms: C_20  and  O_21
REMARK    8  A    between atoms: O_21  and  C_22
REMARK    9  A    between atoms: C_23  and  O_24
REMARK   10  A    between atoms: O_24  and  C_25
REMARK                            x       y       z     vdW  Elec       q    Type
REMARK                         _______ _______ _______ _____ _____    ______ ____
ROOT
ATOM      1  C   UNL     1       4.716   3.620  18.610  0.00  0.00    +0.000 A 
ATOM      2  N   UNL     1       4.878   2.491  19.294  0.00  0.00    +0.000 NA
ATOM      3  N   UNL     1       3.988   2.472  20.344  0.00  0.00    +0.000 NA
ATOM      4  C   UNL     1       3.305   3.585  20.280  0.00  0.00    +0.000 A 
ATOM      5  N   UNL     1       3.732   4.368  19.237  0.00  0.00    +0.000 N 
ATOM      6  N   UNL     1       3.399   5.659  18.968  0.00  0.00    +0.000 NA
ATOM      7  C   UNL     1       2.298   6.124  19.485  0.00  0.00    +0.000 C 
ATOM      8  C   UNL     1       1.274   5.301  20.253  0.00  0.00    +0.000 C 
ATOM      9  S   UNL     1       2.094   4.141  21.374  0.00  0.00    +0.000 S 
ENDROOT
BRANCH   1  14
ATOM     10  C   UNL     1       5.665   4.203  15.023  0.00  0.00    +0.000 A 
ATOM     11  C   UNL     1       6.934   4.759  15.134  0.00  0.00    +0.000 A 
ATOM     12  C   UNL     1       7.508   4.976  16.384  0.00  0.00    +0.000 A 
ATOM     13  C   UNL     1       6.826   4.619  17.561  0.00  0.00    +0.000 A 
ATOM     14  C   UNL     1       5.541   4.039  17.463  0.00  0.00    +0.000 A 
ATOM     15  C   UNL     1       4.975   3.854  16.182  0.00  0.00    +0.000 A 
BRANCH  10  17
ATOM     16  C   UNL     1       6.166   3.596  12.781  0.00  0.00    +0.000 C 
ATOM     17  O   UNL     1       5.221   4.056  13.740  0.00  0.00    +0.000 OA
ENDBRANCH  10  17
BRANCH  13  18
ATOM     18  O   UNL     1       7.337   4.863  18.812  0.00  0.00    +0.000 OA
ATOM     19  C   UNL     1       7.969   6.122  19.023  0.00  0.00    +0.000 C 
ENDBRANCH  13  18
ENDBRANCH   1  14
BRANCH   7  20
ATOM     20  C   UNL     1       2.021   7.569  19.238  0.00  0.00    +0.000 A 
ATOM     21  C   UNL     1       2.155   8.169  17.991  0.00  0.00    +0.000 A 
ATOM     22  C   UNL     1       1.852   9.525  17.860  0.00  0.00    +0.000 A 
ATOM     23  C   UNL     1       1.427  10.296  18.958  0.00  0.00    +0.000 A 
ATOM     24  C   UNL     1       1.333   9.700  20.227  0.00  0.00    +0.000 A 
ATOM     25  C   UNL     1       1.621   8.339  20.343  0.00  0.00    +0.000 A 
BRANCH  23  26
ATOM     26  O   UNL     1       1.166  11.593  18.603  0.00  0.00    +0.000 OA
ATOM     27  C   UNL     1       2.095  12.602  18.969  0.00  0.00    +0.000 C 
ENDBRANCH  23  26
BRANCH  24  28
ATOM     28  O   UNL     1       0.918  10.443  21.297  0.00  0.00    +0.000 OA
BRANCH  28  29
ATOM     29  C   UNL     1      -0.476  10.512  21.604  0.00  0.00    +0.000 C 
ATOM     30  C   UNL     1      -0.740  10.591  23.104  0.00  0.00    +0.000 C 
ATOM     31  C   UNL     1      -2.059  11.334  23.236  0.00  0.00    +0.000 C 
ATOM     32  C   UNL     1      -2.149  12.247  22.018  0.00  0.00    +0.000 C 
ATOM     33  C   UNL     1      -1.019  11.841  21.078  0.00  0.00    +0.000 C 
ENDBRANCH  28  29
ENDBRANCH  24  28
ENDBRANCH   7  20
TORSDOF 7
ENDMDL
MODEL 2
REMARK VINA RESULT:      -7.9      0.803      1.154
REMARK  Name = 
REMARK  10 active torsions:
REMARK  status: ('A' for Active; 'I' for Inactive)
REMARK    1  A    between atoms: C_1  and  O_2
REMARK    2  A    between atoms: O_2  and  C_3
REMARK    3  A    between atoms: C_6  and  O_7
REMARK    4  A    between atoms: O_7  and  C_8
REMARK    5  A    between atoms: C_9  and  C_10
REMARK    6  A    between atoms: C_16  and  C_17
REMARK    7  A    between atoms: C_20  and  O_21
REMARK    8  A    between atoms: O_21  and  C_22
REMARK    9  A    between atoms: C_23  and  O_24
REMARK   10  A    between atoms: O_24  and  C_25
REMARK                            x       y       z     vdW  Elec       q    Type
REMARK                         _______ _______ _______ _____ _____    ______ ____
ROOT
ATOM      1  C   UNL     1       4.687   3.674  18.538  0.00  0.00    +0.000 A 
ATOM      2  N   UNL     1       4.805   2.546  19.232  0.00  0.00    +0.000 NA
ATOM      3  N   UNL     1       3.906   2.566  20.274  0.00  0.00    +0.000 NA
ATOM      4  C   UNL     1       3.262   3.700  20.196  0.00  0.00    +0.000 A 
ATOM      5  N   UNL     1       3.723   4.460  19.150  0.00  0.00    +0.000 N 
ATOM      6  N   UNL     1       3.436   5.760  18.869  0.00  0.00    +0.000 NA
ATOM      7  C   UNL     1       2.347   6.266  19.372  0.00  0.00    +0.000 C 
ATOM      8  C   UNL     1       1.290   5.483  20.138  0.00  0.00    +0.000 C 
ATOM      9  S   UNL     1       2.061   4.306  21.275  0.00  0.00    +0.000 S 
ENDROOT
BRANCH   1  14
ATOM     10  C   UNL     1       5.686   4.187  14.953  0.00  0.00    +0.000 A 
ATOM     11  C   UNL     1       6.970   4.708  15.071  0.00  0.00    +0.000 A 
ATOM     12  C   UNL     1       7.538   4.924  16.324  0.00  0.00    +0.000 A 
ATOM     13  C   UNL     1       6.835   4.600  17.498  0.00  0.00    +0.000 A 
ATOM     14  C   UNL     1       5.534   4.056  17.394  0.00  0.00    +0.000 A 
ATOM     15  C   UNL     1       4.976   3.872  16.110  0.00  0.00    +0.000 A 
BRANCH  10  17
ATOM     16  C   UNL     1       6.210   3.602  12.711  0.00  0.00    +0.000 C 
ATOM     17  O   UNL     1       5.251   4.038  13.668  0.00  0.00    +0.000 OA
ENDBRANCH  10  17
BRANCH  13  18
ATOM     18  O   UNL     1       7.340   4.844  18.752  0.00  0.00    +0.000 OA
ATOM     19  C   UNL     1       7.900   6.132  18.988  0.00  0.00    +0.000 C 
ENDBRANCH  13  18
ENDBRANCH   1  14
BRANCH   7  20
ATOM     20  C   UNL     1       2.121   7.717  19.112  0.00  0.00    +0.000 A 
ATOM     21  C   UNL     1       2.570   8.365  17.967  0.00  0.00    +0.000 A 
ATOM     22  C   UNL     1       2.290   9.723  17.808  0.00  0.00    +0.000 A 
ATOM     23  C   UNL     1       1.577  10.448  18.781  0.00  0.00    +0.000 A 
ATOM     24  C   UNL     1       1.160   9.804  19.957  0.00  0.00    +0.000 A 
ATOM     25  C   UNL     1       1.430   8.441  20.098  0.00  0.00    +0.000 A 
BRANCH  23  26
ATOM     26  O   UNL     1       1.397  11.756  18.415  0.00  0.00    +0.000 OA
ATOM     27  C   UNL     1       2.541  12.564  18.182  0.00  0.00    +0.000 C 
ENDBRANCH  23  26
BRANCH  24  28
ATOM     28  O   UNL     1       0.464  10.502  20.905  0.00  0.00    +0.000 OA
BRANCH  28  29
ATOM     29  C   UNL     1      -0.915  10.805  20.680  0.00  0.00    +0.000 C 
ATOM     30  C   UNL     1      -1.177  12.305  20.598  0.00  0.00    +0.000 C 
ATOM     31  C   UNL     1      -2.400  12.446  19.709  0.00  0.00    +0.000 C 
ATOM     32  C   UNL     1      -2.376  11.245  18.769  0.00  0.00    +0.000 C 
ATOM     33  C   UNL     1      -1.296  10.303  19.287  0.00  0.00    +0.000 C 
ENDBRANCH  28  29
ENDBRANCH  24  28
ENDBRANCH   7  20
TORSDOF 7
ENDMDL
MODEL 3
REMARK VINA RESULT:      -7.4      1.965      3.544
REMARK  Name = 
REMARK  10 active torsions:
REMARK  status: ('A' for Active; 'I' for Inactive)
REMARK    1  A    between atoms: C_1  and  O_2
REMARK    2  A    between atoms: O_2  and  C_3
REMARK    3  A    between atoms: C_6  and  O_7
REMARK    4  A    between atoms: O_7  and  C_8
REMARK    5  A    between atoms: C_9  and  C_10
REMARK    6  A    between atoms: C_16  and  C_17
REMARK    7  A    between atoms: C_20  and  O_21
REMARK    8  A    between atoms: O_21  and  C_22
REMARK    9  A    between atoms: C_23  and  O_24
REMARK   10  A    between atoms: O_24  and  C_25
REMARK                            x       y       z     vdW  Elec       q    Type
REMARK                         _______ _______ _______ _____ _____    ______ ____
ROOT
ATOM      1  C   UNL     1       4.909   4.269  18.968  0.00  0.00    +0.000 A 
ATOM      2  N   UNL     1       5.155   2.989  19.232  0.00  0.00    +0.000 NA
ATOM      3  N   UNL     1       4.163   2.503  20.053  0.00  0.00    +0.000 NA
ATOM      4  C   UNL     1       3.336   3.491  20.272  0.00  0.00    +0.000 A 
ATOM      5  N   UNL     1       3.760   4.638  19.650  0.00  0.00    +0.000 N 
ATOM      6  N   UNL     1       3.274   5.900  19.798  0.00  0.00    +0.000 NA
ATOM      7  C   UNL     1       2.065   6.037  20.261  0.00  0.00    +0.000 C 
ATOM      8  C   UNL     1       1.092   4.896  20.520  0.00  0.00    +0.000 C 
ATOM      9  S   UNL     1       1.939   3.491  21.283  0.00  0.00    +0.000 S 
ENDROOT
BRANCH   1  14
ATOM     10  C   UNL     1       7.626   6.772  18.287  0.00  0.00    +0.000 A 
ATOM     11  C   UNL     1       7.566   6.912  16.904  0.00  0.00    +0.000 A 
ATOM     12  C   UNL     1       6.649   6.179  16.155  0.00  0.00    +0.000 A 
ATOM     13  C   UNL     1       5.750   5.297  16.780  0.00  0.00    +0.000 A 
ATOM     14  C   UNL     1       5.789   5.155  18.186  0.00  0.00    +0.000 A 
ATOM     15  C   UNL     1       6.746   5.893  18.916  0.00  0.00    +0.000 A 
BRANCH  10  17
ATOM     16  C   UNL     1       8.603   8.922  18.551  0.00  0.00    +0.000 C 
ATOM     17  O   UNL     1       8.577   7.541  18.893  0.00  0.00    +0.000 OA
ENDBRANCH  10  17
BRANCH  13  18
ATOM     18  O   UNL     1       4.866   4.521  16.071  0.00  0.00    +0.000 OA
ATOM     19  C   UNL     1       5.348   3.908  14.879  0.00  0.00    +0.000 C 
ENDBRANCH  13  18
ENDBRANCH   1  14
BRANCH   7  20
ATOM     20  C   UNL     1       1.610   7.439  20.492  0.00  0.00    +0.000 A 
ATOM     21  C   UNL     1       1.706   8.079  21.722  0.00  0.00    +0.000 A 
ATOM     22  C   UNL     1       1.269   9.400  21.829  0.00  0.00    +0.000 A 
ATOM     23  C   UNL     1       0.728  10.090  20.728  0.00  0.00    +0.000 A 
ATOM     24  C   UNL     1       0.591   9.430  19.496  0.00  0.00    +0.000 A 
ATOM     25  C   UNL     1       1.047   8.114  19.395  0.00  0.00    +0.000 A 
BRANCH  23  26
ATOM     26  O   UNL     1       0.383  11.377  21.049  0.00  0.00    +0.000 OA
ATOM     27  C   UNL     1      -0.470  11.598  22.162  0.00  0.00    +0.000 C 
ENDBRANCH  23  26
BRANCH  24  28
ATOM     28  O   UNL     1       0.068  10.096  18.422  0.00  0.00    +0.000 OA
BRANCH  28  29
ATOM     29  C   UNL     1      -1.351  10.174  18.270  0.00  0.00    +0.000 C 
ATOM     30  C   UNL     1      -1.865  11.609  18.323  0.00  0.00    +0.000 C 
ATOM     31  C   UNL     1      -3.135  11.605  17.491  0.00  0.00    +0.000 C 
ATOM     32  C   UNL     1      -2.954  10.503  16.453  0.00  0.00    +0.000 C 
ATOM     33  C   UNL     1      -1.708   9.722  16.854  0.00  0.00    +0.000 C 
ENDBRANCH  28  29
ENDBRANCH  24  28
ENDBRANCH   7  20
TORSDOF 7
ENDMDL
MODEL 4
REMARK VINA RESULT:      -7.3      4.150      8.856
REMARK  Name = 
REMARK  10 active torsions:
REMARK  status: ('A' for Active; 'I' for Inactive)
REMARK    1  A    between atoms: C_1  and  O_2
REMARK    2  A    between atoms: O_2  and  C_3
REMARK    3  A    between atoms: C_6  and  O_7
REMARK    4  A    between atoms: O_7  and  C_8
REMARK    5  A    between atoms: C_9  and  C_10
REMARK    6  A    between atoms: C_16  and  C_17
REMARK    7  A    between atoms: C_20  and  O_21
REMARK    8  A    between atoms: O_21  and  C_22
REMARK    9  A    between atoms: C_23  and  O_24
REMARK   10  A    between atoms: O_24  and  C_25
REMARK                            x       y       z     vdW  Elec       q    Type
REMARK                         _______ _______ _______ _____ _____    ______ ____
ROOT
ATOM      1  C   UNL     1       1.076  13.717  19.389  0.00  0.00    +0.000 A 
ATOM      2  N   UNL     1       0.039  14.541  19.270  0.00  0.00    +0.000 NA
ATOM      3  N   UNL     1      -1.090  13.803  18.994  0.00  0.00    +0.000 NA
ATOM      4  C   UNL     1      -0.720  12.550  18.949  0.00  0.00    +0.000 A 
ATOM      5  N   UNL     1       0.631  12.425  19.155  0.00  0.00    +0.000 N 
ATOM      6  N   UNL     1       1.403  11.316  18.996  0.00  0.00    +0.000 NA
ATOM      7  C   UNL     1       0.815  10.155  19.023  0.00  0.00    +0.000 C 
ATOM      8  C   UNL     1      -0.651   9.923  19.359  0.00  0.00    +0.000 C 
ATOM      9  S   UNL     1      -1.695  11.177  18.576  0.00  0.00    +0.000 S 
ENDROOT
BRANCH   1  14
ATOM     10  C   UNL     1       4.613  14.649  18.535  0.00  0.00    +0.000 A 
ATOM     11  C   UNL     1       5.161  14.923  19.783  0.00  0.00    +0.000 A 
ATOM     12  C   UNL     1       4.386  14.830  20.937  0.00  0.00    +0.000 A 
ATOM     13  C   UNL     1       3.038  14.436  20.867  0.00  0.00    +0.000 A 
ATOM     14  C   UNL     1       2.471  14.139  19.607  0.00  0.00    +0.000 A 
ATOM     15  C   UNL     1       3.275  14.267  18.453  0.00  0.00    +0.000 A 
BRANCH  10  17
ATOM     16  C   UNL     1       6.852  14.987  17.817  0.00  0.00    +0.000 C 
ATOM     17  O   UNL     1       5.481  14.790  17.491  0.00  0.00    +0.000 OA
ENDBRANCH  10  17
BRANCH  13  18
ATOM     18  O   UNL     1       2.228  14.380  21.975  0.00  0.00    +0.000 OA
ATOM     19  C   UNL     1       1.645  15.602  22.417  0.00  0.00    +0.000 C 
ENDBRANCH  13  18
ENDBRANCH   1  14
BRANCH   7  20
ATOM     20  C   UNL     1       1.688   8.976  18.754  0.00  0.00    +0.000 A 
ATOM     21  C   UNL     1       2.424   8.822  17.585  0.00  0.00    +0.000 A 
ATOM     22  C   UNL     1       3.227   7.690  17.439  0.00  0.00    +0.000 A 
ATOM     23  C   UNL     1       3.298   6.702  18.438  0.00  0.00    +0.000 A 
ATOM     24  C   UNL     1       2.522   6.836  19.601  0.00  0.00    +0.000 A 
ATOM     25  C   UNL     1       1.736   7.980  19.746  0.00  0.00    +0.000 A 
BRANCH  23  26
ATOM     26  O   UNL     1       4.158   5.691  18.098  0.00  0.00    +0.000 OA
ATOM     27  C   UNL     1       5.014   5.870  16.980  0.00  0.00    +0.000 C 
ENDBRANCH  23  26
BRANCH  24  28
ATOM     28  O   UNL     1       2.590   5.880  20.577  0.00  0.00    +0.000 OA
BRANCH  28  29
ATOM     29  C   UNL     1       1.573   4.877  20.647  0.00  0.00    +0.000 C 
ATOM     30  C   UNL     1       1.335   4.193  19.305  0.00  0.00    +0.000 C 
ATOM     31  C   UNL     1       0.832   2.803  19.653  0.00  0.00    +0.000 C 
ATOM     32  C   UNL     1       1.444   2.462  21.006  0.00  0.00    +0.000 C 
ATOM     33  C   UNL     1       2.079   3.742  21.538  0.00  0.00    +0.000 C 
ENDBRANCH  28  29
ENDBRANCH  24  28
ENDBRANCH   7  20
TORSDOF 7
ENDMDL
MODEL 5
REMARK VINA RESULT:      -7.2      1.801      2.507
REMARK  Name = 
REMARK  10 active torsions:
REMARK  status: ('A' for Active; 'I' for Inactive)
REMARK    1  A    between atoms: C_1  and  O_2
REMARK    2  A    between atoms: O_2  and  C_3
REMARK    3  A    between atoms: C_6  and  O_7
REMARK    4  A    between atoms: O_7  and  C_8
REMARK    5  A    between atoms: C_9  and  C_10
REMARK    6  A    between atoms: C_16  and  C_17
REMARK    7  A    between atoms: C_20  and  O_21
REMARK    8  A    between atoms: O_21  and  C_22
REMARK    9  A    between atoms: C_23  and  O_24
REMARK   10  A    between atoms: O_24  and  C_25
REMARK                            x       y       z     vdW  Elec       q    Type
REMARK                         _______ _______ _______ _____ _____    ______ ____
ROOT
ATOM      1  C   UNL     1       4.698   3.913  18.999  0.00  0.00    +0.000 A 
ATOM      2  N   UNL     1       4.870   2.626  19.288  0.00  0.00    +0.000 NA
ATOM      3  N   UNL     1       3.866   2.220  20.137  0.00  0.00    +0.000 NA
ATOM      4  C   UNL     1       3.106   3.262  20.349  0.00  0.00    +0.000 A 
ATOM      5  N   UNL     1       3.588   4.368  19.693  0.00  0.00    +0.000 N 
ATOM      6  N   UNL     1       3.183   5.660  19.821  0.00  0.00    +0.000 NA
ATOM      7  C   UNL     1       1.994   5.881  20.303  0.00  0.00    +0.000 C 
ATOM      8  C   UNL     1       0.958   4.809  20.605  0.00  0.00    +0.000 C 
ATOM      9  S   UNL     1       1.731   3.371  21.385  0.00  0.00    +0.000 S 
ENDROOT
BRANCH   1  14
ATOM     10  C   UNL     1       6.140   5.517  15.923  0.00  0.00    +0.000 A 
ATOM     11  C   UNL     1       7.234   6.209  16.430  0.00  0.00    +0.000 A 
ATOM     12  C   UNL     1       7.521   6.186  17.793  0.00  0.00    +0.000 A 
ATOM     13  C   UNL     1       6.723   5.446  18.683  0.00  0.00    +0.000 A 
ATOM     14  C   UNL     1       5.616   4.726  18.181  0.00  0.00    +0.000 A 
ATOM     15  C   UNL     1       5.336   4.788  16.798  0.00  0.00    +0.000 A 
BRANCH  10  17
ATOM     16  C   UNL     1       6.745   4.771  13.750  0.00  0.00    +0.000 C 
ATOM     17  O   UNL     1       5.970   5.635  14.574  0.00  0.00    +0.000 OA
ENDBRANCH  10  17
BRANCH  13  18
ATOM     18  O   UNL     1       6.944   5.438  20.039  0.00  0.00    +0.000 OA
ATOM     19  C   UNL     1       8.298   5.373  20.477  0.00  0.00    +0.000 C 
ENDBRANCH  13  18
ENDBRANCH   1  14
BRANCH   7  20
ATOM     20  C   UNL     1       1.631   7.313  20.509  0.00  0.00    +0.000 A 
ATOM     21  C   UNL     1       1.801   7.976  21.719  0.00  0.00    +0.000 A 
ATOM     22  C   UNL     1       1.448   9.324  21.804  0.00  0.00    +0.000 A 
ATOM     23  C   UNL     1       0.916  10.019  20.702  0.00  0.00    +0.000 A 
ATOM     24  C   UNL     1       0.704   9.337  19.492  0.00  0.00    +0.000 A 
ATOM     25  C   UNL     1       1.077   7.995  19.412  0.00  0.00    +0.000 A 
BRANCH  23  26
ATOM     26  O   UNL     1       0.659  11.331  20.999  0.00  0.00    +0.000 OA
ATOM     27  C   UNL     1       1.580  12.321  20.569  0.00  0.00    +0.000 C 
ENDBRANCH  23  26
BRANCH  24  28
ATOM     28  O   UNL     1       0.190  10.008  18.416  0.00  0.00    +0.000 OA
BRANCH  28  29
ATOM     29  C   UNL     1      -1.226  10.174  18.305  0.00  0.00    +0.000 C 
ATOM     30  C   UNL     1      -1.653  11.632  18.424  0.00  0.00    +0.000 C 
ATOM     31  C   UNL     1      -2.942  11.734  17.628  0.00  0.00    +0.000 C 
ATOM     32  C   UNL     1      -2.852  10.664  16.546  0.00  0.00    +0.000 C 
ATOM     33  C   UNL     1      -1.644   9.798  16.883  0.00  0.00    +0.000 C 
ENDBRANCH  28  29
ENDBRANCH  24  28
ENDBRANCH   7  20
TORSDOF 7
ENDMDL
MODEL 6
REMARK VINA RESULT:      -7.2      4.271      9.417
REMARK  Name = 
REMARK  10 active torsions:
REMARK  status: ('A' for Active; 'I' for Inactive)
REMARK    1  A    between atoms: C_1  and  O_2
REMARK    2  A    between atoms: O_2  and  C_3
REMARK    3  A    between atoms: C_6  and  O_7
REMARK    4  A    between atoms: O_7  and  C_8
REMARK    5  A    between atoms: C_9  and  C_10
REMARK    6  A    between atoms: C_16  and  C_17
REMARK    7  A    between atoms: C_20  and  O_21
REMARK    8  A    between atoms: O_21  and  C_22
REMARK    9  A    between atoms: C_23  and  O_24
REMARK   10  A    between atoms: O_24  and  C_25
REMARK                            x       y       z     vdW  Elec       q    Type
REMARK                         _______ _______ _______ _____ _____    ______ ____
ROOT
ATOM      1  C   UNL     1       0.082  13.770  21.514  0.00  0.00    +0.000 A 
ATOM      2  N   UNL     1      -0.791  14.256  22.390  0.00  0.00    +0.000 NA
ATOM      3  N   UNL     1      -1.362  13.211  23.080  0.00  0.00    +0.000 NA
ATOM      4  C   UNL     1      -0.828  12.113  22.612  0.00  0.00    +0.000 A 
ATOM      5  N   UNL     1       0.062  12.387  21.603  0.00  0.00    +0.000 N 
ATOM      6  N   UNL     1       0.664  11.509  20.757  0.00  0.00    +0.000 NA
ATOM      7  C   UNL     1       0.741  10.263  21.126  0.00  0.00    +0.000 C 
ATOM      8  C   UNL     1       0.338   9.726  22.491  0.00  0.00    +0.000 C 
ATOM      9  S   UNL     1      -1.206  10.489  23.050  0.00  0.00    +0.000 S 
ENDROOT
BRANCH   1  14
ATOM     10  C   UNL     1       3.053  15.081  19.625  0.00  0.00    +0.000 A 
ATOM     11  C   UNL     1       2.476  16.004  18.760  0.00  0.00    +0.000 A 
ATOM     12  C   UNL     1       1.098  16.210  18.756  0.00  0.00    +0.000 A 
ATOM     13  C   UNL     1       0.263  15.506  19.641  0.00  0.00    +0.000 A 
ATOM     14  C   UNL     1       0.837  14.575  20.537  0.00  0.00    +0.000 A 
ATOM     15  C   UNL     1       2.234  14.370  20.500  0.00  0.00    +0.000 A 
BRANCH  10  17
ATOM     16  C   UNL     1       4.960  15.089  18.208  0.00  0.00    +0.000 C 
ATOM     17  O   UNL     1       4.410  14.973  19.515  0.00  0.00    +0.000 OA
ENDBRANCH  10  17
BRANCH  13  18
ATOM     18  O   UNL     1      -1.104  15.645  19.634  0.00  0.00    +0.000 OA
ATOM     19  C   UNL     1      -1.625  16.951  19.860  0.00  0.00    +0.000 C 
ENDBRANCH  13  18
ENDBRANCH   1  14
BRANCH   7  20
ATOM     20  C   UNL     1       1.327   9.322  20.127  0.00  0.00    +0.000 A 
ATOM     21  C   UNL     1       1.514   9.650  18.789  0.00  0.00    +0.000 A 
ATOM     22  C   UNL     1       2.090   8.705  17.938  0.00  0.00    +0.000 A 
ATOM     23  C   UNL     1       2.473   7.432  18.401  0.00  0.00    +0.000 A 
ATOM     24  C   UNL     1       2.244   7.086  19.742  0.00  0.00    +0.000 A 
ATOM     25  C   UNL     1       1.684   8.044  20.589  0.00  0.00    +0.000 A 
BRANCH  23  26
ATOM     26  O   UNL     1       3.033   6.674  17.407  0.00  0.00    +0.000 OA
ATOM     27  C   UNL     1       4.447   6.652  17.279  0.00  0.00    +0.000 C 
ENDBRANCH  23  26
BRANCH  24  28
ATOM     28  O   UNL     1       2.617   5.851  20.198  0.00  0.00    +0.000 OA
BRANCH  28  29
ATOM     29  C   UNL     1       1.609   4.884  20.503  0.00  0.00    +0.000 C 
ATOM     30  C   UNL     1       1.286   3.983  19.316  0.00  0.00    +0.000 C 
ATOM     31  C   UNL     1       0.810   2.677  19.927  0.00  0.00    +0.000 C 
ATOM     32  C   UNL     1       1.509   2.566  21.277  0.00  0.00    +0.000 C 
ATOM     33  C   UNL     1       2.173   3.913  21.541  0.00  0.00    +0.000 C 
ENDBRANCH  28  29
ENDBRANCH  24  28
ENDBRANCH   7  20
TORSDOF 7
ENDMDL
MODEL 7
REMARK VINA RESULT:      -7.1      4.213      9.130
REMARK  Name = 
REMARK  10 active torsions:
REMARK  status: ('A' for Active; 'I' for Inactive)
REMARK    1  A    between atoms: C_1  and  O_2
REMARK    2  A    between atoms: O_2  and  C_3
REMARK    3  A    between atoms: C_6  and  O_7
REMARK    4  A    between atoms: O_7  and  C_8
REMARK    5  A    between atoms: C_9  and  C_10
REMARK    6  A    between atoms: C_16  and  C_17
REMARK    7  A    between atoms: C_20  and  O_21
REMARK    8  A    between atoms: O_21  and  C_22
REMARK    9  A    between atoms: C_23  and  O_24
REMARK   10  A    between atoms: O_24  and  C_25
REMARK                            x       y       z     vdW  Elec       q    Type
REMARK                         _______ _______ _______ _____ _____    ______ ____
ROOT
ATOM      1  C   UNL     1       1.078  13.720  19.503  0.00  0.00    +0.000 A 
ATOM      2  N   UNL     1       0.072  14.562  19.288  0.00  0.00    +0.000 NA
ATOM      3  N   UNL     1      -1.016  13.853  18.832  0.00  0.00    +0.000 NA
ATOM      4  C   UNL     1      -0.653  12.599  18.776  0.00  0.00    +0.000 A 
ATOM      5  N   UNL     1       0.659  12.446  19.151  0.00  0.00    +0.000 N 
ATOM      6  N   UNL     1       1.437  11.336  19.043  0.00  0.00    +0.000 NA
ATOM      7  C   UNL     1       0.842  10.183  18.937  0.00  0.00    +0.000 C 
ATOM      8  C   UNL     1      -0.657   9.955  19.067  0.00  0.00    +0.000 C 
ATOM      9  S   UNL     1      -1.580  11.258  18.214  0.00  0.00    +0.000 S 
ENDROOT
BRANCH   1  14
ATOM     10  C   UNL     1       4.001  14.270  21.797  0.00  0.00    +0.000 A 
ATOM     11  C   UNL     1       4.961  14.798  20.941  0.00  0.00    +0.000 A 
ATOM     12  C   UNL     1       4.686  14.973  19.586  0.00  0.00    +0.000 A 
ATOM     13  C   UNL     1       3.427  14.637  19.059  0.00  0.00    +0.000 A 
ATOM     14  C   UNL     1       2.436  14.113  19.921  0.00  0.00    +0.000 A 
ATOM     15  C   UNL     1       2.753  13.925  21.284  0.00  0.00    +0.000 A 
BRANCH  10  17
ATOM     16  C   UNL     1       5.621  14.794  23.455  0.00  0.00    +0.000 C 
ATOM     17  O   UNL     1       4.408  14.144  23.095  0.00  0.00    +0.000 OA
ENDBRANCH  10  17
BRANCH  13  18
ATOM     18  O   UNL     1       3.134  14.748  17.721  0.00  0.00    +0.000 OA
ATOM     19  C   UNL     1       3.428  15.992  17.092  0.00  0.00    +0.000 C 
ENDBRANCH  13  18
ENDBRANCH   1  14
BRANCH   7  20
ATOM     20  C   UNL     1       1.734   9.005  18.729  0.00  0.00    +0.000 A 
ATOM     21  C   UNL     1       2.536   8.845  17.605  0.00  0.00    +0.000 A 
ATOM     22  C   UNL     1       3.351   7.715  17.515  0.00  0.00    +0.000 A 
ATOM     23  C   UNL     1       3.371   6.737  18.526  0.00  0.00    +0.000 A 
ATOM     24  C   UNL     1       2.529   6.877  19.642  0.00  0.00    +0.000 A 
ATOM     25  C   UNL     1       1.731   8.019  19.731  0.00  0.00    +0.000 A 
BRANCH  23  26
ATOM     26  O   UNL     1       4.253   5.727  18.245  0.00  0.00    +0.000 OA
ATOM     27  C   UNL     1       4.035   4.932  17.089  0.00  0.00    +0.000 C 
ENDBRANCH  23  26
BRANCH  24  28
ATOM     28  O   UNL     1       2.545   5.931  20.629  0.00  0.00    +0.000 OA
BRANCH  28  29
ATOM     29  C   UNL     1       1.533   4.922  20.649  0.00  0.00    +0.000 C 
ATOM     30  C   UNL     1       1.344   4.258  19.289  0.00  0.00    +0.000 C 
ATOM     31  C   UNL     1       0.838   2.860  19.597  0.00  0.00    +0.000 C 
ATOM     32  C   UNL     1       1.406   2.500  20.965  0.00  0.00    +0.000 C 
ATOM     33  C   UNL     1       2.015   3.775  21.538  0.00  0.00    +0.000 C 
ENDBRANCH  28  29
ENDBRANCH  24  28
ENDBRANCH   7  20
TORSDOF 7
ENDMDL
MODEL 8
REMARK VINA RESULT:      -7.0      1.453      2.351
REMARK  Name = 
REMARK  10 active torsions:
REMARK  status: ('A' for Active; 'I' for Inactive)
REMARK    1  A    between atoms: C_1  and  O_2
REMARK    2  A    between atoms: O_2  and  C_3
REMARK    3  A    between atoms: C_6  and  O_7
REMARK    4  A    between atoms: O_7  and  C_8
REMARK    5  A    between atoms: C_9  and  C_10
REMARK    6  A    between atoms: C_16  and  C_17
REMARK    7  A    between atoms: C_20  and  O_21
REMARK    8  A    between atoms: O_21  and  C_22
REMARK    9  A    between atoms: C_23  and  O_24
REMARK   10  A    between atoms: O_24  and  C_25
REMARK                            x       y       z     vdW  Elec       q    Type
REMARK                         _______ _______ _______ _____ _____    ______ ____
ROOT
ATOM      1  C   UNL     1       4.734   3.860  18.961  0.00  0.00    +0.000 A 
ATOM      2  N   UNL     1       4.908   2.568  19.224  0.00  0.00    +0.000 NA
ATOM      3  N   UNL     1       3.915   2.149  20.081  0.00  0.00    +0.000 NA
ATOM      4  C   UNL     1       3.160   3.188  20.322  0.00  0.00    +0.000 A 
ATOM      5  N   UNL     1       3.634   4.304  19.679  0.00  0.00    +0.000 N 
ATOM      6  N   UNL     1       3.234   5.594  19.836  0.00  0.00    +0.000 NA
ATOM      7  C   UNL     1       2.052   5.808  20.339  0.00  0.00    +0.000 C 
ATOM      8  C   UNL     1       1.019   4.732  20.637  0.00  0.00    +0.000 C 
ATOM      9  S   UNL     1       1.801   3.279  21.379  0.00  0.00    +0.000 S 
ENDROOT
BRANCH   1  14
ATOM     10  C   UNL     1       6.183   5.452  15.883  0.00  0.00    +0.000 A 
ATOM     11  C   UNL     1       7.246   6.187  16.397  0.00  0.00    +0.000 A 
ATOM     12  C   UNL     1       7.507   6.199  17.764  0.00  0.00    +0.000 A 
ATOM     13  C   UNL     1       6.716   5.451  18.654  0.00  0.00    +0.000 A 
ATOM     14  C   UNL     1       5.641   4.686  18.145  0.00  0.00    +0.000 A 
ATOM     15  C   UNL     1       5.386   4.715  16.756  0.00  0.00    +0.000 A 
BRANCH  10  17
ATOM     16  C   UNL     1       5.734   4.334  13.834  0.00  0.00    +0.000 C 
ATOM     17  O   UNL     1       6.036   5.540  14.528  0.00  0.00    +0.000 OA
ENDBRANCH  10  17
BRANCH  13  18
ATOM     18  O   UNL     1       6.911   5.475  20.014  0.00  0.00    +0.000 OA
ATOM     19  C   UNL     1       8.256   5.412  20.479  0.00  0.00    +0.000 C 
ENDBRANCH  13  18
ENDBRANCH   1  14
BRANCH   7  20
ATOM     20  C   UNL     1       1.694   7.237  20.577  0.00  0.00    +0.000 A 
ATOM     21  C   UNL     1       1.398   7.750  21.834  0.00  0.00    +0.000 A 
ATOM     22  C   UNL     1       1.094   9.107  21.954  0.00  0.00    +0.000 A 
ATOM     23  C   UNL     1       1.070   9.959  20.834  0.00  0.00    +0.000 A 
ATOM     24  C   UNL     1       1.327   9.432  19.558  0.00  0.00    +0.000 A 
ATOM     25  C   UNL     1       1.647   8.078  19.451  0.00  0.00    +0.000 A 
BRANCH  23  26
ATOM     26  O   UNL     1       0.769  11.250  21.179  0.00  0.00    +0.000 OA
ATOM     27  C   UNL     1      -0.415  11.500  21.921  0.00  0.00    +0.000 C 
ENDBRANCH  23  26
BRANCH  24  28
ATOM     28  O   UNL     1       1.307  10.256  18.466  0.00  0.00    +0.000 OA
BRANCH  28  29
ATOM     29  C   UNL     1       0.053  10.608  17.876  0.00  0.00    +0.000 C 
ATOM     30  C   UNL     1      -1.114   9.843  18.488  0.00  0.00    +0.000 C 
ATOM     31  C   UNL     1      -2.318  10.753  18.319  0.00  0.00    +0.000 C 
ATOM     32  C   UNL     1      -1.770  12.176  18.319  0.00  0.00    +0.000 C 
ATOM     33  C   UNL     1      -0.253  12.064  18.232  0.00  0.00    +0.000 C 
ENDBRANCH  28  29
ENDBRANCH  24  28
ENDBRANCH   7  20
TORSDOF 7
ENDMDL
MODEL 9
REMARK VINA RESULT:      -6.9      3.713      9.015
REMARK  Name = 
REMARK  10 active torsions:
REMARK  status: ('A' for Active; 'I' for Inactive)
REMARK    1  A    between atoms: C_1  and  O_2
REMARK    2  A    between atoms: O_2  and  C_3
REMARK    3  A    between atoms: C_6  and  O_7
REMARK    4  A    between atoms: O_7  and  C_8
REMARK    5  A    between atoms: C_9  and  C_10
REMARK    6  A    between atoms: C_16  and  C_17
REMARK    7  A    between atoms: C_20  and  O_21
REMARK    8  A    between atoms: O_21  and  C_22
REMARK    9  A    between atoms: C_23  and  O_24
REMARK   10  A    between atoms: O_24  and  C_25
REMARK                            x       y       z     vdW  Elec       q    Type
REMARK                         _______ _______ _______ _____ _____    ______ ____
ROOT
ATOM      1  C   UNL     1       0.397  12.816  21.420  0.00  0.00    +0.000 A 
ATOM      2  N   UNL     1      -0.487  13.264  22.308  0.00  0.00    +0.000 NA
ATOM      3  N   UNL     1      -1.023  12.192  22.985  0.00  0.00    +0.000 NA
ATOM      4  C   UNL     1      -0.460  11.118  22.498  0.00  0.00    +0.000 A 
ATOM      5  N   UNL     1       0.417  11.432  21.490  0.00  0.00    +0.000 N 
ATOM      6  N   UNL     1       1.041  10.584  20.628  0.00  0.00    +0.000 NA
ATOM      7  C   UNL     1       1.156   9.336  20.979  0.00  0.00    +0.000 C 
ATOM      8  C   UNL     1       0.775   8.768  22.338  0.00  0.00    +0.000 C 
ATOM      9  S   UNL     1      -0.787   9.477  22.915  0.00  0.00    +0.000 S 
ENDROOT
BRANCH   1  14
ATOM     10  C   UNL     1       3.262  14.720  19.911  0.00  0.00    +0.000 A 
ATOM     11  C   UNL     1       2.698  15.242  18.752  0.00  0.00    +0.000 A 
ATOM     12  C   UNL     1       1.373  14.972  18.421  0.00  0.00    +0.000 A 
ATOM     13  C   UNL     1       0.569  14.183  19.262  0.00  0.00    +0.000 A 
ATOM     14  C   UNL     1       1.123  13.657  20.452  0.00  0.00    +0.000 A 
ATOM     15  C   UNL     1       2.477  13.929  20.747  0.00  0.00    +0.000 A 
BRANCH  10  17
ATOM     16  C   UNL     1       5.289  15.529  18.972  0.00  0.00    +0.000 C 
ATOM     17  O   UNL     1       4.571  15.056  20.106  0.00  0.00    +0.000 OA
ENDBRANCH  10  17
BRANCH  13  18
ATOM     18  O   UNL     1      -0.727  13.853  18.947  0.00  0.00    +0.000 OA
ATOM     19  C   UNL     1      -0.930  12.663  18.189  0.00  0.00    +0.000 C 
ENDBRANCH  13  18
ENDBRANCH   1  14
BRANCH   7  20
ATOM     20  C   UNL     1       1.764   8.427  19.964  0.00  0.00    +0.000 A 
ATOM     21  C   UNL     1       1.865   8.749  18.616  0.00  0.00    +0.000 A 
ATOM     22  C   UNL     1       2.470   7.837  17.749  0.00  0.00    +0.000 A 
ATOM     23  C   UNL     1       2.968   6.603  18.207  0.00  0.00    +0.000 A 
ATOM     24  C   UNL     1       2.828   6.260  19.561  0.00  0.00    +0.000 A 
ATOM     25  C   UNL     1       2.237   7.186  20.423  0.00  0.00    +0.000 A 
BRANCH  23  26
ATOM     26  O   UNL     1       3.538   5.874  17.196  0.00  0.00    +0.000 OA
ATOM     27  C   UNL     1       4.936   5.982  16.981  0.00  0.00    +0.000 C 
ENDBRANCH  23  26
BRANCH  24  28
ATOM     28  O   UNL     1       3.312   5.062  20.013  0.00  0.00    +0.000 OA
BRANCH  28  29
ATOM     29  C   UNL     1       2.423   3.949  20.135  0.00  0.00    +0.000 C 
ATOM     30  C   UNL     1       1.224   4.055  19.200  0.00  0.00    +0.000 C 
ATOM     31  C   UNL     1       0.811   2.620  18.920  0.00  0.00    +0.000 C 
ATOM     32  C   UNL     1       2.082   1.787  19.045  0.00  0.00    +0.000 C 
ATOM     33  C   UNL     1       3.150   2.698  19.638  0.00  0.00    +0.000 C 
ENDBRANCH  28  29
ENDBRANCH  24  28
ENDBRANCH   7  20
TORSDOF 7
ENDMDL
