MODEL 1
REMARK VINA RESULT:      -7.9      0.000      0.000
REMARK  Name = 
REMARK  7 active torsions:
REMARK  status: ('A' for Active; 'I' for Inactive)
REMARK    1  A    between atoms: C_1  and  O_2
REMARK    2  A    between atoms: O_2  and  C_3
REMARK    3  A    between atoms: C_6  and  C_7
REMARK    4  A    between atoms: C_7  and  N_8
REMARK    5  A    between atoms: C_9  and  C_11
REMARK    6  A    between atoms: C_16  and  N_17
REMARK    7  A    between atoms: C_24  and  O_25
REMARK                            x       y       z     vdW  Elec       q    Type
REMARK                         _______ _______ _______ _____ _____    ______ ____
ROOT
ATOM      1  N   UNL     1       2.126   7.200  20.096  0.00  0.00    +0.000 N 
ATOM      2  C   UNL     1       2.313   6.108  19.260  0.00  0.00    +0.000 C 
ATOM      3  O   UNL     1       2.248   6.224  18.040  0.00  0.00    +0.000 OA
ATOM      4  H   UNL     1       2.011   7.071  21.090  0.00  0.00    +0.000 HD
ENDROOT
BRANCH   2   5
ATOM      5  C   UNL     1       2.608   4.790  19.939  0.00  0.00    +0.000 A 
ATOM      6  C   UNL     1       1.697   4.376  20.942  0.00  0.00    +0.000 A 
ATOM      7  C   UNL     1       1.851   3.170  21.622  0.00  0.00    +0.000 A 
ATOM      8  C   UNL     1       2.906   2.339  21.297  0.00  0.00    +0.000 A 
ATOM      9  C   UNL     1       3.800   2.719  20.298  0.00  0.00    +0.000 A 
ATOM     10  C   UNL     1       3.700   3.941  19.588  0.00  0.00    +0.000 A 
BRANCH  10  11
ATOM     11  N   UNL     1       4.698   4.224  18.666  0.00  0.00    +0.000 N 
ATOM     12  C   UNL     1       5.799   5.150  18.970  0.00  0.00    +0.000 C 
ATOM     13  C   UNL     1       5.841   6.267  17.924  0.00  0.00    +0.000 C 
ATOM     14  C   UNL     1       5.898   5.692  16.510  0.00  0.00    +0.000 C 
ATOM     15  C   UNL     1       4.737   4.729  16.278  0.00  0.00    +0.000 C 
ATOM     16  C   UNL     1       4.714   3.622  17.333  0.00  0.00    +0.000 C 
ENDBRANCH  10  11
ENDBRANCH   2   5
BRANCH   1  17
ATOM     17  C   UNL     1       1.863   8.528  19.592  0.00  0.00    +0.000 C 
BRANCH  17  21
ATOM     18  C   UNL     1      -0.724  10.728  22.308  0.00  0.00    +0.000 A 
ATOM     19  C   UNL     1      -0.680  11.035  20.941  0.00  0.00    +0.000 A 
ATOM     20  C   UNL     1       0.146  10.328  20.061  0.00  0.00    +0.000 A 
ATOM     21  C   UNL     1       0.961   9.294  20.530  0.00  0.00    +0.000 A 
ATOM     22  C   UNL     1       0.929   8.989  21.901  0.00  0.00    +0.000 A 
ATOM     23  C   UNL     1       0.089   9.695  22.783  0.00  0.00    +0.000 A 
BRANCH  18  25
ATOM     24  C   UNL     1      -1.330  12.916  23.068  0.00  0.00    +0.000 C 
ATOM     25  O   UNL     1      -1.592  11.521  23.005  0.00  0.00    +0.000 OA
ENDBRANCH  18  25
BRANCH  23  26
ATOM     26  O   UNL     1       0.092   9.340  24.103  0.00  0.00    +0.000 OA
ATOM     27  H   UNL     1       0.944   8.929  24.322  0.00  0.00    +0.000 HD
ENDBRANCH  23  26
ENDBRANCH  17  21
ENDBRANCH   1  17
TORSDOF 6
ENDMDL
MODEL 2
REMARK VINA RESULT:      -7.6      0.844      1.337
REMARK  Name = 
REMARK  7 active torsions:
REMARK  status: ('A' for Active; 'I' for Inactive)
REMARK    1  A    between atoms: C_1  and  O_2
REMARK    2  A    between atoms: O_2  and  C_3
REMARK    3  A    between atoms: C_6  and  C_7
REMARK    4  A    between atoms: C_7  and  N_8
REMARK    5  A    between atoms: C_9  and  C_11
REMARK    6  A    between atoms: C_16  and  N_17
REMARK    7  A    between atoms: C_24  and  O_25
REMARK                            x       y       z     vdW  Elec       q    Type
REMARK                         _______ _______ _______ _____ _____    ______ ____
ROOT
ATOM      1  N   UNL     1       1.924   7.682  19.825  0.00  0.00    +0.000 N 
ATOM      2  C   UNL     1       2.549   6.798  18.956  0.00  0.00    +0.000 C 
ATOM      3  O   UNL     1       2.835   7.132  17.809  0.00  0.00    +0.000 OA
ATOM      4  H   UNL     1       1.540   7.355  20.699  0.00  0.00    +0.000 HD
ENDROOT
BRANCH   2   5
ATOM      5  C   UNL     1       2.859   5.425  19.507  0.00  0.00    +0.000 A 
ATOM      6  C   UNL     1       2.010   4.950  20.536  0.00  0.00    +0.000 A 
ATOM      7  C   UNL     1       2.182   3.691  21.107  0.00  0.00    +0.000 A 
ATOM      8  C   UNL     1       3.192   2.869  20.644  0.00  0.00    +0.000 A 
ATOM      9  C   UNL     1       4.023   3.311  19.617  0.00  0.00    +0.000 A 
ATOM     10  C   UNL     1       3.904   4.588  19.014  0.00  0.00    +0.000 A 
BRANCH  10  11
ATOM     11  N   UNL     1       4.842   4.925  18.049  0.00  0.00    +0.000 N 
ATOM     12  C   UNL     1       4.637   4.625  16.624  0.00  0.00    +0.000 C 
ATOM     13  C   UNL     1       5.805   3.788  16.097  0.00  0.00    +0.000 C 
ATOM     14  C   UNL     1       7.142   4.464  16.393  0.00  0.00    +0.000 C 
ATOM     15  C   UNL     1       7.272   4.759  17.885  0.00  0.00    +0.000 C 
ATOM     16  C   UNL     1       6.096   5.596  18.390  0.00  0.00    +0.000 C 
ENDBRANCH  10  11
ENDBRANCH   2   5
BRANCH   1  17
ATOM     17  C   UNL     1       1.590   9.036  19.450  0.00  0.00    +0.000 C 
BRANCH  17  21
ATOM     18  C   UNL     1      -0.871  10.922  22.499  0.00  0.00    +0.000 A 
ATOM     19  C   UNL     1      -0.882  11.379  21.174  0.00  0.00    +0.000 A 
ATOM     20  C   UNL     1      -0.097  10.773  20.187  0.00  0.00    +0.000 A 
ATOM     21  C   UNL     1       0.731   9.693  20.504  0.00  0.00    +0.000 A 
ATOM     22  C   UNL     1       0.754   9.238  21.833  0.00  0.00    +0.000 A 
ATOM     23  C   UNL     1      -0.045   9.843  22.821  0.00  0.00    +0.000 A 
BRANCH  18  25
ATOM     24  C   UNL     1      -1.784  13.041  23.139  0.00  0.00    +0.000 C 
ATOM     25  O   UNL     1      -1.705  11.633  23.315  0.00  0.00    +0.000 OA
ENDBRANCH  18  25
BRANCH  23  26
ATOM     26  O   UNL     1       0.011   9.342  24.093  0.00  0.00    +0.000 OA
ATOM     27  H   UNL     1      -0.729   8.728  24.229  0.00  0.00    +0.000 HD
ENDBRANCH  23  26
ENDBRANCH  17  21
ENDBRANCH   1  17
TORSDOF 6
ENDMDL
MODEL 3
REMARK VINA RESULT:      -7.6      0.697      1.367
REMARK  Name = 
REMARK  7 active torsions:
REMARK  status: ('A' for Active; 'I' for Inactive)
REMARK    1  A    between atoms: C_1  and  O_2
REMARK    2  A    between atoms: O_2  and  C_3
REMARK    3  A    between atoms: C_6  and  C_7
REMARK    4  A    between atoms: C_7  and  N_8
REMARK    5  A    between atoms: C_9  and  C_11
REMARK    6  A    between atoms: C_16  and  N_17
REMARK    7  A    between atoms: C_24  and  O_25
REMARK                            x       y       z     vdW  Elec       q    Type
REMARK                         _______ _______ _______ _____ _____    ______ ____
ROOT
ATOM      1  N   UNL     1       2.113   7.164  20.071  0.00  0.00    +0.000 N 
ATOM      2  C   UNL     1       2.335   6.075  19.238  0.00  0.00    +0.000 C 
ATOM      3  O   UNL     1       2.309   6.195  18.017  0.00  0.00    +0.000 OA
ATOM      4  H   UNL     1       1.966   7.030  21.060  0.00  0.00    +0.000 HD
ENDROOT
BRANCH   2   5
ATOM      5  C   UNL     1       2.617   4.757  19.923  0.00  0.00    +0.000 A 
ATOM      6  C   UNL     1       1.698   4.353  20.923  0.00  0.00    +0.000 A 
ATOM      7  C   UNL     1       1.840   3.148  21.607  0.00  0.00    +0.000 A 
ATOM      8  C   UNL     1       2.890   2.308  21.289  0.00  0.00    +0.000 A 
ATOM      9  C   UNL     1       3.791   2.679  20.293  0.00  0.00    +0.000 A 
ATOM     10  C   UNL     1       3.704   3.899  19.579  0.00  0.00    +0.000 A 
BRANCH  10  11
ATOM     11  N   UNL     1       4.709   4.172  18.661  0.00  0.00    +0.000 N 
ATOM     12  C   UNL     1       5.829   5.069  18.977  0.00  0.00    +0.000 C 
ATOM     13  C   UNL     1       5.896   6.198  17.946  0.00  0.00    +0.000 C 
ATOM     14  C   UNL     1       5.942   5.641  16.525  0.00  0.00    +0.000 C 
ATOM     15  C   UNL     1       4.759   4.707  16.280  0.00  0.00    +0.000 C 
ATOM     16  C   UNL     1       4.712   3.587  17.321  0.00  0.00    +0.000 C 
ENDBRANCH  10  11
ENDBRANCH   2   5
BRANCH   1  17
ATOM     17  C   UNL     1       1.857   8.491  19.563  0.00  0.00    +0.000 C 
BRANCH  17  21
ATOM     18  C   UNL     1      -0.412  10.860  22.417  0.00  0.00    +0.000 A 
ATOM     19  C   UNL     1      -0.111   9.515  22.669  0.00  0.00    +0.000 A 
ATOM     20  C   UNL     1       0.624   8.749  21.758  0.00  0.00    +0.000 A 
ATOM     21  C   UNL     1       1.071   9.310  20.559  0.00  0.00    +0.000 A 
ATOM     22  C   UNL     1       0.762  10.655  20.296  0.00  0.00    +0.000 A 
ATOM     23  C   UNL     1       0.032  11.427  21.220  0.00  0.00    +0.000 A 
BRANCH  18  25
ATOM     24  C   UNL     1      -2.450  11.889  23.141  0.00  0.00    +0.000 C 
ATOM     25  O   UNL     1      -1.130  11.444  23.423  0.00  0.00    +0.000 OA
ENDBRANCH  18  25
BRANCH  23  26
ATOM     26  O   UNL     1      -0.222  12.734  20.912  0.00  0.00    +0.000 OA
ATOM     27  H   UNL     1       0.504  13.288  21.242  0.00  0.00    +0.000 HD
ENDBRANCH  23  26
ENDBRANCH  17  21
ENDBRANCH   1  17
TORSDOF 6
ENDMDL
MODEL 4
REMARK VINA RESULT:      -7.5      1.493      3.681
REMARK  Name = 
REMARK  7 active torsions:
REMARK  status: ('A' for Active; 'I' for Inactive)
REMARK    1  A    between atoms: C_1  and  O_2
REMARK    2  A    between atoms: O_2  and  C_3
REMARK    3  A    between atoms: C_6  and  C_7
REMARK    4  A    between atoms: C_7  and  N_8
REMARK    5  A    between atoms: C_9  and  C_11
REMARK    6  A    between atoms: C_16  and  N_17
REMARK    7  A    between atoms: C_24  and  O_25
REMARK                            x       y       z     vdW  Elec       q    Type
REMARK                         _______ _______ _______ _____ _____    ______ ____
ROOT
ATOM      1  N   UNL     1       2.864   8.046  18.025  0.00  0.00    +0.000 N 
ATOM      2  C   UNL     1       2.905   6.667  17.873  0.00  0.00    +0.000 C 
ATOM      3  O   UNL     1       1.892   6.028  17.601  0.00  0.00    +0.000 OA
ATOM      4  H   UNL     1       3.652   8.543  18.412  0.00  0.00    +0.000 HD
ENDROOT
BRANCH   2   5
ATOM      5  C   UNL     1       4.257   6.015  18.051  0.00  0.00    +0.000 A 
ATOM      6  C   UNL     1       5.358   6.664  17.440  0.00  0.00    +0.000 A 
ATOM      7  C   UNL     1       6.656   6.170  17.553  0.00  0.00    +0.000 A 
ATOM      8  C   UNL     1       6.885   5.030  18.300  0.00  0.00    +0.000 A 
ATOM      9  C   UNL     1       5.817   4.390  18.925  0.00  0.00    +0.000 A 
ATOM     10  C   UNL     1       4.476   4.839  18.829  0.00  0.00    +0.000 A 
BRANCH  10  11
ATOM     11  N   UNL     1       3.501   4.067  19.446  0.00  0.00    +0.000 N 
ATOM     12  C   UNL     1       3.047   2.789  18.880  0.00  0.00    +0.000 C 
ATOM     13  C   UNL     1       1.531   2.824  18.671  0.00  0.00    +0.000 C 
ATOM     14  C   UNL     1       0.809   3.213  19.960  0.00  0.00    +0.000 C 
ATOM     15  C   UNL     1       1.348   4.538  20.493  0.00  0.00    +0.000 C 
ATOM     16  C   UNL     1       2.863   4.481  20.695  0.00  0.00    +0.000 C 
ENDBRANCH  10  11
ENDBRANCH   2   5
BRANCH   1  17
ATOM     17  C   UNL     1       1.649   8.811  17.859  0.00  0.00    +0.000 C 
BRANCH  17  21
ATOM     18  C   UNL     1       0.354  10.548  21.629  0.00  0.00    +0.000 A 
ATOM     19  C   UNL     1       0.718   9.197  21.541  0.00  0.00    +0.000 A 
ATOM     20  C   UNL     1       1.141   8.634  20.332  0.00  0.00    +0.000 A 
ATOM     21  C   UNL     1       1.203   9.409  19.172  0.00  0.00    +0.000 A 
ATOM     22  C   UNL     1       0.829  10.761  19.252  0.00  0.00    +0.000 A 
ATOM     23  C   UNL     1       0.414  11.328  20.472  0.00  0.00    +0.000 A 
BRANCH  18  25
ATOM     24  C   UNL     1      -1.412  10.973  23.189  0.00  0.00    +0.000 C 
ATOM     25  O   UNL     1      -0.024  10.917  22.890  0.00  0.00    +0.000 OA
ENDBRANCH  18  25
BRANCH  23  26
ATOM     26  O   UNL     1       0.078  12.653  20.488  0.00  0.00    +0.000 OA
ATOM     27  H   UNL     1       0.886  13.187  20.574  0.00  0.00    +0.000 HD
ENDBRANCH  23  26
ENDBRANCH  17  21
ENDBRANCH   1  17
TORSDOF 6
ENDMDL
MODEL 5
REMARK VINA RESULT:      -7.4      1.389      3.422
REMARK  Name = 
REMARK  7 active torsions:
REMARK  status: ('A' for Active; 'I' for Inactive)
REMARK    1  A    between atoms: C_1  and  O_2
REMARK    2  A    between atoms: O_2  and  C_3
REMARK    3  A    between atoms: C_6  and  C_7
REMARK    4  A    between atoms: C_7  and  N_8
REMARK    5  A    between atoms: C_9  and  C_11
REMARK    6  A    between atoms: C_16  and  N_17
REMARK    7  A    between atoms: C_24  and  O_25
REMARK                            x       y       z     vdW  Elec       q    Type
REMARK                         _______ _______ _______ _____ _____    ______ ____
ROOT
ATOM      1  N   UNL     1       2.626   8.151  18.156  0.00  0.00    +0.000 N 
ATOM      2  C   UNL     1       2.718   6.785  17.928  0.00  0.00    +0.000 C 
ATOM      3  O   UNL     1       1.728   6.124  17.628  0.00  0.00    +0.000 OA
ATOM      4  H   UNL     1       3.399   8.655  18.565  0.00  0.00    +0.000 HD
ENDROOT
BRANCH   2   5
ATOM      5  C   UNL     1       4.095   6.176  18.062  0.00  0.00    +0.000 A 
ATOM      6  C   UNL     1       5.159   6.872  17.437  0.00  0.00    +0.000 A 
ATOM      7  C   UNL     1       6.475   6.421  17.509  0.00  0.00    +0.000 A 
ATOM      8  C   UNL     1       6.760   5.277  18.229  0.00  0.00    +0.000 A 
ATOM      9  C   UNL     1       5.730   4.591  18.869  0.00  0.00    +0.000 A 
ATOM     10  C   UNL     1       4.373   4.995  18.813  0.00  0.00    +0.000 A 
BRANCH  10  11
ATOM     11  N   UNL     1       3.440   4.180  19.439  0.00  0.00    +0.000 N 
ATOM     12  C   UNL     1       3.011   2.899  18.860  0.00  0.00    +0.000 C 
ATOM     13  C   UNL     1       1.490   2.890  18.691  0.00  0.00    +0.000 C 
ATOM     14  C   UNL     1       0.791   3.230  20.006  0.00  0.00    +0.000 C 
ATOM     15  C   UNL     1       1.302   4.560  20.553  0.00  0.00    +0.000 C 
ATOM     16  C   UNL     1       2.823   4.548  20.713  0.00  0.00    +0.000 C 
ENDBRANCH  10  11
ENDBRANCH   2   5
BRANCH   1  17
ATOM     17  C   UNL     1       1.382   8.877  18.040  0.00  0.00    +0.000 C 
BRANCH  17  21
ATOM     18  C   UNL     1       0.102  10.368  21.919  0.00  0.00    +0.000 A 
ATOM     19  C   UNL     1      -0.589  10.708  20.747  0.00  0.00    +0.000 A 
ATOM     20  C   UNL     1      -0.186  10.227  19.498  0.00  0.00    +0.000 A 
ATOM     21  C   UNL     1       0.931   9.395  19.384  0.00  0.00    +0.000 A 
ATOM     22  C   UNL     1       1.634   9.060  20.554  0.00  0.00    +0.000 A 
ATOM     23  C   UNL     1       1.220   9.537  21.812  0.00  0.00    +0.000 A 
BRANCH  18  25
ATOM     24  C   UNL     1      -1.162  12.145  22.907  0.00  0.00    +0.000 C 
ATOM     25  O   UNL     1      -0.443  10.927  23.041  0.00  0.00    +0.000 OA
ENDBRANCH  18  25
BRANCH  23  26
ATOM     26  O   UNL     1       1.937   9.161  22.914  0.00  0.00    +0.000 OA
ATOM     27  H   UNL     1       1.552   9.577  23.703  0.00  0.00    +0.000 HD
ENDBRANCH  23  26
ENDBRANCH  17  21
ENDBRANCH   1  17
TORSDOF 6
ENDMDL
MODEL 6
REMARK VINA RESULT:      -7.4      2.251      3.078
REMARK  Name = 
REMARK  7 active torsions:
REMARK  status: ('A' for Active; 'I' for Inactive)
REMARK    1  A    between atoms: C_1  and  O_2
REMARK    2  A    between atoms: O_2  and  C_3
REMARK    3  A    between atoms: C_6  and  C_7
REMARK    4  A    between atoms: C_7  and  N_8
REMARK    5  A    between atoms: C_9  and  C_11
REMARK    6  A    between atoms: C_16  and  N_17
REMARK    7  A    between atoms: C_24  and  O_25
REMARK                            x       y       z     vdW  Elec       q    Type
REMARK                         _______ _______ _______ _____ _____    ______ ____
ROOT
ATOM      1  N   UNL     1       1.851   6.313  20.112  0.00  0.00    +0.000 N 
ATOM      2  C   UNL     1       2.285   5.050  20.489  0.00  0.00    +0.000 C 
ATOM      3  O   UNL     1       2.396   4.744  21.673  0.00  0.00    +0.000 OA
ATOM      4  H   UNL     1       1.924   6.615  19.152  0.00  0.00    +0.000 HD
ENDROOT
BRANCH   2   5
ATOM      5  C   UNL     1       2.599   4.088  19.366  0.00  0.00    +0.000 A 
ATOM      6  C   UNL     1       1.747   2.964  19.238  0.00  0.00    +0.000 A 
ATOM      7  C   UNL     1       1.922   2.020  18.228  0.00  0.00    +0.000 A 
ATOM      8  C   UNL     1       2.939   2.193  17.308  0.00  0.00    +0.000 A 
ATOM      9  C   UNL     1       3.774   3.304  17.406  0.00  0.00    +0.000 A 
ATOM     10  C   UNL     1       3.651   4.284  18.422  0.00  0.00    +0.000 A 
BRANCH  10  11
ATOM     11  N   UNL     1       4.594   5.303  18.440  0.00  0.00    +0.000 N 
ATOM     12  C   UNL     1       4.443   6.517  17.626  0.00  0.00    +0.000 C 
ATOM     13  C   UNL     1       5.670   6.696  16.729  0.00  0.00    +0.000 C 
ATOM     14  C   UNL     1       6.958   6.666  17.550  0.00  0.00    +0.000 C 
ATOM     15  C   UNL     1       7.032   5.386  18.379  0.00  0.00    +0.000 C 
ATOM     16  C   UNL     1       5.797   5.228  19.267  0.00  0.00    +0.000 C 
ENDBRANCH  10  11
ENDBRANCH   2   5
BRANCH   1  17
ATOM     17  C   UNL     1       1.489   7.330  21.073  0.00  0.00    +0.000 C 
BRANCH  17  21
ATOM     18  C   UNL     1       0.529  11.068  19.069  0.00  0.00    +0.000 A 
ATOM     19  C   UNL     1      -0.045  10.740  20.305  0.00  0.00    +0.000 A 
ATOM     20  C   UNL     1       0.264   9.542  20.957  0.00  0.00    +0.000 A 
ATOM     21  C   UNL     1       1.154   8.631  20.383  0.00  0.00    +0.000 A 
ATOM     22  C   UNL     1       1.724   8.950  19.139  0.00  0.00    +0.000 A 
ATOM     23  C   UNL     1       1.420  10.161  18.490  0.00  0.00    +0.000 A 
BRANCH  18  25
ATOM     24  C   UNL     1      -1.277  12.473  18.365  0.00  0.00    +0.000 C 
ATOM     25  O   UNL     1       0.112  12.279  18.592  0.00  0.00    +0.000 OA
ENDBRANCH  18  25
BRANCH  23  26
ATOM     26  O   UNL     1       2.020  10.419  17.289  0.00  0.00    +0.000 OA
ATOM     27  H   UNL     1       2.840  10.918  17.441  0.00  0.00    +0.000 HD
ENDBRANCH  23  26
ENDBRANCH  17  21
ENDBRANCH   1  17
TORSDOF 6
ENDMDL
MODEL 7
REMARK VINA RESULT:      -7.4      1.422      2.124
REMARK  Name = 
REMARK  7 active torsions:
REMARK  status: ('A' for Active; 'I' for Inactive)
REMARK    1  A    between atoms: C_1  and  O_2
REMARK    2  A    between atoms: O_2  and  C_3
REMARK    3  A    between atoms: C_6  and  C_7
REMARK    4  A    between atoms: C_7  and  N_8
REMARK    5  A    between atoms: C_9  and  C_11
REMARK    6  A    between atoms: C_16  and  N_17
REMARK    7  A    between atoms: C_24  and  O_25
REMARK                            x       y       z     vdW  Elec       q    Type
REMARK                         _______ _______ _______ _____ _____    ______ ____
ROOT
ATOM      1  N   UNL     1       2.897   6.770  18.753  0.00  0.00    +0.000 N 
ATOM      2  C   UNL     1       2.313   5.534  18.513  0.00  0.00    +0.000 C 
ATOM      3  O   UNL     1       1.470   5.391  17.632  0.00  0.00    +0.000 OA
ATOM      4  H   UNL     1       3.456   6.921  19.580  0.00  0.00    +0.000 HD
ENDROOT
BRANCH   2   5
ATOM      5  C   UNL     1       2.782   4.392  19.386  0.00  0.00    +0.000 A 
ATOM      6  C   UNL     1       1.885   3.951  20.389  0.00  0.00    +0.000 A 
ATOM      7  C   UNL     1       2.197   2.893  21.240  0.00  0.00    +0.000 A 
ATOM      8  C   UNL     1       3.403   2.236  21.090  0.00  0.00    +0.000 A 
ATOM      9  C   UNL     1       4.289   2.642  20.094  0.00  0.00    +0.000 A 
ATOM     10  C   UNL     1       4.031   3.722  19.215  0.00  0.00    +0.000 A 
BRANCH  10  11
ATOM     11  N   UNL     1       5.031   4.063  18.315  0.00  0.00    +0.000 N 
ATOM     12  C   UNL     1       6.224   4.816  18.725  0.00  0.00    +0.000 C 
ATOM     13  C   UNL     1       6.353   6.086  17.881  0.00  0.00    +0.000 C 
ATOM     14  C   UNL     1       6.321   5.758  16.390  0.00  0.00    +0.000 C 
ATOM     15  C   UNL     1       5.065   4.962  16.046  0.00  0.00    +0.000 C 
ATOM     16  C   UNL     1       4.956   3.699  16.900  0.00  0.00    +0.000 C 
ENDBRANCH  10  11
ENDBRANCH   2   5
BRANCH   1  17
ATOM     17  C   UNL     1       2.569   7.948  17.983  0.00  0.00    +0.000 C 
BRANCH  17  21
ATOM     18  C   UNL     1      -0.193  10.520  20.143  0.00  0.00    +0.000 A 
ATOM     19  C   UNL     1       0.521   9.508  20.801  0.00  0.00    +0.000 A 
ATOM     20  C   UNL     1       1.415   8.682  20.113  0.00  0.00    +0.000 A 
ATOM     21  C   UNL     1       1.613   8.840  18.739  0.00  0.00    +0.000 A 
ATOM     22  C   UNL     1       0.892   9.844  18.072  0.00  0.00    +0.000 A 
ATOM     23  C   UNL     1       0.001  10.682  18.769  0.00  0.00    +0.000 A 
BRANCH  18  25
ATOM     24  C   UNL     1      -0.873  11.031  22.381  0.00  0.00    +0.000 C 
ATOM     25  O   UNL     1      -1.010  11.226  20.980  0.00  0.00    +0.000 OA
ENDBRANCH  18  25
BRANCH  23  26
ATOM     26  O   UNL     1      -0.659  11.652  18.066  0.00  0.00    +0.000 OA
ATOM     27  H   UNL     1      -1.277  12.112  18.658  0.00  0.00    +0.000 HD
ENDBRANCH  23  26
ENDBRANCH  17  21
ENDBRANCH   1  17
TORSDOF 6
ENDMDL
MODEL 8
REMARK VINA RESULT:      -7.4      2.377      4.296
REMARK  Name = 
REMARK  7 active torsions:
REMARK  status: ('A' for Active; 'I' for Inactive)
REMARK    1  A    between atoms: C_1  and  O_2
REMARK    2  A    between atoms: O_2  and  C_3
REMARK    3  A    between atoms: C_6  and  C_7
REMARK    4  A    between atoms: C_7  and  N_8
REMARK    5  A    between atoms: C_9  and  C_11
REMARK    6  A    between atoms: C_16  and  N_17
REMARK    7  A    between atoms: C_24  and  O_25
REMARK                            x       y       z     vdW  Elec       q    Type
REMARK                         _______ _______ _______ _____ _____    ______ ____
ROOT
ATOM      1  N   UNL     1       2.183   7.790  19.042  0.00  0.00    +0.000 N 
ATOM      2  C   UNL     1       2.807   6.573  19.279  0.00  0.00    +0.000 C 
ATOM      3  O   UNL     1       2.719   6.017  20.370  0.00  0.00    +0.000 OA
ATOM      4  H   UNL     1       2.396   8.322  18.211  0.00  0.00    +0.000 HD
ENDROOT
BRANCH   2   5
ATOM      5  C   UNL     1       3.580   5.982  18.122  0.00  0.00    +0.000 A 
ATOM      6  C   UNL     1       4.296   6.893  17.307  0.00  0.00    +0.000 A 
ATOM      7  C   UNL     1       5.062   6.466  16.225  0.00  0.00    +0.000 A 
ATOM      8  C   UNL     1       5.151   5.115  15.950  0.00  0.00    +0.000 A 
ATOM      9  C   UNL     1       4.472   4.202  16.754  0.00  0.00    +0.000 A 
ATOM     10  C   UNL     1       3.665   4.583  17.854  0.00  0.00    +0.000 A 
BRANCH  10  11
ATOM     11  N   UNL     1       2.990   3.574  18.528  0.00  0.00    +0.000 N 
ATOM     12  C   UNL     1       1.554   3.332  18.329  0.00  0.00    +0.000 C 
ATOM     13  C   UNL     1       0.824   3.406  19.672  0.00  0.00    +0.000 C 
ATOM     14  C   UNL     1       1.466   2.473  20.697  0.00  0.00    +0.000 C 
ATOM     15  C   UNL     1       2.956   2.774  20.833  0.00  0.00    +0.000 C 
ATOM     16  C   UNL     1       3.665   2.694  19.480  0.00  0.00    +0.000 C 
ENDBRANCH  10  11
ENDBRANCH   2   5
BRANCH   1  17
ATOM     17  C   UNL     1       1.387   8.464  20.042  0.00  0.00    +0.000 C 
BRANCH  17  21
ATOM     18  C   UNL     1       0.121  12.374  18.624  0.00  0.00    +0.000 A 
ATOM     19  C   UNL     1      -0.714  11.592  19.434  0.00  0.00    +0.000 A 
ATOM     20  C   UNL     1      -0.310  10.336  19.899  0.00  0.00    +0.000 A 
ATOM     21  C   UNL     1       0.943   9.822  19.555  0.00  0.00    +0.000 A 
ATOM     22  C   UNL     1       1.779  10.597  18.733  0.00  0.00    +0.000 A 
ATOM     23  C   UNL     1       1.375  11.866  18.277  0.00  0.00    +0.000 A 
BRANCH  18  25
ATOM     24  C   UNL     1      -0.202  14.697  19.109  0.00  0.00    +0.000 C 
ATOM     25  O   UNL     1      -0.442  13.571  18.276  0.00  0.00    +0.000 OA
ENDBRANCH  18  25
BRANCH  23  26
ATOM     26  O   UNL     1       2.241  12.577  17.494  0.00  0.00    +0.000 OA
ATOM     27  H   UNL     1       1.740  13.223  16.967  0.00  0.00    +0.000 HD
ENDBRANCH  23  26
ENDBRANCH  17  21
ENDBRANCH   1  17
TORSDOF 6
ENDMDL
MODEL 9
REMARK VINA RESULT:      -7.3      1.052      1.826
REMARK  Name = 
REMARK  7 active torsions:
REMARK  status: ('A' for Active; 'I' for Inactive)
REMARK    1  A    between atoms: C_1  and  O_2
REMARK    2  A    between atoms: O_2  and  C_3
REMARK    3  A    between atoms: C_6  and  C_7
REMARK    4  A    between atoms: C_7  and  N_8
REMARK    5  A    between atoms: C_9  and  C_11
REMARK    6  A    between atoms: C_16  and  N_17
REMARK    7  A    between atoms: C_24  and  O_25
REMARK                            x       y       z     vdW  Elec       q    Type
REMARK                         _______ _______ _______ _____ _____    ______ ____
ROOT
ATOM      1  N   UNL     1       2.248   7.267  19.680  0.00  0.00    +0.000 N 
ATOM      2  C   UNL     1       2.267   6.145  18.863  0.00  0.00    +0.000 C 
ATOM      3  O   UNL     1       1.861   6.196  17.705  0.00  0.00    +0.000 OA
ATOM      4  H   UNL     1       2.420   7.182  20.671  0.00  0.00    +0.000 HD
ENDROOT
BRANCH   2   5
ATOM      5  C   UNL     1       2.820   4.879  19.478  0.00  0.00    +0.000 A 
ATOM      6  C   UNL     1       2.057   4.294  20.517  0.00  0.00    +0.000 A 
ATOM      7  C   UNL     1       2.453   3.115  21.145  0.00  0.00    +0.000 A 
ATOM      8  C   UNL     1       3.608   2.482  20.730  0.00  0.00    +0.000 A 
ATOM      9  C   UNL     1       4.361   3.032  19.694  0.00  0.00    +0.000 A 
ATOM     10  C   UNL     1       4.014   4.236  19.034  0.00  0.00    +0.000 A 
BRANCH  10  11
ATOM     11  N   UNL     1       4.891   4.706  18.066  0.00  0.00    +0.000 N 
ATOM     12  C   UNL     1       4.653   4.492  16.631  0.00  0.00    +0.000 C 
ATOM     13  C   UNL     1       5.854   3.778  16.007  0.00  0.00    +0.000 C 
ATOM     14  C   UNL     1       7.153   4.525  16.307  0.00  0.00    +0.000 C 
ATOM     15  C   UNL     1       7.318   4.724  17.811  0.00  0.00    +0.000 C 
ATOM     16  C   UNL     1       6.107   5.438  18.414  0.00  0.00    +0.000 C 
ENDBRANCH  10  11
ENDBRANCH   2   5
BRANCH   1  17
ATOM     17  C   UNL     1       1.773   8.553  19.225  0.00  0.00    +0.000 C 
BRANCH  17  21
ATOM     18  C   UNL     1      -0.360  10.653  22.378  0.00  0.00    +0.000 A 
ATOM     19  C   UNL     1      -0.259   9.255  22.379  0.00  0.00    +0.000 A 
ATOM     20  C   UNL     1       0.431   8.574  21.371  0.00  0.00    +0.000 A 
ATOM     21  C   UNL     1       1.034   9.277  20.324  0.00  0.00    +0.000 A 
ATOM     22  C   UNL     1       0.925  10.678  20.313  0.00  0.00    +0.000 A 
ATOM     23  C   UNL     1       0.240  11.361  21.335  0.00  0.00    +0.000 A 
BRANCH  18  25
ATOM     24  C   UNL     1      -2.322  11.752  23.201  0.00  0.00    +0.000 C 
ATOM     25  O   UNL     1      -1.065  11.137  23.446  0.00  0.00    +0.000 OA
ENDBRANCH  18  25
BRANCH  23  26
ATOM     26  O   UNL     1       0.183  12.726  21.274  0.00  0.00    +0.000 OA
ATOM     27  H   UNL     1       0.901  13.051  20.705  0.00  0.00    +0.000 HD
ENDBRANCH  23  26
ENDBRANCH  17  21
ENDBRANCH   1  17
TORSDOF 6
ENDMDL
