MODEL 1
REMARK VINA RESULT:      -6.7      0.000      0.000
REMARK  Name = 
REMARK  2 active torsions:
REMARK  status: ('A' for Active; 'I' for Inactive)
REMARK    1  A    between atoms: C_4  and  C_5
REMARK    2  A    between atoms: C_15  and  C_16
REMARK                            x       y       z     vdW  Elec       q    Type
REMARK                         _______ _______ _______ _____ _____    ______ ____
ROOT
ATOM      1  O   UNL     1       3.126   8.497  17.155  0.00  0.00    +0.000 OA
ATOM      2  C   UNL     1       2.470   8.115  18.117  0.00  0.00    +0.000 C 
ATOM      3  C   UNL     1       2.582   6.726  18.655  0.00  0.00    +0.000 C 
ATOM      4  C   UNL     1       2.602   5.736  17.742  0.00  0.00    +0.000 C 
ATOM      5  C   UNL     1       2.593   6.564  20.141  0.00  0.00    +0.000 C 
ATOM      6  S   UNL     1       1.060   7.219  20.832  0.00  0.00    +0.000 S 
ATOM      7  C   UNL     1       1.301   8.915  20.264  0.00  0.00    +0.000 C 
ATOM      8  C   UNL     1       1.433   8.972  18.773  0.00  0.00    +0.000 C 
ATOM      9  C   UNL     1       0.677   9.716  17.941  0.00  0.00    +0.000 C 
ENDROOT
BRANCH   4  10
ATOM     10  C   UNL     1       2.491   4.326  18.119  0.00  0.00    +0.000 A 
ATOM     11  C   UNL     1       1.222   3.783  18.331  0.00  0.00    +0.000 A 
ATOM     12  C   UNL     1       1.134   2.481  18.791  0.00  0.00    +0.000 A 
ATOM     13  N   UNL     1       2.206   1.703  19.042  0.00  0.00    +0.000 NA
ATOM     14  C   UNL     1       3.422   2.250  18.819  0.00  0.00    +0.000 A 
ATOM     15  C   UNL     1       3.616   3.542  18.361  0.00  0.00    +0.000 A 
ENDBRANCH   4  10
BRANCH   9  16
ATOM     16  C   UNL     1      -0.471  10.495  18.409  0.00  0.00    +0.000 A 
ATOM     17  C   UNL     1      -1.770  10.170  18.027  0.00  0.00    +0.000 A 
ATOM     18  C   UNL     1      -2.794  11.015  18.421  0.00  0.00    +0.000 A 
ATOM     19  N   UNL     1      -2.608  12.134  19.156  0.00  0.00    +0.000 NA
ATOM     20  C   UNL     1      -1.340  12.417  19.523  0.00  0.00    +0.000 A 
ATOM     21  C   UNL     1      -0.251  11.637  19.179  0.00  0.00    +0.000 A 
ENDBRANCH   9  16
TORSDOF 2
ENDMDL
MODEL 2
REMARK VINA RESULT:      -6.7      1.250      1.777
REMARK  Name = 
REMARK  2 active torsions:
REMARK  status: ('A' for Active; 'I' for Inactive)
REMARK    1  A    between atoms: C_4  and  C_5
REMARK    2  A    between atoms: C_15  and  C_16
REMARK                            x       y       z     vdW  Elec       q    Type
REMARK                         _______ _______ _______ _____ _____    ______ ____
ROOT
ATOM      1  O   UNL     1       2.252   9.496  17.372  0.00  0.00    +0.000 OA
ATOM      2  C   UNL     1       1.641   9.048  18.334  0.00  0.00    +0.000 C 
ATOM      3  C   UNL     1       2.074   7.807  19.044  0.00  0.00    +0.000 C 
ATOM      4  C   UNL     1       2.438   6.773  18.262  0.00  0.00    +0.000 C 
ATOM      5  C   UNL     1       1.997   7.808  20.537  0.00  0.00    +0.000 C 
ATOM      6  S   UNL     1       0.290   8.081  21.055  0.00  0.00    +0.000 S 
ATOM      7  C   UNL     1       0.116   9.710  20.298  0.00  0.00    +0.000 C 
ATOM      8  C   UNL     1       0.359   9.648  18.821  0.00  0.00    +0.000 C 
ATOM      9  C   UNL     1      -0.493  10.065  17.862  0.00  0.00    +0.000 C 
ENDROOT
BRANCH   4  10
ATOM     10  C   UNL     1       2.677   5.434  18.802  0.00  0.00    +0.000 A 
ATOM     11  C   UNL     1       3.980   5.065  19.138  0.00  0.00    +0.000 A 
ATOM     12  C   UNL     1       4.210   3.763  19.545  0.00  0.00    +0.000 A 
ATOM     13  N   UNL     1       3.242   2.828  19.640  0.00  0.00    +0.000 NA
ATOM     14  C   UNL     1       1.988   3.214  19.319  0.00  0.00    +0.000 A 
ATOM     15  C   UNL     1       1.656   4.491  18.900  0.00  0.00    +0.000 A 
ENDBRANCH   4  10
BRANCH   9  16
ATOM     16  C   UNL     1      -1.845  10.539  18.166  0.00  0.00    +0.000 A 
ATOM     17  C   UNL     1      -2.969   9.909  17.639  0.00  0.00    +0.000 A 
ATOM     18  C   UNL     1      -4.207  10.479  17.882  0.00  0.00    +0.000 A 
ATOM     19  N   UNL     1      -4.390  11.607  18.603  0.00  0.00    +0.000 NA
ATOM     20  C   UNL     1      -3.283  12.189  19.113  0.00  0.00    +0.000 A 
ATOM     21  C   UNL     1      -2.004  11.698  18.926  0.00  0.00    +0.000 A 
ENDBRANCH   9  16
TORSDOF 2
ENDMDL
MODEL 3
REMARK VINA RESULT:      -6.7      0.266      1.058
REMARK  Name = 
REMARK  2 active torsions:
REMARK  status: ('A' for Active; 'I' for Inactive)
REMARK    1  A    between atoms: C_4  and  C_5
REMARK    2  A    between atoms: C_15  and  C_16
REMARK                            x       y       z     vdW  Elec       q    Type
REMARK                         _______ _______ _______ _____ _____    ______ ____
ROOT
ATOM      1  O   UNL     1       2.929   8.656  17.124  0.00  0.00    +0.000 OA
ATOM      2  C   UNL     1       2.308   8.279  18.110  0.00  0.00    +0.000 C 
ATOM      3  C   UNL     1       2.493   6.917  18.695  0.00  0.00    +0.000 C 
ATOM      4  C   UNL     1       2.544   5.897  17.817  0.00  0.00    +0.000 C 
ATOM      5  C   UNL     1       2.535   6.809  20.185  0.00  0.00    +0.000 C 
ATOM      6  S   UNL     1       0.984   7.417  20.880  0.00  0.00    +0.000 S 
ATOM      7  C   UNL     1       1.136   9.101  20.248  0.00  0.00    +0.000 C 
ATOM      8  C   UNL     1       1.243   9.110  18.753  0.00  0.00    +0.000 C 
ATOM      9  C   UNL     1       0.439   9.788  17.909  0.00  0.00    +0.000 C 
ENDROOT
BRANCH   4  10
ATOM     10  C   UNL     1       2.505   4.497  18.245  0.00  0.00    +0.000 A 
ATOM     11  C   UNL     1       3.709   3.816  18.434  0.00  0.00    +0.000 A 
ATOM     12  C   UNL     1       3.660   2.466  18.733  0.00  0.00    +0.000 A 
ATOM     13  N   UNL     1       2.511   1.770  18.858  0.00  0.00    +0.000 NA
ATOM     14  C   UNL     1       1.360   2.455  18.681  0.00  0.00    +0.000 A 
ATOM     15  C   UNL     1       1.303   3.805  18.377  0.00  0.00    +0.000 A 
ENDBRANCH   4  10
BRANCH   9  16
ATOM     16  C   UNL     1      -0.737  10.529  18.369  0.00  0.00    +0.000 A 
ATOM     17  C   UNL     1      -2.022  10.165  17.977  0.00  0.00    +0.000 A 
ATOM     18  C   UNL     1      -3.075  10.977  18.364  0.00  0.00    +0.000 A 
ATOM     19  N   UNL     1      -2.929  12.099  19.102  0.00  0.00    +0.000 NA
ATOM     20  C   UNL     1      -1.673  12.421  19.480  0.00  0.00    +0.000 A 
ATOM     21  C   UNL     1      -0.558  11.676  19.143  0.00  0.00    +0.000 A 
ENDBRANCH   9  16
TORSDOF 2
ENDMDL
MODEL 4
REMARK VINA RESULT:      -6.6      0.165      1.461
REMARK  Name = 
REMARK  2 active torsions:
REMARK  status: ('A' for Active; 'I' for Inactive)
REMARK    1  A    between atoms: C_4  and  C_5
REMARK    2  A    between atoms: C_15  and  C_16
REMARK                            x       y       z     vdW  Elec       q    Type
REMARK                         _______ _______ _______ _____ _____    ______ ____
ROOT
ATOM      1  O   UNL     1       3.130   8.531  17.188  0.00  0.00    +0.000 OA
ATOM      2  C   UNL     1       2.446   8.178  18.140  0.00  0.00    +0.000 C 
ATOM      3  C   UNL     1       2.545   6.808  18.727  0.00  0.00    +0.000 C 
ATOM      4  C   UNL     1       2.598   5.789  17.848  0.00  0.00    +0.000 C 
ATOM      5  C   UNL     1       2.508   6.695  20.217  0.00  0.00    +0.000 C 
ATOM      6  S   UNL     1       0.952   7.365  20.837  0.00  0.00    +0.000 S 
ATOM      7  C   UNL     1       1.204   9.043  20.221  0.00  0.00    +0.000 C 
ATOM      8  C   UNL     1       1.385   9.051  18.733  0.00  0.00    +0.000 C 
ATOM      9  C   UNL     1       0.653   9.764  17.853  0.00  0.00    +0.000 C 
ENDROOT
BRANCH   4  10
ATOM     10  C   UNL     1       2.480   4.391  18.268  0.00  0.00    +0.000 A 
ATOM     11  C   UNL     1       3.641   3.629  18.406  0.00  0.00    +0.000 A 
ATOM     12  C   UNL     1       3.512   2.282  18.697  0.00  0.00    +0.000 A 
ATOM     13  N   UNL     1       2.324   1.664  18.860  0.00  0.00    +0.000 NA
ATOM     14  C   UNL     1       1.216   2.427  18.732  0.00  0.00    +0.000 A 
ATOM     15  C   UNL     1       1.240   3.781  18.441  0.00  0.00    +0.000 A 
ENDBRANCH   4  10
BRANCH   9  16
ATOM     16  C   UNL     1      -0.513  10.552  18.259  0.00  0.00    +0.000 A 
ATOM     17  C   UNL     1      -0.389  11.637  19.122  0.00  0.00    +0.000 A 
ATOM     18  C   UNL     1      -1.548  12.266  19.546  0.00  0.00    +0.000 A 
ATOM     19  N   UNL     1      -2.790  11.891  19.169  0.00  0.00    +0.000 NA
ATOM     20  C   UNL     1      -2.879  10.844  18.321  0.00  0.00    +0.000 A 
ATOM     21  C   UNL     1      -1.783  10.151  17.842  0.00  0.00    +0.000 A 
ENDBRANCH   9  16
TORSDOF 2
ENDMDL
MODEL 5
REMARK VINA RESULT:      -6.6      0.134      1.035
REMARK  Name = 
REMARK  2 active torsions:
REMARK  status: ('A' for Active; 'I' for Inactive)
REMARK    1  A    between atoms: C_4  and  C_5
REMARK    2  A    between atoms: C_15  and  C_16
REMARK                            x       y       z     vdW  Elec       q    Type
REMARK                         _______ _______ _______ _____ _____    ______ ____
ROOT
ATOM      1  O   UNL     1       3.209   8.415  17.182  0.00  0.00    +0.000 OA
ATOM      2  C   UNL     1       2.517   8.067  18.131  0.00  0.00    +0.000 C 
ATOM      3  C   UNL     1       2.580   6.686  18.697  0.00  0.00    +0.000 C 
ATOM      4  C   UNL     1       2.601   5.679  17.802  0.00  0.00    +0.000 C 
ATOM      5  C   UNL     1       2.544   6.552  20.185  0.00  0.00    +0.000 C 
ATOM      6  S   UNL     1       1.009   7.256  20.820  0.00  0.00    +0.000 S 
ATOM      7  C   UNL     1       1.308   8.935  20.229  0.00  0.00    +0.000 C 
ATOM      8  C   UNL     1       1.484   8.961  18.741  0.00  0.00    +0.000 C 
ATOM      9  C   UNL     1       0.770   9.708  17.875  0.00  0.00    +0.000 C 
ENDROOT
BRANCH   4  10
ATOM     10  C   UNL     1       2.444   4.279  18.201  0.00  0.00    +0.000 A 
ATOM     11  C   UNL     1       1.157   3.765  18.364  0.00  0.00    +0.000 A 
ATOM     12  C   UNL     1       1.021   2.475  18.845  0.00  0.00    +0.000 A 
ATOM     13  N   UNL     1       2.065   1.681  19.161  0.00  0.00    +0.000 NA
ATOM     14  C   UNL     1       3.301   2.200  18.984  0.00  0.00    +0.000 A 
ATOM     15  C   UNL     1       3.542   3.479  18.510  0.00  0.00    +0.000 A 
ENDBRANCH   4  10
BRANCH   9  16
ATOM     16  C   UNL     1      -0.372  10.522  18.296  0.00  0.00    +0.000 A 
ATOM     17  C   UNL     1      -0.213  11.595  19.169  0.00  0.00    +0.000 A 
ATOM     18  C   UNL     1      -1.352  12.250  19.607  0.00  0.00    +0.000 A 
ATOM     19  N   UNL     1      -2.606  11.912  19.236  0.00  0.00    +0.000 NA
ATOM     20  C   UNL     1      -2.730  10.876  18.378  0.00  0.00    +0.000 A 
ATOM     21  C   UNL     1      -1.655  10.159  17.885  0.00  0.00    +0.000 A 
ENDBRANCH   9  16
TORSDOF 2
ENDMDL
MODEL 6
REMARK VINA RESULT:      -6.6      1.349      1.748
REMARK  Name = 
REMARK  2 active torsions:
REMARK  status: ('A' for Active; 'I' for Inactive)
REMARK    1  A    between atoms: C_4  and  C_5
REMARK    2  A    between atoms: C_15  and  C_16
REMARK                            x       y       z     vdW  Elec       q    Type
REMARK                         _______ _______ _______ _____ _____    ______ ____
ROOT
ATOM      1  O   UNL     1       2.204  10.091  17.628  0.00  0.00    +0.000 OA
ATOM      2  C   UNL     1       1.566   9.465  18.466  0.00  0.00    +0.000 C 
ATOM      3  C   UNL     1       2.042   8.161  19.018  0.00  0.00    +0.000 C 
ATOM      4  C   UNL     1       2.532   7.282  18.123  0.00  0.00    +0.000 C 
ATOM      5  C   UNL     1       1.867   7.932  20.485  0.00  0.00    +0.000 C 
ATOM      6  S   UNL     1       0.115   8.015  20.906  0.00  0.00    +0.000 S 
ATOM      7  C   UNL     1      -0.129   9.725  20.384  0.00  0.00    +0.000 C 
ATOM      8  C   UNL     1       0.214   9.903  18.936  0.00  0.00    +0.000 C 
ATOM      9  C   UNL     1      -0.602  10.404  17.987  0.00  0.00    +0.000 C 
ENDROOT
BRANCH   4  10
ATOM     10  C   UNL     1       2.833   5.894  18.479  0.00  0.00    +0.000 A 
ATOM     11  C   UNL     1       1.831   4.932  18.343  0.00  0.00    +0.000 A 
ATOM     12  C   UNL     1       2.091   3.646  18.782  0.00  0.00    +0.000 A 
ATOM     13  N   UNL     1       3.264   3.268  19.332  0.00  0.00    +0.000 NA
ATOM     14  C   UNL     1       4.220   4.216  19.442  0.00  0.00    +0.000 A 
ATOM     15  C   UNL     1       4.057   5.530  19.034  0.00  0.00    +0.000 A 
ENDBRANCH   4  10
BRANCH   9  16
ATOM     16  C   UNL     1      -2.002  10.741  18.253  0.00  0.00    +0.000 A 
ATOM     17  C   UNL     1      -3.042   9.983  17.722  0.00  0.00    +0.000 A 
ATOM     18  C   UNL     1      -4.339  10.425  17.927  0.00  0.00    +0.000 A 
ATOM     19  N   UNL     1      -4.653  11.545  18.614  0.00  0.00    +0.000 NA
ATOM     20  C   UNL     1      -3.625  12.253  19.129  0.00  0.00    +0.000 A 
ATOM     21  C   UNL     1      -2.298  11.895  18.979  0.00  0.00    +0.000 A 
ENDBRANCH   9  16
TORSDOF 2
ENDMDL
MODEL 7
REMARK VINA RESULT:      -6.6      1.534      2.247
REMARK  Name = 
REMARK  2 active torsions:
REMARK  status: ('A' for Active; 'I' for Inactive)
REMARK    1  A    between atoms: C_4  and  C_5
REMARK    2  A    between atoms: C_15  and  C_16
REMARK                            x       y       z     vdW  Elec       q    Type
REMARK                         _______ _______ _______ _____ _____    ______ ____
ROOT
ATOM      1  O   UNL     1       2.241   9.256  17.540  0.00  0.00    +0.000 OA
ATOM      2  C   UNL     1       1.586   8.993  18.540  0.00  0.00    +0.000 C 
ATOM      3  C   UNL     1       1.941   7.862  19.450  0.00  0.00    +0.000 C 
ATOM      4  C   UNL     1       2.275   6.703  18.851  0.00  0.00    +0.000 C 
ATOM      5  C   UNL     1       1.826   8.101  20.921  0.00  0.00    +0.000 C 
ATOM      6  S   UNL     1       0.122   8.525  21.334  0.00  0.00    +0.000 S 
ATOM      7  C   UNL     1       0.044  10.020  20.326  0.00  0.00    +0.000 C 
ATOM      8  C   UNL     1       0.322   9.716  18.885  0.00  0.00    +0.000 C 
ATOM      9  C   UNL     1      -0.485  10.012  17.846  0.00  0.00    +0.000 C 
ENDROOT
BRANCH   4  10
ATOM     10  C   UNL     1       2.436   5.456  19.602  0.00  0.00    +0.000 A 
ATOM     11  C   UNL     1       3.608   4.717  19.437  0.00  0.00    +0.000 A 
ATOM     12  C   UNL     1       3.704   3.488  20.066  0.00  0.00    +0.000 A 
ATOM     13  N   UNL     1       2.728   2.965  20.836  0.00  0.00    +0.000 NA
ATOM     14  C   UNL     1       1.608   3.706  20.987  0.00  0.00    +0.000 A 
ATOM     15  C   UNL     1       1.415   4.944  20.399  0.00  0.00    +0.000 A 
ENDBRANCH   4  10
BRANCH   9  16
ATOM     16  C   UNL     1      -1.820  10.586  18.028  0.00  0.00    +0.000 A 
ATOM     17  C   UNL     1      -2.012  11.756  18.757  0.00  0.00    +0.000 A 
ATOM     18  C   UNL     1      -3.312  12.179  18.978  0.00  0.00    +0.000 A 
ATOM     19  N   UNL     1      -4.404  11.525  18.525  0.00  0.00    +0.000 NA
ATOM     20  C   UNL     1      -4.188  10.400  17.809  0.00  0.00    +0.000 A 
ATOM     21  C   UNL     1      -2.929   9.897  17.536  0.00  0.00    +0.000 A 
ENDBRANCH   9  16
TORSDOF 2
ENDMDL
MODEL 8
REMARK VINA RESULT:      -6.5      4.541      8.215
REMARK  Name = 
REMARK  2 active torsions:
REMARK  status: ('A' for Active; 'I' for Inactive)
REMARK    1  A    between atoms: C_4  and  C_5
REMARK    2  A    between atoms: C_15  and  C_16
REMARK                            x       y       z     vdW  Elec       q    Type
REMARK                         _______ _______ _______ _____ _____    ______ ____
ROOT
ATOM      1  O   UNL     1       3.733   2.927  17.449  0.00  0.00    +0.000 OA
ATOM      2  C   UNL     1       4.374   3.969  17.400  0.00  0.00    +0.000 C 
ATOM      3  C   UNL     1       4.060   5.139  18.275  0.00  0.00    +0.000 C 
ATOM      4  C   UNL     1       2.756   5.455  18.396  0.00  0.00    +0.000 C 
ATOM      5  C   UNL     1       5.212   5.881  18.870  0.00  0.00    +0.000 C 
ATOM      6  S   UNL     1       6.254   6.540  17.552  0.00  0.00    +0.000 S 
ATOM      7  C   UNL     1       6.686   4.944  16.830  0.00  0.00    +0.000 C 
ATOM      8  C   UNL     1       5.462   4.196  16.398  0.00  0.00    +0.000 C 
ATOM      9  C   UNL     1       5.225   3.719  15.159  0.00  0.00    +0.000 C 
ENDROOT
BRANCH   4  10
ATOM     10  C   UNL     1       2.310   6.694  19.037  0.00  0.00    +0.000 A 
ATOM     11  C   UNL     1       1.914   6.655  20.375  0.00  0.00    +0.000 A 
ATOM     12  C   UNL     1       1.393   7.806  20.939  0.00  0.00    +0.000 A 
ATOM     13  N   UNL     1       1.251   8.968  20.268  0.00  0.00    +0.000 NA
ATOM     14  C   UNL     1       1.652   8.981  18.978  0.00  0.00    +0.000 A 
ATOM     15  C   UNL     1       2.184   7.883  18.323  0.00  0.00    +0.000 A 
ENDBRANCH   4  10
BRANCH   9  16
ATOM     16  C   UNL     1       6.120   3.984  14.031  0.00  0.00    +0.000 A 
ATOM     17  C   UNL     1       7.097   4.974  14.099  0.00  0.00    +0.000 A 
ATOM     18  C   UNL     1       7.833   5.240  12.957  0.00  0.00    +0.000 A 
ATOM     19  N   UNL     1       7.662   4.595  11.782  0.00  0.00    +0.000 NA
ATOM     20  C   UNL     1       6.716   3.632  11.748  0.00  0.00    +0.000 A 
ATOM     21  C   UNL     1       5.930   3.292  12.834  0.00  0.00    +0.000 A 
ENDBRANCH   9  16
TORSDOF 2
ENDMDL
MODEL 9
REMARK VINA RESULT:      -6.5      1.751      7.529
REMARK  Name = 
REMARK  2 active torsions:
REMARK  status: ('A' for Active; 'I' for Inactive)
REMARK    1  A    between atoms: C_4  and  C_5
REMARK    2  A    between atoms: C_15  and  C_16
REMARK                            x       y       z     vdW  Elec       q    Type
REMARK                         _______ _______ _______ _____ _____    ______ ____
ROOT
ATOM      1  O   UNL     1       1.449   8.177  21.963  0.00  0.00    +0.000 OA
ATOM      2  C   UNL     1       1.541   8.026  20.751  0.00  0.00    +0.000 C 
ATOM      3  C   UNL     1       1.046   9.049  19.782  0.00  0.00    +0.000 C 
ATOM      4  C   UNL     1      -0.163   9.581  20.047  0.00  0.00    +0.000 C 
ATOM      5  C   UNL     1       1.898   9.333  18.587  0.00  0.00    +0.000 C 
ATOM      6  S   UNL     1       2.106   7.824  17.620  0.00  0.00    +0.000 S 
ATOM      7  C   UNL     1       2.929   6.875  18.915  0.00  0.00    +0.000 C 
ATOM      8  C   UNL     1       2.066   6.767  20.137  0.00  0.00    +0.000 C 
ATOM      9  C   UNL     1       1.687   5.620  20.736  0.00  0.00    +0.000 C 
ENDROOT
BRANCH   4  10
ATOM     10  C   UNL     1      -0.871  10.427  19.084  0.00  0.00    +0.000 A 
ATOM     11  C   UNL     1      -1.646   9.819  18.095  0.00  0.00    +0.000 A 
ATOM     12  C   UNL     1      -2.222  10.622  17.127  0.00  0.00    +0.000 A 
ATOM     13  N   UNL     1      -2.081  11.963  17.087  0.00  0.00    +0.000 NA
ATOM     14  C   UNL     1      -1.334  12.527  18.062  0.00  0.00    +0.000 A 
ATOM     15  C   UNL     1      -0.715  11.811  19.073  0.00  0.00    +0.000 A 
ENDBRANCH   4  10
BRANCH   9  16
ATOM     16  C   UNL     1       1.995   4.303  20.176  0.00  0.00    +0.000 A 
ATOM     17  C   UNL     1       3.250   3.722  20.338  0.00  0.00    +0.000 A 
ATOM     18  C   UNL     1       3.501   2.525  19.689  0.00  0.00    +0.000 A 
ATOM     19  N   UNL     1       2.600   1.886  18.911  0.00  0.00    +0.000 NA
ATOM     20  C   UNL     1       1.387   2.465  18.782  0.00  0.00    +0.000 A 
ATOM     21  C   UNL     1       1.040   3.659  19.388  0.00  0.00    +0.000 A 
ENDBRANCH   9  16
TORSDOF 2
ENDMDL
