MODEL 1
REMARK VINA RESULT:      -8.6      0.000      0.000
REMARK  Name = 
REMARK  10 active torsions:
REMARK  status: ('A' for Active; 'I' for Inactive)
REMARK    1  A    between atoms: C_1  and  C_2
REMARK    2  A    between atoms: C_2  and  C_3
REMARK    3  A    between atoms: C_7  and  C_8
REMARK    4  A    between atoms: C_8  and  C_9
REMARK    5  A    between atoms: C_10  and  C_11
REMARK    6  A    between atoms: C_13  and  O_14
REMARK    7  A    between atoms: O_14  and  C_15
REMARK    8  A    between atoms: C_22  and  N_23
REMARK    9  A    between atoms: N_23  and  C_24
REMARK   10  A    between atoms: C_30  and  C_31
REMARK                            x       y       z     vdW  Elec       q    Type
REMARK                         _______ _______ _______ _____ _____    ______ ____
ROOT
ATOM      1  C   UNL     1       2.255   6.752  19.193  0.00  0.00    +0.000 A 
ATOM      2  C   UNL     1       1.777   7.064  20.456  0.00  0.00    +0.000 A 
ATOM      3  C   UNL     1       1.186   8.311  20.716  0.00  0.00    +0.000 A 
ATOM      4  C   UNL     1       1.196   9.304  19.730  0.00  0.00    +0.000 A 
ATOM      5  C   UNL     1       1.863   8.967  18.551  0.00  0.00    +0.000 A 
ATOM      6  N   UNL     1       2.283   7.717  18.261  0.00  0.00    +0.000 NA
ATOM      7  C   UNL     1       2.235   9.982  17.504  0.00  0.00    +0.000 C 
ATOM      8  C   UNL     1       2.251  11.385  18.085  0.00  0.00    +0.000 C 
ATOM      9  C   UNL     1       0.885  11.649  18.694  0.00  0.00    +0.000 C 
ATOM     10  C   UNL     1       0.597  10.689  19.871  0.00  0.00    +0.000 C 
ENDROOT
BRANCH   1  16
ATOM     11  C   UNL     1       2.176   4.199  19.206  0.00  0.00    +0.000 A 
ATOM     12  C   UNL     1       2.628   2.953  18.726  0.00  0.00    +0.000 A 
ATOM     13  C   UNL     1       3.678   2.869  17.832  0.00  0.00    +0.000 A 
ATOM     14  C   UNL     1       4.337   4.026  17.442  0.00  0.00    +0.000 A 
ATOM     15  C   UNL     1       3.960   5.297  17.926  0.00  0.00    +0.000 A 
ATOM     16  C   UNL     1       2.801   5.420  18.772  0.00  0.00    +0.000 A 
BRANCH  11  18
ATOM     17  C   UNL     1       1.230   2.986  21.228  0.00  0.00    +0.000 C 
ATOM     18  C   UNL     1       1.032   4.109  20.212  0.00  0.00    +0.000 C 
ENDBRANCH  11  18
BRANCH  15  19
ATOM     19  C   UNL     1       4.795   6.491  17.476  0.00  0.00    +0.000 C 
ATOM     20  C   UNL     1       5.181   6.583  16.001  0.00  0.00    +0.000 C 
ENDBRANCH  15  19
ENDBRANCH   1  16
BRANCH   3  21
ATOM     21  O   UNL     1       0.562   8.330  21.935  0.00  0.00    +0.000 OA
ATOM     22  C   UNL     1       0.971   9.288  22.896  0.00  0.00    +0.000 C 
ENDBRANCH   3  21
BRANCH  10  23
ATOM     23  N   UNL     1      -0.853  10.576  20.039  0.00  0.00    +0.000 N 
ATOM     24  H   UNL     1      -1.142   9.993  20.820  0.00  0.00    +0.000 HD
BRANCH  23  25
ATOM     25  C   UNL     1      -1.772  10.675  18.995  0.00  0.00    +0.000 A 
ATOM     26  C   UNL     1      -1.663   9.899  17.836  0.00  0.00    +0.000 A 
ATOM     27  C   UNL     1      -2.501  10.096  16.744  0.00  0.00    +0.000 A 
ATOM     28  F   UNL     1      -2.324   9.350  15.645  0.00  0.00    +0.000 F 
ATOM     29  C   UNL     1      -3.485  11.062  16.766  0.00  0.00    +0.000 A 
ATOM     30  C   UNL     1      -3.618  11.862  17.898  0.00  0.00    +0.000 A 
ATOM     31  C   UNL     1      -2.750  11.703  19.002  0.00  0.00    +0.000 A 
ATOM     32  C   UNL     1      -2.937  12.649  20.158  0.00  0.00    +0.000 C 
ENDBRANCH  23  25
ENDBRANCH  10  23
TORSDOF 6
ENDMDL
MODEL 2
REMARK VINA RESULT:      -8.4      0.316      2.495
REMARK  Name = 
REMARK  10 active torsions:
REMARK  status: ('A' for Active; 'I' for Inactive)
REMARK    1  A    between atoms: C_1  and  C_2
REMARK    2  A    between atoms: C_2  and  C_3
REMARK    3  A    between atoms: C_7  and  C_8
REMARK    4  A    between atoms: C_8  and  C_9
REMARK    5  A    between atoms: C_10  and  C_11
REMARK    6  A    between atoms: C_13  and  O_14
REMARK    7  A    between atoms: O_14  and  C_15
REMARK    8  A    between atoms: C_22  and  N_23
REMARK    9  A    between atoms: N_23  and  C_24
REMARK   10  A    between atoms: C_30  and  C_31
REMARK                            x       y       z     vdW  Elec       q    Type
REMARK                         _______ _______ _______ _____ _____    ______ ____
ROOT
ATOM      1  C   UNL     1       2.334   6.954  19.222  0.00  0.00    +0.000 A 
ATOM      2  C   UNL     1       1.781   7.218  20.466  0.00  0.00    +0.000 A 
ATOM      3  C   UNL     1       1.107   8.424  20.715  0.00  0.00    +0.000 A 
ATOM      4  C   UNL     1       1.106   9.433  19.744  0.00  0.00    +0.000 A 
ATOM      5  C   UNL     1       1.846   9.155  18.594  0.00  0.00    +0.000 A 
ATOM      6  N   UNL     1       2.350   7.935  18.307  0.00  0.00    +0.000 NA
ATOM      7  C   UNL     1       2.207  10.206  17.581  0.00  0.00    +0.000 C 
ATOM      8  C   UNL     1       2.116  11.598  18.182  0.00  0.00    +0.000 C 
ATOM      9  C   UNL     1       0.710  11.774  18.729  0.00  0.00    +0.000 C 
ATOM     10  C   UNL     1       0.423  10.779  19.877  0.00  0.00    +0.000 C 
ENDROOT
BRANCH   1  16
ATOM     11  C   UNL     1       4.123   5.656  17.943  0.00  0.00    +0.000 A 
ATOM     12  C   UNL     1       4.784   4.449  17.640  0.00  0.00    +0.000 A 
ATOM     13  C   UNL     1       4.350   3.245  18.161  0.00  0.00    +0.000 A 
ATOM     14  C   UNL     1       3.211   3.214  18.950  0.00  0.00    +0.000 A 
ATOM     15  C   UNL     1       2.480   4.384  19.250  0.00  0.00    +0.000 A 
ATOM     16  C   UNL     1       2.974   5.663  18.809  0.00  0.00    +0.000 A 
BRANCH  11  18
ATOM     17  C   UNL     1       5.148   6.605  15.821  0.00  0.00    +0.000 C 
ATOM     18  C   UNL     1       4.712   6.886  17.258  0.00  0.00    +0.000 C 
ENDBRANCH  11  18
BRANCH  15  19
ATOM     19  C   UNL     1       1.209   4.221  20.077  0.00  0.00    +0.000 C 
ATOM     20  C   UNL     1       1.190   3.144  21.161  0.00  0.00    +0.000 C 
ENDBRANCH  15  19
ENDBRANCH   1  16
BRANCH   3  21
ATOM     21  O   UNL     1       0.427   8.387  21.903  0.00  0.00    +0.000 OA
ATOM     22  C   UNL     1       0.792   9.297  22.926  0.00  0.00    +0.000 C 
ENDBRANCH   3  21
BRANCH  10  23
ATOM     23  N   UNL     1      -1.025  10.582  19.974  0.00  0.00    +0.000 N 
ATOM     24  H   UNL     1      -1.315   9.959  20.723  0.00  0.00    +0.000 HD
BRANCH  23  25
ATOM     25  C   UNL     1      -1.900  10.663  18.892  0.00  0.00    +0.000 A 
ATOM     26  C   UNL     1      -1.711   9.909  17.728  0.00  0.00    +0.000 A 
ATOM     27  C   UNL     1      -2.507  10.092  16.602  0.00  0.00    +0.000 A 
ATOM     28  F   UNL     1      -2.255   9.369  15.503  0.00  0.00    +0.000 F 
ATOM     29  C   UNL     1      -3.527  11.021  16.595  0.00  0.00    +0.000 A 
ATOM     30  C   UNL     1      -3.739  11.799  17.730  0.00  0.00    +0.000 A 
ATOM     31  C   UNL     1      -2.914  11.655  18.870  0.00  0.00    +0.000 A 
ATOM     32  C   UNL     1      -3.187  12.575  20.028  0.00  0.00    +0.000 C 
ENDBRANCH  23  25
ENDBRANCH  10  23
TORSDOF 6
ENDMDL
MODEL 3
REMARK VINA RESULT:      -8.0      1.871      2.563
REMARK  Name = 
REMARK  10 active torsions:
REMARK  status: ('A' for Active; 'I' for Inactive)
REMARK    1  A    between atoms: C_1  and  C_2
REMARK    2  A    between atoms: C_2  and  C_3
REMARK    3  A    between atoms: C_7  and  C_8
REMARK    4  A    between atoms: C_8  and  C_9
REMARK    5  A    between atoms: C_10  and  C_11
REMARK    6  A    between atoms: C_13  and  O_14
REMARK    7  A    between atoms: O_14  and  C_15
REMARK    8  A    between atoms: C_22  and  N_23
REMARK    9  A    between atoms: N_23  and  C_24
REMARK   10  A    between atoms: C_30  and  C_31
REMARK                            x       y       z     vdW  Elec       q    Type
REMARK                         _______ _______ _______ _____ _____    ______ ____
ROOT
ATOM      1  C   UNL     1       2.247   6.694  19.184  0.00  0.00    +0.000 A 
ATOM      2  C   UNL     1       1.878   7.010  20.483  0.00  0.00    +0.000 A 
ATOM      3  C   UNL     1       1.343   8.270  20.794  0.00  0.00    +0.000 A 
ATOM      4  C   UNL     1       1.302   9.270  19.815  0.00  0.00    +0.000 A 
ATOM      5  C   UNL     1       1.865   8.924  18.586  0.00  0.00    +0.000 A 
ATOM      6  N   UNL     1       2.228   7.665  18.258  0.00  0.00    +0.000 NA
ATOM      7  C   UNL     1       2.182   9.936  17.519  0.00  0.00    +0.000 C 
ATOM      8  C   UNL     1       2.281  11.333  18.103  0.00  0.00    +0.000 C 
ATOM      9  C   UNL     1       0.975  11.629  18.819  0.00  0.00    +0.000 C 
ATOM     10  C   UNL     1       0.754  10.669  20.010  0.00  0.00    +0.000 C 
ENDROOT
BRANCH   1  16
ATOM     11  C   UNL     1       2.070   4.146  19.156  0.00  0.00    +0.000 A 
ATOM     12  C   UNL     1       2.452   2.894  18.634  0.00  0.00    +0.000 A 
ATOM     13  C   UNL     1       3.457   2.788  17.690  0.00  0.00    +0.000 A 
ATOM     14  C   UNL     1       4.141   3.926  17.291  0.00  0.00    +0.000 A 
ATOM     15  C   UNL     1       3.835   5.201  17.814  0.00  0.00    +0.000 A 
ATOM     16  C   UNL     1       2.721   5.351  18.715  0.00  0.00    +0.000 A 
BRANCH  11  18
ATOM     17  C   UNL     1       1.185   2.946  21.213  0.00  0.00    +0.000 C 
ATOM     18  C   UNL     1       0.971   4.079  20.211  0.00  0.00    +0.000 C 
ENDBRANCH  11  18
BRANCH  15  19
ATOM     19  C   UNL     1       4.694   6.372  17.348  0.00  0.00    +0.000 C 
ATOM     20  C   UNL     1       5.170   6.381  15.896  0.00  0.00    +0.000 C 
ENDBRANCH  15  19
ENDBRANCH   1  16
BRANCH   3  21
ATOM     21  O   UNL     1       0.817   8.297  22.059  0.00  0.00    +0.000 OA
ATOM     22  C   UNL     1       1.308   9.254  22.981  0.00  0.00    +0.000 C 
ENDBRANCH   3  21
BRANCH  10  23
ATOM     23  N   UNL     1      -0.681  10.594  20.291  0.00  0.00    +0.000 N 
ATOM     24  H   UNL     1      -1.189   9.929  19.714  0.00  0.00    +0.000 HD
BRANCH  23  25
ATOM     25  C   UNL     1      -1.438  11.655  20.786  0.00  0.00    +0.000 A 
ATOM     26  C   UNL     1      -1.283  12.129  22.094  0.00  0.00    +0.000 A 
ATOM     27  C   UNL     1      -2.130  13.096  22.625  0.00  0.00    +0.000 A 
ATOM     28  F   UNL     1      -1.959  13.483  23.896  0.00  0.00    +0.000 F 
ATOM     29  C   UNL     1      -3.154  13.636  21.874  0.00  0.00    +0.000 A 
ATOM     30  C   UNL     1      -3.348  13.181  20.572  0.00  0.00    +0.000 A 
ATOM     31  C   UNL     1      -2.521  12.171  20.029  0.00  0.00    +0.000 A 
ATOM     32  C   UNL     1      -2.840  11.708  18.633  0.00  0.00    +0.000 C 
ENDBRANCH  23  25
ENDBRANCH  10  23
TORSDOF 6
ENDMDL
MODEL 4
REMARK VINA RESULT:      -7.8      1.857      3.547
REMARK  Name = 
REMARK  10 active torsions:
REMARK  status: ('A' for Active; 'I' for Inactive)
REMARK    1  A    between atoms: C_1  and  C_2
REMARK    2  A    between atoms: C_2  and  C_3
REMARK    3  A    between atoms: C_7  and  C_8
REMARK    4  A    between atoms: C_8  and  C_9
REMARK    5  A    between atoms: C_10  and  C_11
REMARK    6  A    between atoms: C_13  and  O_14
REMARK    7  A    between atoms: O_14  and  C_15
REMARK    8  A    between atoms: C_22  and  N_23
REMARK    9  A    between atoms: N_23  and  C_24
REMARK   10  A    between atoms: C_30  and  C_31
REMARK                            x       y       z     vdW  Elec       q    Type
REMARK                         _______ _______ _______ _____ _____    ______ ____
ROOT
ATOM      1  C   UNL     1       2.333   6.780  19.076  0.00  0.00    +0.000 A 
ATOM      2  C   UNL     1       1.948   7.045  20.381  0.00  0.00    +0.000 A 
ATOM      3  C   UNL     1       1.376   8.280  20.727  0.00  0.00    +0.000 A 
ATOM      4  C   UNL     1       1.314   9.308  19.779  0.00  0.00    +0.000 A 
ATOM      5  C   UNL     1       1.893   9.016  18.543  0.00  0.00    +0.000 A 
ATOM      6  N   UNL     1       2.292   7.778  18.180  0.00  0.00    +0.000 NA
ATOM      7  C   UNL     1       2.188  10.068  17.510  0.00  0.00    +0.000 C 
ATOM      8  C   UNL     1       2.245  11.449  18.138  0.00  0.00    +0.000 C 
ATOM      9  C   UNL     1       0.927  11.687  18.854  0.00  0.00    +0.000 C 
ATOM     10  C   UNL     1       0.726  10.685  20.013  0.00  0.00    +0.000 C 
ENDROOT
BRANCH   1  16
ATOM     11  C   UNL     1       3.934   5.415  17.627  0.00  0.00    +0.000 A 
ATOM     12  C   UNL     1       4.482   4.179  17.232  0.00  0.00    +0.000 A 
ATOM     13  C   UNL     1       3.995   2.987  17.733  0.00  0.00    +0.000 A 
ATOM     14  C   UNL     1       2.910   3.003  18.596  0.00  0.00    +0.000 A 
ATOM     15  C   UNL     1       2.288   4.207  18.990  0.00  0.00    +0.000 A 
ATOM     16  C   UNL     1       2.847   5.466  18.569  0.00  0.00    +0.000 A 
BRANCH  11  18
ATOM     17  C   UNL     1       5.273   6.274  15.646  0.00  0.00    +0.000 C 
ATOM     18  C   UNL     1       4.567   6.629  16.953  0.00  0.00    +0.000 C 
ENDBRANCH  11  18
BRANCH  15  19
ATOM     19  C   UNL     1       1.065   4.098  19.895  0.00  0.00    +0.000 C 
ATOM     20  C   UNL     1       1.107   3.091  21.043  0.00  0.00    +0.000 C 
ENDBRANCH  15  19
ENDBRANCH   1  16
BRANCH   3  21
ATOM     21  O   UNL     1       0.842   8.253  21.988  0.00  0.00    +0.000 OA
ATOM     22  C   UNL     1       1.259   9.231  22.926  0.00  0.00    +0.000 C 
ENDBRANCH   3  21
BRANCH  10  23
ATOM     23  N   UNL     1      -0.708  10.562  20.282  0.00  0.00    +0.000 N 
ATOM     24  H   UNL     1      -1.188   9.878  19.702  0.00  0.00    +0.000 HD
BRANCH  23  25
ATOM     25  C   UNL     1      -1.505  11.598  20.767  0.00  0.00    +0.000 A 
ATOM     26  C   UNL     1      -1.427  12.034  22.095  0.00  0.00    +0.000 A 
ATOM     27  C   UNL     1      -2.314  12.973  22.609  0.00  0.00    +0.000 A 
ATOM     28  F   UNL     1      -2.216  13.323  23.898  0.00  0.00    +0.000 F 
ATOM     29  C   UNL     1      -3.304  13.523  21.821  0.00  0.00    +0.000 A 
ATOM     30  C   UNL     1      -3.422  13.106  20.497  0.00  0.00    +0.000 A 
ATOM     31  C   UNL     1      -2.554  12.123  19.969  0.00  0.00    +0.000 A 
ATOM     32  C   UNL     1      -2.792  11.699  18.545  0.00  0.00    +0.000 C 
ENDBRANCH  23  25
ENDBRANCH  10  23
TORSDOF 6
ENDMDL
MODEL 5
REMARK VINA RESULT:      -7.5      1.888      2.544
REMARK  Name = 
REMARK  10 active torsions:
REMARK  status: ('A' for Active; 'I' for Inactive)
REMARK    1  A    between atoms: C_1  and  C_2
REMARK    2  A    between atoms: C_2  and  C_3
REMARK    3  A    between atoms: C_7  and  C_8
REMARK    4  A    between atoms: C_8  and  C_9
REMARK    5  A    between atoms: C_10  and  C_11
REMARK    6  A    between atoms: C_13  and  O_14
REMARK    7  A    between atoms: O_14  and  C_15
REMARK    8  A    between atoms: C_22  and  N_23
REMARK    9  A    between atoms: N_23  and  C_24
REMARK   10  A    between atoms: C_30  and  C_31
REMARK                            x       y       z     vdW  Elec       q    Type
REMARK                         _______ _______ _______ _____ _____    ______ ____
ROOT
ATOM      1  C   UNL     1       2.737   7.165  18.541  0.00  0.00    +0.000 A 
ATOM      2  C   UNL     1       2.237   7.228  19.833  0.00  0.00    +0.000 A 
ATOM      3  C   UNL     1       1.546   8.364  20.285  0.00  0.00    +0.000 A 
ATOM      4  C   UNL     1       1.473   9.502  19.473  0.00  0.00    +0.000 A 
ATOM      5  C   UNL     1       2.163   9.417  18.263  0.00  0.00    +0.000 A 
ATOM      6  N   UNL     1       2.684   8.269  17.780  0.00  0.00    +0.000 NA
ATOM      7  C   UNL     1       2.449  10.615  17.400  0.00  0.00    +0.000 C 
ATOM      8  C   UNL     1       2.351  11.902  18.201  0.00  0.00    +0.000 C 
ATOM      9  C   UNL     1       0.969  11.951  18.829  0.00  0.00    +0.000 C 
ATOM     10  C   UNL     1       0.763  10.792  19.831  0.00  0.00    +0.000 C 
ENDROOT
BRANCH   1  16
ATOM     11  C   UNL     1       2.672   4.730  17.776  0.00  0.00    +0.000 A 
ATOM     12  C   UNL     1       3.252   3.640  17.096  0.00  0.00    +0.000 A 
ATOM     13  C   UNL     1       4.517   3.729  16.549  0.00  0.00    +0.000 A 
ATOM     14  C   UNL     1       5.254   4.891  16.720  0.00  0.00    +0.000 A 
ATOM     15  C   UNL     1       4.746   5.998  17.432  0.00  0.00    +0.000 A 
ATOM     16  C   UNL     1       3.389   5.969  17.916  0.00  0.00    +0.000 A 
BRANCH  11  18
ATOM     17  C   UNL     1       1.178   3.065  18.981  0.00  0.00    +0.000 C 
ATOM     18  C   UNL     1       1.285   4.451  18.347  0.00  0.00    +0.000 C 
ENDBRANCH  11  18
BRANCH  15  19
ATOM     19  C   UNL     1       5.669   7.199  17.609  0.00  0.00    +0.000 C 
ATOM     20  C   UNL     1       7.178   6.955  17.586  0.00  0.00    +0.000 C 
ENDBRANCH  15  19
ENDBRANCH   1  16
BRANCH   3  21
ATOM     21  O   UNL     1       0.925   8.133  21.484  0.00  0.00    +0.000 OA
ATOM     22  C   UNL     1       1.195   9.002  22.570  0.00  0.00    +0.000 C 
ENDBRANCH   3  21
BRANCH  10  23
ATOM     23  N   UNL     1      -0.673  10.536  19.962  0.00  0.00    +0.000 N 
ATOM     24  H   UNL     1      -1.024   9.795  19.362  0.00  0.00    +0.000 HD
BRANCH  23  25
ATOM     25  C   UNL     1      -1.610  11.502  20.329  0.00  0.00    +0.000 A 
ATOM     26  C   UNL     1      -1.739  11.943  21.651  0.00  0.00    +0.000 A 
ATOM     27  C   UNL     1      -2.760  12.804  22.037  0.00  0.00    +0.000 A 
ATOM     28  F   UNL     1      -2.858  13.162  23.324  0.00  0.00    +0.000 F 
ATOM     29  C   UNL     1      -3.684  13.268  21.123  0.00  0.00    +0.000 A 
ATOM     30  C   UNL     1      -3.595  12.842  19.800  0.00  0.00    +0.000 A 
ATOM     31  C   UNL     1      -2.587  11.936  19.398  0.00  0.00    +0.000 A 
ATOM     32  C   UNL     1      -2.605  11.492  17.960  0.00  0.00    +0.000 C 
ENDBRANCH  23  25
ENDBRANCH  10  23
TORSDOF 6
ENDMDL
MODEL 6
REMARK VINA RESULT:      -7.4      2.633      3.943
REMARK  Name = 
REMARK  10 active torsions:
REMARK  status: ('A' for Active; 'I' for Inactive)
REMARK    1  A    between atoms: C_1  and  C_2
REMARK    2  A    between atoms: C_2  and  C_3
REMARK    3  A    between atoms: C_7  and  C_8
REMARK    4  A    between atoms: C_8  and  C_9
REMARK    5  A    between atoms: C_10  and  C_11
REMARK    6  A    between atoms: C_13  and  O_14
REMARK    7  A    between atoms: O_14  and  C_15
REMARK    8  A    between atoms: C_22  and  N_23
REMARK    9  A    between atoms: N_23  and  C_24
REMARK   10  A    between atoms: C_30  and  C_31
REMARK                            x       y       z     vdW  Elec       q    Type
REMARK                         _______ _______ _______ _____ _____    ______ ____
ROOT
ATOM      1  C   UNL     1       2.713   7.274  18.395  0.00  0.00    +0.000 A 
ATOM      2  C   UNL     1       2.334   8.403  17.685  0.00  0.00    +0.000 A 
ATOM      3  C   UNL     1       1.667   9.464  18.319  0.00  0.00    +0.000 A 
ATOM      4  C   UNL     1       1.259   9.331  19.652  0.00  0.00    +0.000 A 
ATOM      5  C   UNL     1       1.518   8.089  20.234  0.00  0.00    +0.000 A 
ATOM      6  N   UNL     1       2.297   7.145  19.664  0.00  0.00    +0.000 NA
ATOM      7  C   UNL     1       0.903   7.654  21.536  0.00  0.00    +0.000 C 
ATOM      8  C   UNL     1      -0.340   8.466  21.852  0.00  0.00    +0.000 C 
ATOM      9  C   UNL     1       0.053   9.932  21.854  0.00  0.00    +0.000 C 
ATOM     10  C   UNL     1       0.534  10.390  20.458  0.00  0.00    +0.000 C 
ENDROOT
BRANCH   1  16
ATOM     11  C   UNL     1       2.935   4.835  17.670  0.00  0.00    +0.000 A 
ATOM     12  C   UNL     1       3.669   3.795  17.065  0.00  0.00    +0.000 A 
ATOM     13  C   UNL     1       4.967   3.992  16.634  0.00  0.00    +0.000 A 
ATOM     14  C   UNL     1       5.579   5.217  16.851  0.00  0.00    +0.000 A 
ATOM     15  C   UNL     1       4.911   6.281  17.494  0.00  0.00    +0.000 A 
ATOM     16  C   UNL     1       3.524   6.135  17.853  0.00  0.00    +0.000 A 
BRANCH  11  18
ATOM     17  C   UNL     1       1.534   3.624  19.409  0.00  0.00    +0.000 C 
ATOM     18  C   UNL     1       1.531   4.439  18.116  0.00  0.00    +0.000 C 
ENDBRANCH  11  18
BRANCH  15  19
ATOM     19  C   UNL     1       5.705   7.561  17.733  0.00  0.00    +0.000 C 
ATOM     20  C   UNL     1       7.211   7.531  17.481  0.00  0.00    +0.000 C 
ENDBRANCH  15  19
ENDBRANCH   1  16
BRANCH   3  21
ATOM     21  O   UNL     1       1.605  10.573  17.517  0.00  0.00    +0.000 OA
ATOM     22  C   UNL     1       2.600  11.571  17.657  0.00  0.00    +0.000 C 
ENDBRANCH   3  21
BRANCH  10  23
ATOM     23  N   UNL     1       1.404  11.556  20.622  0.00  0.00    +0.000 N 
ATOM     24  H   UNL     1       2.276  11.366  21.109  0.00  0.00    +0.000 HD
BRANCH  23  25
ATOM     25  C   UNL     1       0.944  12.869  20.712  0.00  0.00    +0.000 A 
ATOM     26  C   UNL     1      -0.404  13.196  20.529  0.00  0.00    +0.000 A 
ATOM     27  C   UNL     1      -0.836  14.517  20.487  0.00  0.00    +0.000 A 
ATOM     28  F   UNL     1      -2.133  14.771  20.269  0.00  0.00    +0.000 F 
ATOM     29  C   UNL     1       0.052  15.562  20.637  0.00  0.00    +0.000 A 
ATOM     30  C   UNL     1       1.404  15.277  20.810  0.00  0.00    +0.000 A 
ATOM     31  C   UNL     1       1.867  13.942  20.816  0.00  0.00    +0.000 A 
ATOM     32  C   UNL     1       3.351  13.735  20.956  0.00  0.00    +0.000 C 
ENDBRANCH  23  25
ENDBRANCH  10  23
TORSDOF 6
ENDMDL
MODEL 7
REMARK VINA RESULT:      -7.4      2.639      4.555
REMARK  Name = 
REMARK  10 active torsions:
REMARK  status: ('A' for Active; 'I' for Inactive)
REMARK    1  A    between atoms: C_1  and  C_2
REMARK    2  A    between atoms: C_2  and  C_3
REMARK    3  A    between atoms: C_7  and  C_8
REMARK    4  A    between atoms: C_8  and  C_9
REMARK    5  A    between atoms: C_10  and  C_11
REMARK    6  A    between atoms: C_13  and  O_14
REMARK    7  A    between atoms: O_14  and  C_15
REMARK    8  A    between atoms: C_22  and  N_23
REMARK    9  A    between atoms: N_23  and  C_24
REMARK   10  A    between atoms: C_30  and  C_31
REMARK                            x       y       z     vdW  Elec       q    Type
REMARK                         _______ _______ _______ _____ _____    ______ ____
ROOT
ATOM      1  C   UNL     1       2.760   7.279  18.370  0.00  0.00    +0.000 A 
ATOM      2  C   UNL     1       2.370   8.410  17.670  0.00  0.00    +0.000 A 
ATOM      3  C   UNL     1       1.685   9.455  18.310  0.00  0.00    +0.000 A 
ATOM      4  C   UNL     1       1.270   9.303  19.638  0.00  0.00    +0.000 A 
ATOM      5  C   UNL     1       1.542   8.059  20.210  0.00  0.00    +0.000 A 
ATOM      6  N   UNL     1       2.337   7.131  19.635  0.00  0.00    +0.000 NA
ATOM      7  C   UNL     1       0.924   7.602  21.503  0.00  0.00    +0.000 C 
ATOM      8  C   UNL     1      -0.332   8.394  21.818  0.00  0.00    +0.000 C 
ATOM      9  C   UNL     1       0.041   9.865  21.838  0.00  0.00    +0.000 C 
ATOM     10  C   UNL     1       0.525  10.343  20.451  0.00  0.00    +0.000 C 
ENDROOT
BRANCH   1  16
ATOM     11  C   UNL     1       4.974   6.361  17.486  0.00  0.00    +0.000 A 
ATOM     12  C   UNL     1       5.776   5.281  17.069  0.00  0.00    +0.000 A 
ATOM     13  C   UNL     1       5.261   4.002  16.970  0.00  0.00    +0.000 A 
ATOM     14  C   UNL     1       3.916   3.787  17.230  0.00  0.00    +0.000 A 
ATOM     15  C   UNL     1       3.052   4.838  17.606  0.00  0.00    +0.000 A 
ATOM     16  C   UNL     1       3.589   6.157  17.822  0.00  0.00    +0.000 A 
BRANCH  11  18
ATOM     17  C   UNL     1       7.212   7.564  17.482  0.00  0.00    +0.000 C 
ATOM     18  C   UNL     1       5.691   7.707  17.508  0.00  0.00    +0.000 C 
ENDBRANCH  11  18
BRANCH  15  19
ATOM     19  C   UNL     1       1.580   4.494  17.807  0.00  0.00    +0.000 C 
ATOM     20  C   UNL     1       1.196   3.668  19.034  0.00  0.00    +0.000 C 
ENDBRANCH  15  19
ENDBRANCH   1  16
BRANCH   3  21
ATOM     21  O   UNL     1       1.613  10.571  17.519  0.00  0.00    +0.000 OA
ATOM     22  C   UNL     1       2.594  11.582  17.676  0.00  0.00    +0.000 C 
ENDBRANCH   3  21
BRANCH  10  23
ATOM     23  N   UNL     1       1.379  11.520  20.632  0.00  0.00    +0.000 N 
ATOM     24  H   UNL     1       2.253  11.335  21.117  0.00  0.00    +0.000 HD
BRANCH  23  25
ATOM     25  C   UNL     1       0.900  12.825  20.741  0.00  0.00    +0.000 A 
ATOM     26  C   UNL     1      -0.455  13.133  20.571  0.00  0.00    +0.000 A 
ATOM     27  C   UNL     1      -0.907  14.448  20.548  0.00  0.00    +0.000 A 
ATOM     28  F   UNL     1      -2.209  14.685  20.342  0.00  0.00    +0.000 F 
ATOM     29  C   UNL     1      -0.033  15.505  20.704  0.00  0.00    +0.000 A 
ATOM     30  C   UNL     1       1.325  15.238  20.864  0.00  0.00    +0.000 A 
ATOM     31  C   UNL     1       1.807  13.909  20.851  0.00  0.00    +0.000 A 
ATOM     32  C   UNL     1       3.295  13.724  20.978  0.00  0.00    +0.000 C 
ENDBRANCH  23  25
ENDBRANCH  10  23
TORSDOF 6
ENDMDL
MODEL 8
REMARK VINA RESULT:      -7.4      2.064      2.624
REMARK  Name = 
REMARK  10 active torsions:
REMARK  status: ('A' for Active; 'I' for Inactive)
REMARK    1  A    between atoms: C_1  and  C_2
REMARK    2  A    between atoms: C_2  and  C_3
REMARK    3  A    between atoms: C_7  and  C_8
REMARK    4  A    between atoms: C_8  and  C_9
REMARK    5  A    between atoms: C_10  and  C_11
REMARK    6  A    between atoms: C_13  and  O_14
REMARK    7  A    between atoms: O_14  and  C_15
REMARK    8  A    between atoms: C_22  and  N_23
REMARK    9  A    between atoms: N_23  and  C_24
REMARK   10  A    between atoms: C_30  and  C_31
REMARK                            x       y       z     vdW  Elec       q    Type
REMARK                         _______ _______ _______ _____ _____    ______ ____
ROOT
ATOM      1  C   UNL     1       2.184   6.746  19.101  0.00  0.00    +0.000 A 
ATOM      2  C   UNL     1       1.909   7.058  20.424  0.00  0.00    +0.000 A 
ATOM      3  C   UNL     1       1.421   8.325  20.780  0.00  0.00    +0.000 A 
ATOM      4  C   UNL     1       1.334   9.334  19.813  0.00  0.00    +0.000 A 
ATOM      5  C   UNL     1       1.807   8.988  18.546  0.00  0.00    +0.000 A 
ATOM      6  N   UNL     1       2.122   7.725  18.186  0.00  0.00    +0.000 NA
ATOM      7  C   UNL     1       2.071  10.003  17.468  0.00  0.00    +0.000 C 
ATOM      8  C   UNL     1       2.236  11.394  18.055  0.00  0.00    +0.000 C 
ATOM      9  C   UNL     1       0.987  11.708  18.859  0.00  0.00    +0.000 C 
ATOM     10  C   UNL     1       0.828  10.742  20.055  0.00  0.00    +0.000 C 
ENDROOT
BRANCH   1  16
ATOM     11  C   UNL     1       1.957   4.202  19.065  0.00  0.00    +0.000 A 
ATOM     12  C   UNL     1       2.279   2.948  18.510  0.00  0.00    +0.000 A 
ATOM     13  C   UNL     1       3.215   2.832  17.500  0.00  0.00    +0.000 A 
ATOM     14  C   UNL     1       3.893   3.960  17.065  0.00  0.00    +0.000 A 
ATOM     15  C   UNL     1       3.648   5.236  17.617  0.00  0.00    +0.000 A 
ATOM     16  C   UNL     1       2.600   5.399  18.591  0.00  0.00    +0.000 A 
BRANCH  11  18
ATOM     17  C   UNL     1       1.262   3.086  21.240  0.00  0.00    +0.000 C 
ATOM     18  C   UNL     1       0.929   4.147  20.192  0.00  0.00    +0.000 C 
ENDBRANCH  11  18
BRANCH  15  19
ATOM     19  C   UNL     1       4.496   6.394  17.102  0.00  0.00    +0.000 C 
ATOM     20  C   UNL     1       5.326   6.172  15.839  0.00  0.00    +0.000 C 
ENDBRANCH  15  19
ENDBRANCH   1  16
BRANCH   3  21
ATOM     21  O   UNL     1       0.981   8.351  22.077  0.00  0.00    +0.000 OA
ATOM     22  C   UNL     1       1.674   9.155  23.016  0.00  0.00    +0.000 C 
ENDBRANCH   3  21
BRANCH  10  23
ATOM     23  N   UNL     1      -0.587  10.691  20.431  0.00  0.00    +0.000 N 
ATOM     24  H   UNL     1      -1.153  10.074  19.855  0.00  0.00    +0.000 HD
BRANCH  23  25
ATOM     25  C   UNL     1      -1.274  11.744  21.034  0.00  0.00    +0.000 A 
ATOM     26  C   UNL     1      -1.571  12.926  20.346  0.00  0.00    +0.000 A 
ATOM     27  C   UNL     1      -2.137  14.022  20.987  0.00  0.00    +0.000 A 
ATOM     28  F   UNL     1      -2.363  15.141  20.286  0.00  0.00    +0.000 F 
ATOM     29  C   UNL     1      -2.439  13.982  22.333  0.00  0.00    +0.000 A 
ATOM     30  C   UNL     1      -2.147  12.827  23.055  0.00  0.00    +0.000 A 
ATOM     31  C   UNL     1      -1.536  11.717  22.428  0.00  0.00    +0.000 A 
ATOM     32  C   UNL     1      -1.212  10.535  23.301  0.00  0.00    +0.000 C 
ENDBRANCH  23  25
ENDBRANCH  10  23
TORSDOF 6
ENDMDL
MODEL 9
REMARK VINA RESULT:      -7.3      1.617      3.193
REMARK  Name = 
REMARK  10 active torsions:
REMARK  status: ('A' for Active; 'I' for Inactive)
REMARK    1  A    between atoms: C_1  and  C_2
REMARK    2  A    between atoms: C_2  and  C_3
REMARK    3  A    between atoms: C_7  and  C_8
REMARK    4  A    between atoms: C_8  and  C_9
REMARK    5  A    between atoms: C_10  and  C_11
REMARK    6  A    between atoms: C_13  and  O_14
REMARK    7  A    between atoms: O_14  and  C_15
REMARK    8  A    between atoms: C_22  and  N_23
REMARK    9  A    between atoms: N_23  and  C_24
REMARK   10  A    between atoms: C_30  and  C_31
REMARK                            x       y       z     vdW  Elec       q    Type
REMARK                         _______ _______ _______ _____ _____    ______ ____
ROOT
ATOM      1  C   UNL     1       2.670   6.965  18.609  0.00  0.00    +0.000 A 
ATOM      2  C   UNL     1       2.263   7.058  19.931  0.00  0.00    +0.000 A 
ATOM      3  C   UNL     1       1.583   8.194  20.398  0.00  0.00    +0.000 A 
ATOM      4  C   UNL     1       1.428   9.305  19.561  0.00  0.00    +0.000 A 
ATOM      5  C   UNL     1       2.031   9.196  18.307  0.00  0.00    +0.000 A 
ATOM      6  N   UNL     1       2.540   8.043  17.821  0.00  0.00    +0.000 NA
ATOM      7  C   UNL     1       2.229  10.372  17.391  0.00  0.00    +0.000 C 
ATOM      8  C   UNL     1       2.162  11.680  18.159  0.00  0.00    +0.000 C 
ATOM      9  C   UNL     1       0.829  11.723  18.883  0.00  0.00    +0.000 C 
ATOM     10  C   UNL     1       0.719  10.592  19.931  0.00  0.00    +0.000 C 
ENDROOT
BRANCH   1  16
ATOM     11  C   UNL     1       4.607   5.845  17.377  0.00  0.00    +0.000 A 
ATOM     12  C   UNL     1       5.239   4.691  16.872  0.00  0.00    +0.000 A 
ATOM     13  C   UNL     1       4.626   3.454  16.936  0.00  0.00    +0.000 A 
ATOM     14  C   UNL     1       3.343   3.354  17.453  0.00  0.00    +0.000 A 
ATOM     15  C   UNL     1       2.641   4.482  17.929  0.00  0.00    +0.000 A 
ATOM     16  C   UNL     1       3.300   5.762  17.974  0.00  0.00    +0.000 A 
BRANCH  11  18
ATOM     17  C   UNL     1       6.871   6.975  17.603  0.00  0.00    +0.000 C 
ATOM     18  C   UNL     1       5.407   7.131  17.196  0.00  0.00    +0.000 C 
ENDBRANCH  11  18
BRANCH  15  19
ATOM     19  C   UNL     1       1.214   4.261  18.418  0.00  0.00    +0.000 C 
ATOM     20  C   UNL     1       0.978   3.204  19.496  0.00  0.00    +0.000 C 
ENDBRANCH  15  19
ENDBRANCH   1  16
BRANCH   3  21
ATOM     21  O   UNL     1       1.054   7.989  21.645  0.00  0.00    +0.000 OA
ATOM     22  C   UNL     1       1.372   8.904  22.680  0.00  0.00    +0.000 C 
ENDBRANCH   3  21
BRANCH  10  23
ATOM     23  N   UNL     1      -0.698  10.314  20.173  0.00  0.00    +0.000 N 
ATOM     24  H   UNL     1      -0.952   9.332  20.103  0.00  0.00    +0.000 HD
BRANCH  23  25
ATOM     25  C   UNL     1      -1.728  11.218  19.915  0.00  0.00    +0.000 A 
ATOM     26  C   UNL     1      -2.100  12.202  20.838  0.00  0.00    +0.000 A 
ATOM     27  C   UNL     1      -3.211  13.012  20.634  0.00  0.00    +0.000 A 
ATOM     28  F   UNL     1      -3.542  13.910  21.571  0.00  0.00    +0.000 F 
ATOM     29  C   UNL     1      -3.988  12.883  19.501  0.00  0.00    +0.000 A 
ATOM     30  C   UNL     1      -3.657  11.907  18.564  0.00  0.00    +0.000 A 
ATOM     31  C   UNL     1      -2.554  11.049  18.774  0.00  0.00    +0.000 A 
ATOM     32  C   UNL     1      -2.307   9.991  17.732  0.00  0.00    +0.000 C 
ENDBRANCH  23  25
ENDBRANCH  10  23
TORSDOF 6
ENDMDL
