MODEL 1
REMARK VINA RESULT:      -8.9      0.000      0.000
REMARK  Name = 
REMARK  9 active torsions:
REMARK  status: ('A' for Active; 'I' for Inactive)
REMARK    1  A    between atoms: C_1  and  N_2
REMARK    2  A    between atoms: N_2  and  C_3
REMARK    3  A    between atoms: N_2  and  C_4
REMARK    4  A    between atoms: C_4  and  C_5
REMARK    5  A    between atoms: C_6  and  C_7
REMARK    6  A    between atoms: N_9  and  C_10
REMARK    7  A    between atoms: C_16  and  C_17
REMARK    8  A    between atoms: C_19  and  N_20
REMARK    9  A    between atoms: N_20  and  C_21
REMARK                            x       y       z     vdW  Elec       q    Type
REMARK                         _______ _______ _______ _____ _____    ______ ____
ROOT
ATOM      1  C   UNL     1       6.370   6.653  17.038  0.00  0.00    +0.000 A 
ATOM      2  C   UNL     1       6.630   5.642  16.117  0.00  0.00    +0.000 A 
ATOM      3  C   UNL     1       5.895   4.471  16.129  0.00  0.00    +0.000 A 
ATOM      4  C   UNL     1       4.874   4.261  17.034  0.00  0.00    +0.000 A 
ATOM      5  N   UNL     1       4.250   3.091  16.918  0.00  0.00    +0.000 NA
ATOM      6  C   UNL     1       3.191   2.872  17.718  0.00  0.00    +0.000 A 
ATOM      7  C   UNL     1       2.722   3.774  18.657  0.00  0.00    +0.000 A 
ATOM      8  C   UNL     1       3.427   4.989  18.845  0.00  0.00    +0.000 A 
ATOM      9  C   UNL     1       4.552   5.262  17.987  0.00  0.00    +0.000 A 
ATOM     10  C   UNL     1       5.357   6.451  17.986  0.00  0.00    +0.000 A 
ENDROOT
BRANCH   1  13
ATOM     11  C   UNL     1       8.068   8.183  17.986  0.00  0.00    +0.000 C 
ATOM     12  O   UNL     1       8.491   7.435  18.862  0.00  0.00    +0.000 OA
ATOM     13  N   UNL     1       7.108   7.866  17.041  0.00  0.00    +0.000 N 
ATOM     14  H   UNL     1       6.968   8.503  16.269  0.00  0.00    +0.000 HD
BRANCH  11  16
ATOM     15  C   UNL     1       9.188  10.090  18.958  0.00  0.00    +0.000 C 
ATOM     16  C   UNL     1       8.611   9.563  17.865  0.00  0.00    +0.000 C 
BRANCH  15  17
ATOM     17  C   UNL     1       9.733  11.474  19.101  0.00  0.00    +0.000 C 
BRANCH  17  19
ATOM     18  C   UNL     1       9.034  13.446  17.935  0.00  0.00    +0.000 C 
ATOM     19  N   UNL     1       9.822  12.211  17.834  0.00  0.00    +0.000 NA
ATOM     20  C   UNL     1      11.199  12.558  17.464  0.00  0.00    +0.000 C 
ENDBRANCH  17  19
ENDBRANCH  15  17
ENDBRANCH  11  16
ENDBRANCH   1  13
BRANCH   7  21
ATOM     21  C   UNL     1       1.501   3.398  19.297  0.00  0.00    +0.000 C 
ATOM     22  N   UNL     1       0.542   3.011  19.822  0.00  0.00    +0.000 NA
ENDBRANCH   7  21
BRANCH   8  23
ATOM     23  N   UNL     1       3.056   5.950  19.833  0.00  0.00    +0.000 N 
ATOM     24  H   UNL     1       3.276   5.703  20.788  0.00  0.00    +0.000 HD
BRANCH  23  25
ATOM     25  C   UNL     1       2.243   7.096  19.759  0.00  0.00    +0.000 A 
ATOM     26  C   UNL     1       2.204   7.904  18.615  0.00  0.00    +0.000 A 
ATOM     27  C   UNL     1       1.538   9.129  18.624  0.00  0.00    +0.000 A 
ATOM     28  C   UNL     1       0.859   9.534  19.766  0.00  0.00    +0.000 A 
ATOM     29  F   UNL     1       0.253  10.730  19.765  0.00  0.00    +0.000 F 
ATOM     30  C   UNL     1       0.817   8.710  20.887  0.00  0.00    +0.000 A 
ATOM     31 CL   UNL     1      -0.057   9.189  22.292  0.00  0.00    +0.000 Cl
ATOM     32  C   UNL     1       1.505   7.492  20.885  0.00  0.00    +0.000 A 
ENDBRANCH  23  25
ENDBRANCH   8  23
TORSDOF 7
ENDMDL
MODEL 2
REMARK VINA RESULT:      -8.8      0.799      1.108
REMARK  Name = 
REMARK  9 active torsions:
REMARK  status: ('A' for Active; 'I' for Inactive)
REMARK    1  A    between atoms: C_1  and  N_2
REMARK    2  A    between atoms: N_2  and  C_3
REMARK    3  A    between atoms: N_2  and  C_4
REMARK    4  A    between atoms: C_4  and  C_5
REMARK    5  A    between atoms: C_6  and  C_7
REMARK    6  A    between atoms: N_9  and  C_10
REMARK    7  A    between atoms: C_16  and  C_17
REMARK    8  A    between atoms: C_19  and  N_20
REMARK    9  A    between atoms: N_20  and  C_21
REMARK                            x       y       z     vdW  Elec       q    Type
REMARK                         _______ _______ _______ _____ _____    ______ ____
ROOT
ATOM      1  C   UNL     1       6.333   6.644  17.057  0.00  0.00    +0.000 A 
ATOM      2  C   UNL     1       6.578   5.633  16.132  0.00  0.00    +0.000 A 
ATOM      3  C   UNL     1       5.834   4.468  16.146  0.00  0.00    +0.000 A 
ATOM      4  C   UNL     1       4.818   4.264  17.058  0.00  0.00    +0.000 A 
ATOM      5  N   UNL     1       4.183   3.100  16.944  0.00  0.00    +0.000 NA
ATOM      6  C   UNL     1       3.127   2.888  17.750  0.00  0.00    +0.000 A 
ATOM      7  C   UNL     1       2.672   3.792  18.694  0.00  0.00    +0.000 A 
ATOM      8  C   UNL     1       3.388   5.000  18.880  0.00  0.00    +0.000 A 
ATOM      9  C   UNL     1       4.510   5.266  18.015  0.00  0.00    +0.000 A 
ATOM     10  C   UNL     1       5.325   6.448  18.012  0.00  0.00    +0.000 A 
ENDROOT
BRANCH   1  13
ATOM     11  C   UNL     1       8.048   8.159  17.999  0.00  0.00    +0.000 C 
ATOM     12  O   UNL     1       8.468   7.407  18.872  0.00  0.00    +0.000 OA
ATOM     13  N   UNL     1       7.081   7.851  17.058  0.00  0.00    +0.000 N 
ATOM     14  H   UNL     1       6.943   8.490  16.287  0.00  0.00    +0.000 HD
BRANCH  11  16
ATOM     15  C   UNL     1       9.169  10.064  18.973  0.00  0.00    +0.000 C 
ATOM     16  C   UNL     1       8.602   9.535  17.876  0.00  0.00    +0.000 C 
BRANCH  15  17
ATOM     17  C   UNL     1       9.722  11.445  19.115  0.00  0.00    +0.000 C 
BRANCH  17  19
ATOM     18  C   UNL     1      11.899  12.078  19.889  0.00  0.00    +0.000 C 
ATOM     19  N   UNL     1      10.565  11.628  20.305  0.00  0.00    +0.000 NA
ATOM     20  C   UNL     1      10.014  12.598  21.258  0.00  0.00    +0.000 C 
ENDBRANCH  17  19
ENDBRANCH  15  17
ENDBRANCH  11  16
ENDBRANCH   1  13
BRANCH   7  21
ATOM     21  C   UNL     1       1.452   3.424  19.342  0.00  0.00    +0.000 C 
ATOM     22  N   UNL     1       0.501   3.144  19.943  0.00  0.00    +0.000 NA
ENDBRANCH   7  21
BRANCH   8  23
ATOM     23  N   UNL     1       3.032   5.963  19.872  0.00  0.00    +0.000 N 
ATOM     24  H   UNL     1       3.264   5.716  20.824  0.00  0.00    +0.000 HD
BRANCH  23  25
ATOM     25  C   UNL     1       2.219   7.110  19.809  0.00  0.00    +0.000 A 
ATOM     26  C   UNL     1       2.186   7.932  18.674  0.00  0.00    +0.000 A 
ATOM     27  C   UNL     1       1.520   9.157  18.695  0.00  0.00    +0.000 A 
ATOM     28  C   UNL     1       0.837   9.548  19.839  0.00  0.00    +0.000 A 
ATOM     29  F   UNL     1       0.230  10.744  19.850  0.00  0.00    +0.000 F 
ATOM     30  C   UNL     1       0.789   8.711  20.950  0.00  0.00    +0.000 A 
ATOM     31 CL   UNL     1      -0.092   9.173  22.356  0.00  0.00    +0.000 Cl
ATOM     32  C   UNL     1       1.476   7.492  20.936  0.00  0.00    +0.000 A 
ENDBRANCH  23  25
ENDBRANCH   8  23
TORSDOF 7
ENDMDL
MODEL 3
REMARK VINA RESULT:      -8.3      0.986      1.320
REMARK  Name = 
REMARK  9 active torsions:
REMARK  status: ('A' for Active; 'I' for Inactive)
REMARK    1  A    between atoms: C_1  and  N_2
REMARK    2  A    between atoms: N_2  and  C_3
REMARK    3  A    between atoms: N_2  and  C_4
REMARK    4  A    between atoms: C_4  and  C_5
REMARK    5  A    between atoms: C_6  and  C_7
REMARK    6  A    between atoms: N_9  and  C_10
REMARK    7  A    between atoms: C_16  and  C_17
REMARK    8  A    between atoms: C_19  and  N_20
REMARK    9  A    between atoms: N_20  and  C_21
REMARK                            x       y       z     vdW  Elec       q    Type
REMARK                         _______ _______ _______ _____ _____    ______ ____
ROOT
ATOM      1  C   UNL     1       6.040   6.596  16.941  0.00  0.00    +0.000 A 
ATOM      2  C   UNL     1       6.132   5.648  15.926  0.00  0.00    +0.000 A 
ATOM      3  C   UNL     1       5.319   4.530  15.927  0.00  0.00    +0.000 A 
ATOM      4  C   UNL     1       4.381   4.314  16.916  0.00  0.00    +0.000 A 
ATOM      5  N   UNL     1       3.665   3.200  16.780  0.00  0.00    +0.000 NA
ATOM      6  C   UNL     1       2.678   2.985  17.668  0.00  0.00    +0.000 A 
ATOM      7  C   UNL     1       2.371   3.837  18.715  0.00  0.00    +0.000 A 
ATOM      8  C   UNL     1       3.178   4.984  18.918  0.00  0.00    +0.000 A 
ATOM      9  C   UNL     1       4.229   5.253  17.969  0.00  0.00    +0.000 A 
ATOM     10  C   UNL     1       5.114   6.383  17.972  0.00  0.00    +0.000 A 
ENDROOT
BRANCH   1  13
ATOM     11  C   UNL     1       7.875   7.969  17.874  0.00  0.00    +0.000 C 
ATOM     12  O   UNL     1       8.275   7.162  18.706  0.00  0.00    +0.000 OA
ATOM     13  N   UNL     1       6.861   7.754  16.957  0.00  0.00    +0.000 N 
ATOM     14  H   UNL     1       6.738   8.427  16.212  0.00  0.00    +0.000 HD
BRANCH  11  16
ATOM     15  C   UNL     1       8.994   9.839  18.915  0.00  0.00    +0.000 C 
ATOM     16  C   UNL     1       8.509   9.312  17.778  0.00  0.00    +0.000 C 
BRANCH  15  17
ATOM     17  C   UNL     1       9.602  11.194  19.082  0.00  0.00    +0.000 C 
BRANCH  17  19
ATOM     18  C   UNL     1       8.756  13.170  18.025  0.00  0.00    +0.000 C 
ATOM     19  N   UNL     1       9.618  11.995  17.850  0.00  0.00    +0.000 NA
ATOM     20  C   UNL     1      10.963  12.446  17.473  0.00  0.00    +0.000 C 
ENDBRANCH  17  19
ENDBRANCH  15  17
ENDBRANCH  11  16
ENDBRANCH   1  13
BRANCH   7  21
ATOM     21  C   UNL     1       1.196   3.490  19.450  0.00  0.00    +0.000 C 
ATOM     22  N   UNL     1       0.291   3.151  20.091  0.00  0.00    +0.000 NA
ENDBRANCH   7  21
BRANCH   8  23
ATOM     23  N   UNL     1       2.978   5.885  20.008  0.00  0.00    +0.000 N 
ATOM     24  H   UNL     1       3.285   5.552  20.911  0.00  0.00    +0.000 HD
BRANCH  23  25
ATOM     25  C   UNL     1       2.235   7.075  20.109  0.00  0.00    +0.000 A 
ATOM     26  C   UNL     1       1.437   7.357  21.226  0.00  0.00    +0.000 A 
ATOM     27  C   UNL     1       0.569   8.448  21.231  0.00  0.00    +0.000 A 
ATOM     28  C   UNL     1       0.529   9.299  20.134  0.00  0.00    +0.000 A 
ATOM     29  F   UNL     1      -0.336  10.324  20.144  0.00  0.00    +0.000 F 
ATOM     30  C   UNL     1       1.371   9.084  19.047  0.00  0.00    +0.000 A 
ATOM     31 CL   UNL     1       1.355  10.159  17.702  0.00  0.00    +0.000 Cl
ATOM     32  C   UNL     1       2.225   7.976  19.034  0.00  0.00    +0.000 A 
ENDBRANCH  23  25
ENDBRANCH   8  23
TORSDOF 7
ENDMDL
MODEL 4
REMARK VINA RESULT:      -8.2      1.290      1.738
REMARK  Name = 
REMARK  9 active torsions:
REMARK  status: ('A' for Active; 'I' for Inactive)
REMARK    1  A    between atoms: C_1  and  N_2
REMARK    2  A    between atoms: N_2  and  C_3
REMARK    3  A    between atoms: N_2  and  C_4
REMARK    4  A    between atoms: C_4  and  C_5
REMARK    5  A    between atoms: C_6  and  C_7
REMARK    6  A    between atoms: N_9  and  C_10
REMARK    7  A    between atoms: C_16  and  C_17
REMARK    8  A    between atoms: C_19  and  N_20
REMARK    9  A    between atoms: N_20  and  C_21
REMARK                            x       y       z     vdW  Elec       q    Type
REMARK                         _______ _______ _______ _____ _____    ______ ____
ROOT
ATOM      1  C   UNL     1       6.001   6.604  16.936  0.00  0.00    +0.000 A 
ATOM      2  C   UNL     1       6.101   5.659  15.920  0.00  0.00    +0.000 A 
ATOM      3  C   UNL     1       5.300   4.531  15.924  0.00  0.00    +0.000 A 
ATOM      4  C   UNL     1       4.368   4.304  16.915  0.00  0.00    +0.000 A 
ATOM      5  N   UNL     1       3.664   3.182  16.781  0.00  0.00    +0.000 NA
ATOM      6  C   UNL     1       2.683   2.956  17.672  0.00  0.00    +0.000 A 
ATOM      7  C   UNL     1       2.370   3.803  18.721  0.00  0.00    +0.000 A 
ATOM      8  C   UNL     1       3.164   4.959  18.923  0.00  0.00    +0.000 A 
ATOM      9  C   UNL     1       4.209   5.240  17.970  0.00  0.00    +0.000 A 
ATOM     10  C   UNL     1       5.081   6.380  17.971  0.00  0.00    +0.000 A 
ENDROOT
BRANCH   1  13
ATOM     11  C   UNL     1       7.820   8.000  17.867  0.00  0.00    +0.000 C 
ATOM     12  O   UNL     1       8.230   7.199  18.701  0.00  0.00    +0.000 OA
ATOM     13  N   UNL     1       6.809   7.772  16.950  0.00  0.00    +0.000 N 
ATOM     14  H   UNL     1       6.678   8.443  16.205  0.00  0.00    +0.000 HD
BRANCH  11  16
ATOM     15  C   UNL     1       9.099   9.798  18.850  0.00  0.00    +0.000 C 
ATOM     16  C   UNL     1       8.439   9.350  17.769  0.00  0.00    +0.000 C 
BRANCH  15  17
ATOM     17  C   UNL     1       9.734  11.141  19.017  0.00  0.00    +0.000 C 
BRANCH  17  19
ATOM     18  C   UNL     1      11.284  12.410  20.329  0.00  0.00    +0.000 C 
ATOM     19  N   UNL     1      10.215  11.405  20.380  0.00  0.00    +0.000 NA
ATOM     20  C   UNL     1       9.161  11.881  21.282  0.00  0.00    +0.000 C 
ENDBRANCH  17  19
ENDBRANCH  15  17
ENDBRANCH  11  16
ENDBRANCH   1  13
BRANCH   7  21
ATOM     21  C   UNL     1       1.202   3.442  19.460  0.00  0.00    +0.000 C 
ATOM     22  N   UNL     1       0.306   3.118  20.122  0.00  0.00    +0.000 NA
ENDBRANCH   7  21
BRANCH   8  23
ATOM     23  N   UNL     1       2.958   5.856  20.014  0.00  0.00    +0.000 N 
ATOM     24  H   UNL     1       3.247   5.515  20.920  0.00  0.00    +0.000 HD
BRANCH  23  25
ATOM     25  C   UNL     1       2.228   7.055  20.109  0.00  0.00    +0.000 A 
ATOM     26  C   UNL     1       1.424   7.346  21.220  0.00  0.00    +0.000 A 
ATOM     27  C   UNL     1       0.570   8.448  21.217  0.00  0.00    +0.000 A 
ATOM     28  C   UNL     1       0.549   9.300  20.121  0.00  0.00    +0.000 A 
ATOM     29  F   UNL     1      -0.303  10.335  20.124  0.00  0.00    +0.000 F 
ATOM     30  C   UNL     1       1.399   9.075  19.041  0.00  0.00    +0.000 A 
ATOM     31 CL   UNL     1       1.408  10.152  17.697  0.00  0.00    +0.000 Cl
ATOM     32  C   UNL     1       2.240   7.957  19.035  0.00  0.00    +0.000 A 
ENDBRANCH  23  25
ENDBRANCH   8  23
TORSDOF 7
ENDMDL
MODEL 5
REMARK VINA RESULT:      -8.0      1.559      1.973
REMARK  Name = 
REMARK  9 active torsions:
REMARK  status: ('A' for Active; 'I' for Inactive)
REMARK    1  A    between atoms: C_1  and  N_2
REMARK    2  A    between atoms: N_2  and  C_3
REMARK    3  A    between atoms: N_2  and  C_4
REMARK    4  A    between atoms: C_4  and  C_5
REMARK    5  A    between atoms: C_6  and  C_7
REMARK    6  A    between atoms: N_9  and  C_10
REMARK    7  A    between atoms: C_16  and  C_17
REMARK    8  A    between atoms: C_19  and  N_20
REMARK    9  A    between atoms: N_20  and  C_21
REMARK                            x       y       z     vdW  Elec       q    Type
REMARK                         _______ _______ _______ _____ _____    ______ ____
ROOT
ATOM      1  C   UNL     1       7.385   7.734  17.827  0.00  0.00    +0.000 A 
ATOM      2  C   UNL     1       8.148   6.651  18.253  0.00  0.00    +0.000 A 
ATOM      3  C   UNL     1       7.549   5.445  18.568  0.00  0.00    +0.000 A 
ATOM      4  C   UNL     1       6.186   5.261  18.462  0.00  0.00    +0.000 A 
ATOM      5  N   UNL     1       5.754   4.045  18.790  0.00  0.00    +0.000 NA
ATOM      6  C   UNL     1       4.445   3.785  18.621  0.00  0.00    +0.000 A 
ATOM      7  C   UNL     1       3.523   4.701  18.144  0.00  0.00    +0.000 A 
ATOM      8  C   UNL     1       3.955   6.022  17.869  0.00  0.00    +0.000 A 
ATOM      9  C   UNL     1       5.356   6.324  18.018  0.00  0.00    +0.000 A 
ATOM     10  C   UNL     1       5.994   7.580  17.740  0.00  0.00    +0.000 A 
ENDROOT
BRANCH   1  13
ATOM     11  C   UNL     1       8.691   9.760  18.388  0.00  0.00    +0.000 C 
ATOM     12  O   UNL     1       9.003   9.442  19.531  0.00  0.00    +0.000 OA
ATOM     13  N   UNL     1       7.979   8.980  17.494  0.00  0.00    +0.000 N 
ATOM     14  H   UNL     1       7.932   9.279  16.529  0.00  0.00    +0.000 HD
BRANCH  11  16
ATOM     15  C   UNL     1      10.421  11.345  17.813  0.00  0.00    +0.000 C 
ATOM     16  C   UNL     1       9.103  11.084  17.849  0.00  0.00    +0.000 C 
BRANCH  15  17
ATOM     17  C   UNL     1      11.067  12.624  17.388  0.00  0.00    +0.000 C 
BRANCH  17  19
ATOM     18  C   UNL     1      12.199  14.443  18.459  0.00  0.00    +0.000 C 
ATOM     19  N   UNL     1      12.233  12.998  18.200  0.00  0.00    +0.000 NA
ATOM     20  C   UNL     1      12.295  12.288  19.483  0.00  0.00    +0.000 C 
ENDBRANCH  17  19
ENDBRANCH  15  17
ENDBRANCH  11  16
ENDBRANCH   1  13
BRANCH   7  21
ATOM     21  C   UNL     1       2.216   4.173  17.909  0.00  0.00    +0.000 C 
ATOM     22  N   UNL     1       1.189   3.666  17.730  0.00  0.00    +0.000 NA
ENDBRANCH   7  21
BRANCH   8  23
ATOM     23  N   UNL     1       3.064   7.050  17.436  0.00  0.00    +0.000 N 
ATOM     24  H   UNL     1       3.144   7.316  16.464  0.00  0.00    +0.000 HD
BRANCH  23  25
ATOM     25  C   UNL     1       2.232   7.927  18.156  0.00  0.00    +0.000 A 
ATOM     26  C   UNL     1       1.608   9.024  17.546  0.00  0.00    +0.000 A 
ATOM     27  C   UNL     1       0.939   9.982  18.306  0.00  0.00    +0.000 A 
ATOM     28  C   UNL     1       0.843   9.823  19.683  0.00  0.00    +0.000 A 
ATOM     29  F   UNL     1       0.223  10.771  20.400  0.00  0.00    +0.000 F 
ATOM     30  C   UNL     1       1.384   8.699  20.299  0.00  0.00    +0.000 A 
ATOM     31 CL   UNL     1       1.232   8.475  22.000  0.00  0.00    +0.000 Cl
ATOM     32  C   UNL     1       2.076   7.749  19.538  0.00  0.00    +0.000 A 
ENDBRANCH  23  25
ENDBRANCH   8  23
TORSDOF 7
ENDMDL
MODEL 6
REMARK VINA RESULT:      -7.8      1.504      1.895
REMARK  Name = 
REMARK  9 active torsions:
REMARK  status: ('A' for Active; 'I' for Inactive)
REMARK    1  A    between atoms: C_1  and  N_2
REMARK    2  A    between atoms: N_2  and  C_3
REMARK    3  A    between atoms: N_2  and  C_4
REMARK    4  A    between atoms: C_4  and  C_5
REMARK    5  A    between atoms: C_6  and  C_7
REMARK    6  A    between atoms: N_9  and  C_10
REMARK    7  A    between atoms: C_16  and  C_17
REMARK    8  A    between atoms: C_19  and  N_20
REMARK    9  A    between atoms: N_20  and  C_21
REMARK                            x       y       z     vdW  Elec       q    Type
REMARK                         _______ _______ _______ _____ _____    ______ ____
ROOT
ATOM      1  C   UNL     1       7.099   7.401  17.624  0.00  0.00    +0.000 A 
ATOM      2  C   UNL     1       7.896   6.273  17.797  0.00  0.00    +0.000 A 
ATOM      3  C   UNL     1       7.326   5.039  18.048  0.00  0.00    +0.000 A 
ATOM      4  C   UNL     1       5.959   4.870  18.124  0.00  0.00    +0.000 A 
ATOM      5  N   UNL     1       5.557   3.623  18.362  0.00  0.00    +0.000 NA
ATOM      6  C   UNL     1       4.233   3.388  18.359  0.00  0.00    +0.000 A 
ATOM      7  C   UNL     1       3.268   4.357  18.139  0.00  0.00    +0.000 A 
ATOM      8  C   UNL     1       3.680   5.701  17.965  0.00  0.00    +0.000 A 
ATOM      9  C   UNL     1       5.094   5.981  17.941  0.00  0.00    +0.000 A 
ATOM     10  C   UNL     1       5.708   7.260  17.726  0.00  0.00    +0.000 A 
ENDROOT
BRANCH   1  13
ATOM     11  C   UNL     1       8.492   9.353  18.238  0.00  0.00    +0.000 C 
ATOM     12  O   UNL     1       8.943   8.907  19.288  0.00  0.00    +0.000 OA
ATOM     13  N   UNL     1       7.662   8.678  17.360  0.00  0.00    +0.000 N 
ATOM     14  H   UNL     1       7.497   9.084  16.449  0.00  0.00    +0.000 HD
BRANCH  11  16
ATOM     15  C   UNL     1       9.473  11.511  18.702  0.00  0.00    +0.000 C 
ATOM     16  C   UNL     1       8.849  10.730  17.803  0.00  0.00    +0.000 C 
BRANCH  15  17
ATOM     17  C   UNL     1       9.860  12.943  18.524  0.00  0.00    +0.000 C 
BRANCH  17  19
ATOM     18  C   UNL     1      12.046  12.029  18.877  0.00  0.00    +0.000 C 
ATOM     19  N   UNL     1      11.296  13.145  18.287  0.00  0.00    +0.000 NA
ATOM     20  C   UNL     1      11.637  13.245  16.864  0.00  0.00    +0.000 C 
ENDBRANCH  17  19
ENDBRANCH  15  17
ENDBRANCH  11  16
ENDBRANCH   1  13
BRANCH   7  21
ATOM     21  C   UNL     1       1.931   3.863  18.038  0.00  0.00    +0.000 C 
ATOM     22  N   UNL     1       0.833   3.489  18.038  0.00  0.00    +0.000 NA
ENDBRANCH   7  21
BRANCH   8  23
ATOM     23  N   UNL     1       2.756   6.776  17.797  0.00  0.00    +0.000 N 
ATOM     24  H   UNL     1       2.573   7.049  16.841  0.00  0.00    +0.000 HD
BRANCH  23  25
ATOM     25  C   UNL     1       2.203   7.682  18.720  0.00  0.00    +0.000 A 
ATOM     26  C   UNL     1       2.057   7.362  20.076  0.00  0.00    +0.000 A 
ATOM     27  C   UNL     1       1.344   8.195  20.937  0.00  0.00    +0.000 A 
ATOM     28  C   UNL     1       0.812   9.385  20.459  0.00  0.00    +0.000 A 
ATOM     29  F   UNL     1       0.102  10.156  21.295  0.00  0.00    +0.000 F 
ATOM     30  C   UNL     1       1.014   9.762  19.134  0.00  0.00    +0.000 A 
ATOM     31 CL   UNL     1       0.392  11.257  18.546  0.00  0.00    +0.000 Cl
ATOM     32  C   UNL     1       1.710   8.915  18.265  0.00  0.00    +0.000 A 
ENDBRANCH  23  25
ENDBRANCH   8  23
TORSDOF 7
ENDMDL
MODEL 7
REMARK VINA RESULT:      -7.8      1.036      1.182
REMARK  Name = 
REMARK  9 active torsions:
REMARK  status: ('A' for Active; 'I' for Inactive)
REMARK    1  A    between atoms: C_1  and  N_2
REMARK    2  A    between atoms: N_2  and  C_3
REMARK    3  A    between atoms: N_2  and  C_4
REMARK    4  A    between atoms: C_4  and  C_5
REMARK    5  A    between atoms: C_6  and  C_7
REMARK    6  A    between atoms: N_9  and  C_10
REMARK    7  A    between atoms: C_16  and  C_17
REMARK    8  A    between atoms: C_19  and  N_20
REMARK    9  A    between atoms: N_20  and  C_21
REMARK                            x       y       z     vdW  Elec       q    Type
REMARK                         _______ _______ _______ _____ _____    ______ ____
ROOT
ATOM      1  C   UNL     1       7.323   6.367  18.200  0.00  0.00    +0.000 A 
ATOM      2  C   UNL     1       7.753   5.500  17.200  0.00  0.00    +0.000 A 
ATOM      3  C   UNL     1       6.932   4.483  16.747  0.00  0.00    +0.000 A 
ATOM      4  C   UNL     1       5.662   4.294  17.251  0.00  0.00    +0.000 A 
ATOM      5  N   UNL     1       4.986   3.281  16.712  0.00  0.00    +0.000 NA
ATOM      6  C   UNL     1       3.712   3.108  17.105  0.00  0.00    +0.000 A 
ATOM      7  C   UNL     1       3.068   3.902  18.038  0.00  0.00    +0.000 A 
ATOM      8  C   UNL     1       3.801   4.931  18.678  0.00  0.00    +0.000 A 
ATOM      9  C   UNL     1       5.162   5.157  18.262  0.00  0.00    +0.000 A 
ATOM     10  C   UNL     1       6.047   6.177  18.748  0.00  0.00    +0.000 A 
ENDROOT
BRANCH   1  13
ATOM     11  C   UNL     1       8.135   8.705  18.160  0.00  0.00    +0.000 C 
ATOM     12  O   UNL     1       7.352   9.135  17.320  0.00  0.00    +0.000 OA
ATOM     13  N   UNL     1       8.146   7.421  18.677  0.00  0.00    +0.000 N 
ATOM     14  H   UNL     1       8.726   7.235  19.485  0.00  0.00    +0.000 HD
BRANCH  11  16
ATOM     15  C   UNL     1       9.414  10.752  18.076  0.00  0.00    +0.000 C 
ATOM     16  C   UNL     1       9.178   9.601  18.728  0.00  0.00    +0.000 C 
BRANCH  15  17
ATOM     17  C   UNL     1      10.458  11.769  18.409  0.00  0.00    +0.000 C 
BRANCH  17  19
ATOM     18  C   UNL     1      10.792  13.926  17.423  0.00  0.00    +0.000 C 
ATOM     19  N   UNL     1       9.971  13.155  18.364  0.00  0.00    +0.000 NA
ATOM     20  C   UNL     1       8.564  13.259  17.961  0.00  0.00    +0.000 C 
ENDBRANCH  17  19
ENDBRANCH  15  17
ENDBRANCH  11  16
ENDBRANCH   1  13
BRANCH   7  21
ATOM     21  C   UNL     1       1.674   3.630  18.202  0.00  0.00    +0.000 C 
ATOM     22  N   UNL     1       0.549   3.358  18.265  0.00  0.00    +0.000 NA
ENDBRANCH   7  21
BRANCH   8  23
ATOM     23  N   UNL     1       3.240   5.758  19.699  0.00  0.00    +0.000 N 
ATOM     24  H   UNL     1       3.281   5.383  20.636  0.00  0.00    +0.000 HD
BRANCH  23  25
ATOM     25  C   UNL     1       2.442   6.914  19.627  0.00  0.00    +0.000 A 
ATOM     26  C   UNL     1       2.396   7.713  18.477  0.00  0.00    +0.000 A 
ATOM     27  C   UNL     1       1.747   8.947  18.485  0.00  0.00    +0.000 A 
ATOM     28  C   UNL     1       1.092   9.371  19.634  0.00  0.00    +0.000 A 
ATOM     29  F   UNL     1       0.502  10.575  19.632  0.00  0.00    +0.000 F 
ATOM     30  C   UNL     1       1.055   8.557  20.763  0.00  0.00    +0.000 A 
ATOM     31 CL   UNL     1       0.209   9.060  22.176  0.00  0.00    +0.000 Cl
ATOM     32  C   UNL     1       1.726   7.329  20.760  0.00  0.00    +0.000 A 
ENDBRANCH  23  25
ENDBRANCH   8  23
TORSDOF 7
ENDMDL
MODEL 8
REMARK VINA RESULT:      -7.6      1.561      2.056
REMARK  Name = 
REMARK  9 active torsions:
REMARK  status: ('A' for Active; 'I' for Inactive)
REMARK    1  A    between atoms: C_1  and  N_2
REMARK    2  A    between atoms: N_2  and  C_3
REMARK    3  A    between atoms: N_2  and  C_4
REMARK    4  A    between atoms: C_4  and  C_5
REMARK    5  A    between atoms: C_6  and  C_7
REMARK    6  A    between atoms: N_9  and  C_10
REMARK    7  A    between atoms: C_16  and  C_17
REMARK    8  A    between atoms: C_19  and  N_20
REMARK    9  A    between atoms: N_20  and  C_21
REMARK                            x       y       z     vdW  Elec       q    Type
REMARK                         _______ _______ _______ _____ _____    ______ ____
ROOT
ATOM      1  C   UNL     1       7.408   7.681  17.860  0.00  0.00    +0.000 A 
ATOM      2  C   UNL     1       8.175   6.621  18.336  0.00  0.00    +0.000 A 
ATOM      3  C   UNL     1       7.579   5.432  18.714  0.00  0.00    +0.000 A 
ATOM      4  C   UNL     1       6.216   5.240  18.622  0.00  0.00    +0.000 A 
ATOM      5  N   UNL     1       5.788   4.042  19.012  0.00  0.00    +0.000 NA
ATOM      6  C   UNL     1       4.478   3.772  18.861  0.00  0.00    +0.000 A 
ATOM      7  C   UNL     1       3.553   4.661  18.342  0.00  0.00    +0.000 A 
ATOM      8  C   UNL     1       3.981   5.968  18.000  0.00  0.00    +0.000 A 
ATOM      9  C   UNL     1       5.383   6.279  18.129  0.00  0.00    +0.000 A 
ATOM     10  C   UNL     1       6.017   7.520  17.786  0.00  0.00    +0.000 A 
ENDROOT
BRANCH   1  13
ATOM     11  C   UNL     1       8.696   9.744  18.319  0.00  0.00    +0.000 C 
ATOM     12  O   UNL     1       8.996   9.494  19.482  0.00  0.00    +0.000 OA
ATOM     13  N   UNL     1       7.999   8.909  17.463  0.00  0.00    +0.000 N 
ATOM     14  H   UNL     1       7.963   9.152  16.482  0.00  0.00    +0.000 HD
BRANCH  11  16
ATOM     15  C   UNL     1       9.049  12.127  18.494  0.00  0.00    +0.000 C 
ATOM     16  C   UNL     1       9.107  11.038  17.709  0.00  0.00    +0.000 C 
BRANCH  15  17
ATOM     17  C   UNL     1       9.337  13.536  18.088  0.00  0.00    +0.000 C 
BRANCH  17  19
ATOM     18  C   UNL     1       8.694  15.844  18.089  0.00  0.00    +0.000 C 
ATOM     19  N   UNL     1       8.259  14.480  18.414  0.00  0.00    +0.000 NA
ATOM     20  C   UNL     1       7.010  14.198  17.698  0.00  0.00    +0.000 C 
ENDBRANCH  17  19
ENDBRANCH  15  17
ENDBRANCH  11  16
ENDBRANCH   1  13
BRANCH   7  21
ATOM     21  C   UNL     1       2.246   4.121  18.139  0.00  0.00    +0.000 C 
ATOM     22  N   UNL     1       1.212   3.656  17.895  0.00  0.00    +0.000 NA
ENDBRANCH   7  21
BRANCH   8  23
ATOM     23  N   UNL     1       3.088   6.972  17.519  0.00  0.00    +0.000 N 
ATOM     24  H   UNL     1       3.147   7.172  16.530  0.00  0.00    +0.000 HD
BRANCH  23  25
ATOM     25  C   UNL     1       2.276   7.900  18.198  0.00  0.00    +0.000 A 
ATOM     26  C   UNL     1       1.752   9.031  17.559  0.00  0.00    +0.000 A 
ATOM     27  C   UNL     1       1.106  10.030  18.285  0.00  0.00    +0.000 A 
ATOM     28  C   UNL     1       0.933   9.881  19.655  0.00  0.00    +0.000 A 
ATOM     29  F   UNL     1       0.338  10.868  20.341  0.00  0.00    +0.000 F 
ATOM     30  C   UNL     1       1.373   8.728  20.297  0.00  0.00    +0.000 A 
ATOM     31 CL   UNL     1       1.124   8.519  21.989  0.00  0.00    +0.000 Cl
ATOM     32  C   UNL     1       2.042   7.736  19.571  0.00  0.00    +0.000 A 
ENDBRANCH  23  25
ENDBRANCH   8  23
TORSDOF 7
ENDMDL
MODEL 9
REMARK VINA RESULT:      -7.5      4.475      7.636
REMARK  Name = 
REMARK  9 active torsions:
REMARK  status: ('A' for Active; 'I' for Inactive)
REMARK    1  A    between atoms: C_1  and  N_2
REMARK    2  A    between atoms: N_2  and  C_3
REMARK    3  A    between atoms: N_2  and  C_4
REMARK    4  A    between atoms: C_4  and  C_5
REMARK    5  A    between atoms: C_6  and  C_7
REMARK    6  A    between atoms: N_9  and  C_10
REMARK    7  A    between atoms: C_16  and  C_17
REMARK    8  A    between atoms: C_19  and  N_20
REMARK    9  A    between atoms: N_20  and  C_21
REMARK                            x       y       z     vdW  Elec       q    Type
REMARK                         _______ _______ _______ _____ _____    ______ ____
ROOT
ATOM      1  C   UNL     1       1.568   8.538  20.023  0.00  0.00    +0.000 A 
ATOM      2  C   UNL     1       1.756   8.167  21.352  0.00  0.00    +0.000 A 
ATOM      3  C   UNL     1       1.109   8.841  22.371  0.00  0.00    +0.000 A 
ATOM      4  C   UNL     1       0.248   9.889  22.118  0.00  0.00    +0.000 A 
ATOM      5  N   UNL     1      -0.309  10.434  23.198  0.00  0.00    +0.000 NA
ATOM      6  C   UNL     1      -1.223  11.401  23.002  0.00  0.00    +0.000 A 
ATOM      7  C   UNL     1      -1.608  11.871  21.759  0.00  0.00    +0.000 A 
ATOM      8  C   UNL     1      -0.964  11.357  20.607  0.00  0.00    +0.000 A 
ATOM      9  C   UNL     1       0.004  10.303  20.783  0.00  0.00    +0.000 A 
ATOM     10  C   UNL     1       0.721   9.619  19.744  0.00  0.00    +0.000 A 
ENDROOT
BRANCH   1  13
ATOM     11  C   UNL     1       2.562   6.517  18.996  0.00  0.00    +0.000 C 
ATOM     12  O   UNL     1       2.257   5.720  19.877  0.00  0.00    +0.000 OA
ATOM     13  N   UNL     1       2.219   7.857  18.960  0.00  0.00    +0.000 N 
ATOM     14  H   UNL     1       2.380   8.370  18.103  0.00  0.00    +0.000 HD
BRANCH  11  16
ATOM     15  C   UNL     1       4.460   6.762  17.523  0.00  0.00    +0.000 C 
ATOM     16  C   UNL     1       3.355   6.059  17.824  0.00  0.00    +0.000 C 
BRANCH  15  17
ATOM     17  C   UNL     1       5.369   6.541  16.357  0.00  0.00    +0.000 C 
BRANCH  17  19
ATOM     18  C   UNL     1       7.279   7.544  17.398  0.00  0.00    +0.000 C 
ATOM     19  N   UNL     1       6.776   6.338  16.731  0.00  0.00    +0.000 NA
ATOM     20  C   UNL     1       6.976   5.187  17.619  0.00  0.00    +0.000 C 
ENDBRANCH  17  19
ENDBRANCH  15  17
ENDBRANCH  11  16
ENDBRANCH   1  13
BRANCH   7  21
ATOM     21  C   UNL     1      -2.695  12.799  21.775  0.00  0.00    +0.000 C 
ATOM     22  N   UNL     1      -3.530  13.602  21.735  0.00  0.00    +0.000 NA
ENDBRANCH   7  21
BRANCH   8  23
ATOM     23  N   UNL     1      -1.248  11.826  19.289  0.00  0.00    +0.000 N 
ATOM     24  H   UNL     1      -0.909  12.754  19.073  0.00  0.00    +0.000 HD
BRANCH  23  25
ATOM     25  C   UNL     1      -2.102  11.331  18.287  0.00  0.00    +0.000 A 
ATOM     26  C   UNL     1      -1.672  10.381  17.350  0.00  0.00    +0.000 A 
ATOM     27  C   UNL     1      -2.469  10.038  16.259  0.00  0.00    +0.000 A 
ATOM     28  C   UNL     1      -3.729  10.607  16.121  0.00  0.00    +0.000 A 
ATOM     29  F   UNL     1      -4.466  10.289  15.048  0.00  0.00    +0.000 F 
ATOM     30  C   UNL     1      -4.209  11.491  17.083  0.00  0.00    +0.000 A 
ATOM     31 CL   UNL     1      -5.786  12.167  16.940  0.00  0.00    +0.000 Cl
ATOM     32  C   UNL     1      -3.399  11.852  18.167  0.00  0.00    +0.000 A 
ENDBRANCH  23  25
ENDBRANCH   8  23
TORSDOF 7
ENDMDL
