MODEL 1
REMARK VINA RESULT:      -6.5      0.000      0.000
REMARK  Name = 
REMARK  6 active torsions:
REMARK  status: ('A' for Active; 'I' for Inactive)
REMARK    1  A    between atoms: C_1  and  C_2
REMARK    2  A    between atoms: C_2  and  C_3
REMARK    3  A    between atoms: C_3  and  C_4
REMARK    4  A    between atoms: C_3  and  N_16
REMARK    5  A    between atoms: N_6  and  C_7
REMARK    6  A    between atoms: C_7  and  C_8
REMARK                            x       y       z     vdW  Elec       q    Type
REMARK                         _______ _______ _______ _____ _____    ______ ____
ROOT
ATOM      1  C   UNL     1       4.351   3.978  18.967  0.00  0.00    +0.000 C 
ATOM      2  O   UNL     1       4.999   3.092  19.520  0.00  0.00    +0.000 OA
ATOM      3  N   UNL     1       4.949   4.909  18.142  0.00  0.00    +0.000 N 
ATOM      4  H   UNL     1       4.377   5.428  17.478  0.00  0.00    +0.000 HD
ENDROOT
BRANCH   1   5
ATOM      5  C   UNL     1       2.847   4.163  19.176  0.00  0.00    +0.000 C 
BRANCH   5   6
ATOM      6  N   UNL     1       2.533   5.592  19.184  0.00  0.00    +0.000 N 
ATOM      7  C   UNL     1       2.273   6.378  20.275  0.00  0.00    +0.000 A 
ATOM      8  C   UNL     1       2.065   7.647  19.790  0.00  0.00    +0.000 A 
ATOM      9  C   UNL     1       2.211   7.526  18.397  0.00  0.00    +0.000 A 
ATOM     10  N   UNL     1       2.486   6.274  18.020  0.00  0.00    +0.000 NA
ENDBRANCH   5   6
BRANCH   5  12
ATOM     11  C   UNL     1       0.912   2.531  18.733  0.00  0.00    +0.000 C 
ATOM     12  C   UNL     1       1.978   3.438  18.133  0.00  0.00    +0.000 C 
ENDBRANCH   5  12
ENDBRANCH   1   5
BRANCH   3  13
ATOM     13  C   UNL     1       6.356   4.805  17.833  0.00  0.00    +0.000 C 
BRANCH  13  14
ATOM     14  C   UNL     1       6.525   4.595  16.368  0.00  0.00    +0.000 A 
ATOM     15  C   UNL     1       5.849   3.697  15.546  0.00  0.00    +0.000 A 
ATOM     16  N   UNL     1       6.337   3.941  14.300  0.00  0.00    +0.000 N 
ATOM     17  C   UNL     1       6.113   3.474  13.026  0.00  0.00    +0.000 A 
ATOM     18  C   UNL     1       6.890   4.103  12.128  0.00  0.00    +0.000 A 
ATOM     19  S   UNL     1       7.948   5.323  12.867  0.00  0.00    +0.000 S 
ATOM     20  C   UNL     1       7.271   4.922  14.415  0.00  0.00    +0.000 A 
ATOM     21  N   UNL     1       7.434   5.353  15.636  0.00  0.00    +0.000 NA
ENDBRANCH  13  14
ENDBRANCH   3  13
TORSDOF 5
ENDMDL
MODEL 2
REMARK VINA RESULT:      -6.4      2.878      7.038
REMARK  Name = 
REMARK  6 active torsions:
REMARK  status: ('A' for Active; 'I' for Inactive)
REMARK    1  A    between atoms: C_1  and  C_2
REMARK    2  A    between atoms: C_2  and  C_3
REMARK    3  A    between atoms: C_3  and  C_4
REMARK    4  A    between atoms: C_3  and  N_16
REMARK    5  A    between atoms: N_6  and  C_7
REMARK    6  A    between atoms: C_7  and  C_8
REMARK                            x       y       z     vdW  Elec       q    Type
REMARK                         _______ _______ _______ _____ _____    ______ ____
ROOT
ATOM      1  C   UNL     1       5.951   5.509  18.600  0.00  0.00    +0.000 C 
ATOM      2  O   UNL     1       6.214   4.870  19.617  0.00  0.00    +0.000 OA
ATOM      3  N   UNL     1       4.654   5.847  18.270  0.00  0.00    +0.000 N 
ATOM      4  H   UNL     1       4.489   6.607  17.612  0.00  0.00    +0.000 HD
ENDROOT
BRANCH   1   5
ATOM      5  C   UNL     1       7.015   5.941  17.590  0.00  0.00    +0.000 C 
BRANCH   5   6
ATOM      6  N   UNL     1       6.815   5.214  16.337  0.00  0.00    +0.000 N 
ATOM      7  C   UNL     1       6.108   4.056  16.153  0.00  0.00    +0.000 A 
ATOM      8  C   UNL     1       6.177   3.775  14.810  0.00  0.00    +0.000 A 
ATOM      9  C   UNL     1       6.955   4.812  14.267  0.00  0.00    +0.000 A 
ATOM     10  N   UNL     1       7.355   5.688  15.194  0.00  0.00    +0.000 NA
ENDBRANCH   5   6
BRANCH   5  12
ATOM     11  C   UNL     1       8.157   8.198  18.047  0.00  0.00    +0.000 C 
ATOM     12  C   UNL     1       7.041   7.457  17.322  0.00  0.00    +0.000 C 
ENDBRANCH   5  12
ENDBRANCH   1   5
BRANCH   3  13
ATOM     13  C   UNL     1       3.571   5.534  19.173  0.00  0.00    +0.000 C 
BRANCH  13  14
ATOM     14  C   UNL     1       2.721   6.742  19.361  0.00  0.00    +0.000 A 
ATOM     15  C   UNL     1       1.973   7.100  20.478  0.00  0.00    +0.000 A 
ATOM     16  N   UNL     1       1.429   8.305  20.155  0.00  0.00    +0.000 N 
ATOM     17  C   UNL     1       0.632   9.243  20.767  0.00  0.00    +0.000 A 
ATOM     18  C   UNL     1       0.408  10.297  19.966  0.00  0.00    +0.000 A 
ATOM     19  S   UNL     1       1.206  10.143  18.387  0.00  0.00    +0.000 S 
ATOM     20  C   UNL     1       1.834   8.605  18.893  0.00  0.00    +0.000 A 
ATOM     21  N   UNL     1       2.609   7.701  18.358  0.00  0.00    +0.000 NA
ENDBRANCH  13  14
ENDBRANCH   3  13
TORSDOF 5
ENDMDL
MODEL 3
REMARK VINA RESULT:      -6.4      1.416      2.564
REMARK  Name = 
REMARK  6 active torsions:
REMARK  status: ('A' for Active; 'I' for Inactive)
REMARK    1  A    between atoms: C_1  and  C_2
REMARK    2  A    between atoms: C_2  and  C_3
REMARK    3  A    between atoms: C_3  and  C_4
REMARK    4  A    between atoms: C_3  and  N_16
REMARK    5  A    between atoms: N_6  and  C_7
REMARK    6  A    between atoms: C_7  and  C_8
REMARK                            x       y       z     vdW  Elec       q    Type
REMARK                         _______ _______ _______ _____ _____    ______ ____
ROOT
ATOM      1  C   UNL     1       4.170   6.177  17.970  0.00  0.00    +0.000 C 
ATOM      2  O   UNL     1       4.965   7.110  17.876  0.00  0.00    +0.000 OA
ATOM      3  N   UNL     1       4.573   4.863  17.837  0.00  0.00    +0.000 N 
ATOM      4  H   UNL     1       3.981   4.121  18.205  0.00  0.00    +0.000 HD
ENDROOT
BRANCH   1   5
ATOM      5  C   UNL     1       2.671   6.380  18.189  0.00  0.00    +0.000 C 
BRANCH   5   6
ATOM      6  N   UNL     1       2.156   5.306  19.038  0.00  0.00    +0.000 N 
ATOM      7  C   UNL     1       2.124   5.273  20.406  0.00  0.00    +0.000 A 
ATOM      8  C   UNL     1       1.527   4.082  20.746  0.00  0.00    +0.000 A 
ATOM      9  C   UNL     1       1.244   3.461  19.517  0.00  0.00    +0.000 A 
ATOM     10  N   UNL     1       1.634   4.197  18.472  0.00  0.00    +0.000 NA
ENDBRANCH   5   6
BRANCH   5  12
ATOM     11  C   UNL     1       1.944   8.808  17.760  0.00  0.00    +0.000 C 
ATOM     12  C   UNL     1       2.308   7.749  18.792  0.00  0.00    +0.000 C 
ENDBRANCH   5  12
ENDBRANCH   1   5
BRANCH   3  13
ATOM     13  C   UNL     1       5.973   4.546  17.675  0.00  0.00    +0.000 C 
BRANCH  13  14
ATOM     14  C   UNL     1       6.286   4.429  16.225  0.00  0.00    +0.000 A 
ATOM     15  C   UNL     1       5.763   3.527  15.302  0.00  0.00    +0.000 A 
ATOM     16  N   UNL     1       6.337   3.875  14.119  0.00  0.00    +0.000 N 
ATOM     17  C   UNL     1       6.266   3.461  12.810  0.00  0.00    +0.000 A 
ATOM     18  C   UNL     1       7.064   4.197  12.018  0.00  0.00    +0.000 A 
ATOM     19  S   UNL     1       7.948   5.454  12.907  0.00  0.00    +0.000 S 
ATOM     20  C   UNL     1       7.173   4.918  14.366  0.00  0.00    +0.000 A 
ATOM     21  N   UNL     1       7.191   5.295  15.616  0.00  0.00    +0.000 NA
ENDBRANCH  13  14
ENDBRANCH   3  13
TORSDOF 5
ENDMDL
MODEL 4
REMARK VINA RESULT:      -6.3      3.535      7.046
REMARK  Name = 
REMARK  6 active torsions:
REMARK  status: ('A' for Active; 'I' for Inactive)
REMARK    1  A    between atoms: C_1  and  C_2
REMARK    2  A    between atoms: C_2  and  C_3
REMARK    3  A    between atoms: C_3  and  C_4
REMARK    4  A    between atoms: C_3  and  N_16
REMARK    5  A    between atoms: N_6  and  C_7
REMARK    6  A    between atoms: C_7  and  C_8
REMARK                            x       y       z     vdW  Elec       q    Type
REMARK                         _______ _______ _______ _____ _____    ______ ____
ROOT
ATOM      1  C   UNL     1       3.921   5.101  17.652  0.00  0.00    +0.000 C 
ATOM      2  O   UNL     1       3.038   4.265  17.475  0.00  0.00    +0.000 OA
ATOM      3  N   UNL     1       3.835   6.049  18.651  0.00  0.00    +0.000 N 
ATOM      4  H   UNL     1       4.680   6.521  18.966  0.00  0.00    +0.000 HD
ENDROOT
BRANCH   1   5
ATOM      5  C   UNL     1       5.161   5.203  16.763  0.00  0.00    +0.000 C 
BRANCH   5   6
ATOM      6  N   UNL     1       6.289   5.683  17.560  0.00  0.00    +0.000 N 
ATOM      7  C   UNL     1       7.021   6.823  17.362  0.00  0.00    +0.000 A 
ATOM      8  C   UNL     1       7.948   6.864  18.375  0.00  0.00    +0.000 A 
ATOM      9  C   UNL     1       7.706   5.703  19.128  0.00  0.00    +0.000 A 
ATOM     10  N   UNL     1       6.703   4.973  18.632  0.00  0.00    +0.000 NA
ENDBRANCH   5   6
BRANCH   5  12
ATOM     11  C   UNL     1       6.279   4.071  14.744  0.00  0.00    +0.000 C 
ATOM     12  C   UNL     1       5.535   3.885  16.060  0.00  0.00    +0.000 C 
ENDBRANCH   5  12
ENDBRANCH   1   5
BRANCH   3  13
ATOM     13  C   UNL     1       2.732   6.022  19.583  0.00  0.00    +0.000 C 
BRANCH  13  14
ATOM     14  C   UNL     1       2.109   7.373  19.650  0.00  0.00    +0.000 A 
ATOM     15  C   UNL     1       2.002   8.320  18.636  0.00  0.00    +0.000 A 
ATOM     16  N   UNL     1       1.311   9.348  19.200  0.00  0.00    +0.000 N 
ATOM     17  C   UNL     1       0.822  10.568  18.797  0.00  0.00    +0.000 A 
ATOM     18  C   UNL     1       0.174  11.192  19.794  0.00  0.00    +0.000 A 
ATOM     19  S   UNL     1       0.159  10.251  21.300  0.00  0.00    +0.000 S 
ATOM     20  C   UNL     1       1.059   9.006  20.491  0.00  0.00    +0.000 A 
ATOM     21  N   UNL     1       1.519   7.831  20.825  0.00  0.00    +0.000 NA
ENDBRANCH  13  14
ENDBRANCH   3  13
TORSDOF 5
ENDMDL
MODEL 5
REMARK VINA RESULT:      -6.3      1.467      2.706
REMARK  Name = 
REMARK  6 active torsions:
REMARK  status: ('A' for Active; 'I' for Inactive)
REMARK    1  A    between atoms: C_1  and  C_2
REMARK    2  A    between atoms: C_2  and  C_3
REMARK    3  A    between atoms: C_3  and  C_4
REMARK    4  A    between atoms: C_3  and  N_16
REMARK    5  A    between atoms: N_6  and  C_7
REMARK    6  A    between atoms: C_7  and  C_8
REMARK                            x       y       z     vdW  Elec       q    Type
REMARK                         _______ _______ _______ _____ _____    ______ ____
ROOT
ATOM      1  C   UNL     1       4.090   6.026  18.033  0.00  0.00    +0.000 C 
ATOM      2  O   UNL     1       4.336   7.054  17.406  0.00  0.00    +0.000 OA
ATOM      3  N   UNL     1       5.048   5.054  18.240  0.00  0.00    +0.000 N 
ATOM      4  H   UNL     1       4.918   4.377  18.989  0.00  0.00    +0.000 HD
ENDROOT
BRANCH   1   5
ATOM      5  C   UNL     1       2.704   5.704  18.592  0.00  0.00    +0.000 C 
BRANCH   5   6
ATOM      6  N   UNL     1       2.497   4.256  18.567  0.00  0.00    +0.000 N 
ATOM      7  C   UNL     1       2.129   3.452  19.613  0.00  0.00    +0.000 A 
ATOM      8  C   UNL     1       2.032   2.180  19.101  0.00  0.00    +0.000 A 
ATOM      9  C   UNL     1       2.368   2.315  17.743  0.00  0.00    +0.000 A 
ATOM     10  N   UNL     1       2.662   3.576  17.413  0.00  0.00    +0.000 NA
ENDBRANCH   5   6
BRANCH   5  12
ATOM     11  C   UNL     1       1.863   7.647  20.050  0.00  0.00    +0.000 C 
ATOM     12  C   UNL     1       2.462   6.247  20.012  0.00  0.00    +0.000 C 
ENDBRANCH   5  12
ENDBRANCH   1   5
BRANCH   3  13
ATOM     13  C   UNL     1       6.406   5.269  17.798  0.00  0.00    +0.000 C 
BRANCH  13  14
ATOM     14  C   UNL     1       6.523   4.891  16.363  0.00  0.00    +0.000 A 
ATOM     15  C   UNL     1       5.823   3.905  15.674  0.00  0.00    +0.000 A 
ATOM     16  N   UNL     1       6.265   4.003  14.391  0.00  0.00    +0.000 N 
ATOM     17  C   UNL     1       5.999   3.392  13.188  0.00  0.00    +0.000 A 
ATOM     18  C   UNL     1       6.740   3.914  12.197  0.00  0.00    +0.000 A 
ATOM     19  S   UNL     1       7.817   5.212  12.752  0.00  0.00    +0.000 S 
ATOM     20  C   UNL     1       7.198   4.991  14.359  0.00  0.00    +0.000 A 
ATOM     21  N   UNL     1       7.403   5.561  15.516  0.00  0.00    +0.000 NA
ENDBRANCH  13  14
ENDBRANCH   3  13
TORSDOF 5
ENDMDL
MODEL 6
REMARK VINA RESULT:      -6.3      3.039      6.961
REMARK  Name = 
REMARK  6 active torsions:
REMARK  status: ('A' for Active; 'I' for Inactive)
REMARK    1  A    between atoms: C_1  and  C_2
REMARK    2  A    between atoms: C_2  and  C_3
REMARK    3  A    between atoms: C_3  and  C_4
REMARK    4  A    between atoms: C_3  and  N_16
REMARK    5  A    between atoms: N_6  and  C_7
REMARK    6  A    between atoms: C_7  and  C_8
REMARK                            x       y       z     vdW  Elec       q    Type
REMARK                         _______ _______ _______ _____ _____    ______ ____
ROOT
ATOM      1  C   UNL     1       5.195   4.466  18.226  0.00  0.00    +0.000 C 
ATOM      2  O   UNL     1       4.843   3.392  18.710  0.00  0.00    +0.000 OA
ATOM      3  N   UNL     1       4.321   5.527  18.098  0.00  0.00    +0.000 N 
ATOM      4  H   UNL     1       4.692   6.468  17.981  0.00  0.00    +0.000 HD
ENDROOT
BRANCH   1   5
ATOM      5  C   UNL     1       6.601   4.711  17.679  0.00  0.00    +0.000 C 
BRANCH   5   6
ATOM      6  N   UNL     1       6.587   4.561  16.225  0.00  0.00    +0.000 N 
ATOM      7  C   UNL     1       5.854   3.669  15.489  0.00  0.00    +0.000 A 
ATOM      8  C   UNL     1       6.148   3.925  14.172  0.00  0.00    +0.000 A 
ATOM      9  C   UNL     1       7.075   4.981  14.212  0.00  0.00    +0.000 A 
ATOM     10  N   UNL     1       7.354   5.367  15.460  0.00  0.00    +0.000 NA
ENDBRANCH   5   6
BRANCH   5  12
ATOM     11  C   UNL     1       8.077   6.052  19.301  0.00  0.00    +0.000 C 
ATOM     12  C   UNL     1       7.190   6.080  18.063  0.00  0.00    +0.000 C 
ENDBRANCH   5  12
ENDBRANCH   1   5
BRANCH   3  13
ATOM     13  C   UNL     1       2.979   5.428  18.623  0.00  0.00    +0.000 C 
BRANCH  13  14
ATOM     14  C   UNL     1       2.460   6.794  18.910  0.00  0.00    +0.000 A 
ATOM     15  C   UNL     1       2.355   7.873  18.037  0.00  0.00    +0.000 A 
ATOM     16  N   UNL     1       1.777   8.857  18.778  0.00  0.00    +0.000 N 
ATOM     17  C   UNL     1       1.351  10.149  18.573  0.00  0.00    +0.000 A 
ATOM     18  C   UNL     1       0.815  10.673  19.688  0.00  0.00    +0.000 A 
ATOM     19  S   UNL     1       0.831   9.542  21.057  0.00  0.00    +0.000 S 
ATOM     20  C   UNL     1       1.585   8.362  20.030  0.00  0.00    +0.000 A 
ATOM     21  N   UNL     1       1.981   7.127  20.174  0.00  0.00    +0.000 NA
ENDBRANCH  13  14
ENDBRANCH   3  13
TORSDOF 5
ENDMDL
MODEL 7
REMARK VINA RESULT:      -6.3      3.134      6.921
REMARK  Name = 
REMARK  6 active torsions:
REMARK  status: ('A' for Active; 'I' for Inactive)
REMARK    1  A    between atoms: C_1  and  C_2
REMARK    2  A    between atoms: C_2  and  C_3
REMARK    3  A    between atoms: C_3  and  C_4
REMARK    4  A    between atoms: C_3  and  N_16
REMARK    5  A    between atoms: N_6  and  C_7
REMARK    6  A    between atoms: C_7  and  C_8
REMARK                            x       y       z     vdW  Elec       q    Type
REMARK                         _______ _______ _______ _____ _____    ______ ____
ROOT
ATOM      1  C   UNL     1       3.921   5.074  17.666  0.00  0.00    +0.000 C 
ATOM      2  O   UNL     1       2.973   4.338  17.400  0.00  0.00    +0.000 OA
ATOM      3  N   UNL     1       3.928   5.872  18.792  0.00  0.00    +0.000 N 
ATOM      4  H   UNL     1       4.814   6.232  19.142  0.00  0.00    +0.000 HD
ENDROOT
BRANCH   1   5
ATOM      5  C   UNL     1       5.145   5.214  16.760  0.00  0.00    +0.000 C 
BRANCH   5   6
ATOM      6  N   UNL     1       6.279   5.691  17.551  0.00  0.00    +0.000 N 
ATOM      7  C   UNL     1       6.966   6.865  17.393  0.00  0.00    +0.000 A 
ATOM      8  C   UNL     1       7.920   6.887  18.381  0.00  0.00    +0.000 A 
ATOM      9  C   UNL     1       7.739   5.679  19.079  0.00  0.00    +0.000 A 
ATOM     10  N   UNL     1       6.747   4.941  18.572  0.00  0.00    +0.000 NA
ENDBRANCH   5   6
BRANCH   5  12
ATOM     11  C   UNL     1       6.367   4.139  14.771  0.00  0.00    +0.000 C 
ATOM     12  C   UNL     1       5.526   3.918  16.021  0.00  0.00    +0.000 C 
ENDBRANCH   5  12
ENDBRANCH   1   5
BRANCH   3  13
ATOM     13  C   UNL     1       2.847   5.789  19.746  0.00  0.00    +0.000 C 
BRANCH  13  14
ATOM     14  C   UNL     1       2.169   7.112  19.838  0.00  0.00    +0.000 A 
ATOM     15  C   UNL     1       1.506   7.663  20.930  0.00  0.00    +0.000 A 
ATOM     16  N   UNL     1       1.116   8.896  20.507  0.00  0.00    +0.000 N 
ATOM     17  C   UNL     1       0.466   9.982  21.045  0.00  0.00    +0.000 A 
ATOM     18  C   UNL     1       0.361  10.983  20.155  0.00  0.00    +0.000 A 
ATOM     19  S   UNL     1       1.087  10.586  18.583  0.00  0.00    +0.000 S 
ATOM     20  C   UNL     1       1.522   9.028  19.217  0.00  0.00    +0.000 A 
ATOM     21  N   UNL     1       2.156   7.986  18.754  0.00  0.00    +0.000 NA
ENDBRANCH  13  14
ENDBRANCH   3  13
TORSDOF 5
ENDMDL
MODEL 8
REMARK VINA RESULT:      -6.2      1.109      2.421
REMARK  Name = 
REMARK  6 active torsions:
REMARK  status: ('A' for Active; 'I' for Inactive)
REMARK    1  A    between atoms: C_1  and  C_2
REMARK    2  A    between atoms: C_2  and  C_3
REMARK    3  A    between atoms: C_3  and  C_4
REMARK    4  A    between atoms: C_3  and  N_16
REMARK    5  A    between atoms: N_6  and  C_7
REMARK    6  A    between atoms: C_7  and  C_8
REMARK                            x       y       z     vdW  Elec       q    Type
REMARK                         _______ _______ _______ _____ _____    ______ ____
ROOT
ATOM      1  C   UNL     1       4.302   4.492  18.242  0.00  0.00    +0.000 C 
ATOM      2  O   UNL     1       4.481   3.278  18.317  0.00  0.00    +0.000 OA
ATOM      3  N   UNL     1       5.331   5.360  17.935  0.00  0.00    +0.000 N 
ATOM      4  H   UNL     1       5.110   6.293  17.592  0.00  0.00    +0.000 HD
ENDROOT
BRANCH   1   5
ATOM      5  C   UNL     1       2.954   5.153  18.526  0.00  0.00    +0.000 C 
BRANCH   5   6
ATOM      6  N   UNL     1       2.240   4.379  19.541  0.00  0.00    +0.000 N 
ATOM      7  C   UNL     1       1.203   3.508  19.344  0.00  0.00    +0.000 A 
ATOM      8  C   UNL     1       0.886   3.003  20.582  0.00  0.00    +0.000 A 
ATOM      9  C   UNL     1       1.778   3.635  21.464  0.00  0.00    +0.000 A 
ATOM     10  N   UNL     1       2.600   4.483  20.839  0.00  0.00    +0.000 NA
ENDBRANCH   5   6
BRANCH   5  12
ATOM     11  C   UNL     1       2.429   7.612  17.990  0.00  0.00    +0.000 C 
ATOM     12  C   UNL     1       3.060   6.625  18.964  0.00  0.00    +0.000 C 
ENDBRANCH   5  12
ENDBRANCH   1   5
BRANCH   3  13
ATOM     13  C   UNL     1       6.638   4.846  17.600  0.00  0.00    +0.000 C 
BRANCH  13  14
ATOM     14  C   UNL     1       6.718   4.622  16.131  0.00  0.00    +0.000 A 
ATOM     15  C   UNL     1       6.054   3.663  15.370  0.00  0.00    +0.000 A 
ATOM     16  N   UNL     1       6.434   3.918  14.089  0.00  0.00    +0.000 N 
ATOM     17  C   UNL     1       6.156   3.414  12.841  0.00  0.00    +0.000 A 
ATOM     18  C   UNL     1       6.819   4.081  11.882  0.00  0.00    +0.000 A 
ATOM     19  S   UNL     1       7.834   5.387  12.527  0.00  0.00    +0.000 S 
ATOM     20  C   UNL     1       7.299   4.966  14.125  0.00  0.00    +0.000 A 
ATOM     21  N   UNL     1       7.516   5.430  15.326  0.00  0.00    +0.000 NA
ENDBRANCH  13  14
ENDBRANCH   3  13
TORSDOF 5
ENDMDL
MODEL 9
REMARK VINA RESULT:      -6.2      3.245      6.992
REMARK  Name = 
REMARK  6 active torsions:
REMARK  status: ('A' for Active; 'I' for Inactive)
REMARK    1  A    between atoms: C_1  and  C_2
REMARK    2  A    between atoms: C_2  and  C_3
REMARK    3  A    between atoms: C_3  and  C_4
REMARK    4  A    between atoms: C_3  and  N_16
REMARK    5  A    between atoms: N_6  and  C_7
REMARK    6  A    between atoms: C_7  and  C_8
REMARK                            x       y       z     vdW  Elec       q    Type
REMARK                         _______ _______ _______ _____ _____    ______ ____
ROOT
ATOM      1  C   UNL     1       5.802   5.666  18.530  0.00  0.00    +0.000 C 
ATOM      2  O   UNL     1       6.026   5.412  19.712  0.00  0.00    +0.000 OA
ATOM      3  N   UNL     1       4.518   5.708  18.026  0.00  0.00    +0.000 N 
ATOM      4  H   UNL     1       4.341   6.199  17.152  0.00  0.00    +0.000 HD
ENDROOT
BRANCH   1   5
ATOM      5  C   UNL     1       6.912   5.908  17.506  0.00  0.00    +0.000 C 
BRANCH   5   6
ATOM      6  N   UNL     1       6.546   5.276  16.239  0.00  0.00    +0.000 N 
ATOM      7  C   UNL     1       6.850   4.006  15.826  0.00  0.00    +0.000 A 
ATOM      8  C   UNL     1       6.270   3.857  14.589  0.00  0.00    +0.000 A 
ATOM      9  C   UNL     1       5.648   5.092  14.335  0.00  0.00    +0.000 A 
ATOM     10  N   UNL     1       5.821   5.965  15.332  0.00  0.00    +0.000 NA
ENDBRANCH   5   6
BRANCH   5  12
ATOM     11  C   UNL     1       8.247   7.968  18.267  0.00  0.00    +0.000 C 
ATOM     12  C   UNL     1       7.239   7.395  17.279  0.00  0.00    +0.000 C 
ENDBRANCH   5  12
ENDBRANCH   1   5
BRANCH   3  13
ATOM     13  C   UNL     1       3.387   5.543  18.909  0.00  0.00    +0.000 C 
BRANCH  13  14
ATOM     14  C   UNL     1       2.678   6.844  19.050  0.00  0.00    +0.000 A 
ATOM     15  C   UNL     1       2.535   7.852  18.101  0.00  0.00    +0.000 A 
ATOM     16  N   UNL     1       1.766   8.793  18.713  0.00  0.00    +0.000 N 
ATOM     17  C   UNL     1       1.209  10.005  18.381  0.00  0.00    +0.000 A 
ATOM     18  C   UNL     1       0.498  10.516  19.399  0.00  0.00    +0.000 A 
ATOM     19  S   UNL     1       0.505   9.472  20.836  0.00  0.00    +0.000 S 
ATOM     20  C   UNL     1       1.503   8.346  19.970  0.00  0.00    +0.000 A 
ATOM     21  N   UNL     1       2.029   7.181  20.236  0.00  0.00    +0.000 NA
ENDBRANCH  13  14
ENDBRANCH   3  13
TORSDOF 5
ENDMDL
