MODEL 1
REMARK VINA RESULT:      -7.5      0.000      0.000
REMARK  Name = 
REMARK  10 active torsions:
REMARK  status: ('A' for Active; 'I' for Inactive)
REMARK    1  A    between atoms: C_1  and  C_2
REMARK    2  A    between atoms: C_8  and  C_9
REMARK    3  A    between atoms: C_9  and  O_11
REMARK    4  A    between atoms: O_11  and  C_12
REMARK    5  A    between atoms: C_12  and  C_13
REMARK    6  A    between atoms: C_12  and  C_18
REMARK    7  A    between atoms: C_13  and  C_14
REMARK    8  A    between atoms: C_14  and  N_15
REMARK    9  A    between atoms: N_15  and  C_16
REMARK   10  A    between atoms: N_15  and  C_17
REMARK                            x       y       z     vdW  Elec       q    Type
REMARK                         _______ _______ _______ _____ _____    ______ ____
ROOT
ATOM      1  C   UNL     1       2.697   5.666  19.514  0.00  0.00    +0.000 C 
ENDROOT
BRANCH   1   2
ATOM      2  C   UNL     1       2.283   7.120  19.309  0.00  0.00    +0.000 A 
ATOM      3  C   UNL     1       2.501   7.742  18.068  0.00  0.00    +0.000 A 
ATOM      4  C   UNL     1       2.075   9.055  17.843  0.00  0.00    +0.000 A 
ATOM      5  C   UNL     1       1.424   9.754  18.857  0.00  0.00    +0.000 A 
ATOM      6 CL   UNL     1       0.889  11.367  18.576  0.00  0.00    +0.000 Cl
ATOM      7  C   UNL     1       1.198   9.155  20.093  0.00  0.00    +0.000 A 
ATOM      8  C   UNL     1       1.632   7.846  20.320  0.00  0.00    +0.000 A 
ENDBRANCH   1   2
BRANCH   1   9
ATOM      9  O   UNL     1       4.119   5.661  19.796  0.00  0.00    +0.000 OA
BRANCH   9  10
ATOM     10  C   UNL     1       4.821   4.599  19.324  0.00  0.00    +0.000 C 
ATOM     11  O   UNL     1       4.930   3.512  19.862  0.00  0.00    +0.000 OA
BRANCH  10  19
ATOM     12  C   UNL     1       3.907   3.532  16.693  0.00  0.00    +0.000 C 
ATOM     13  C   UNL     1       5.099   4.450  16.795  0.00  0.00    +0.000 A 
ATOM     14  C   UNL     1       5.825   4.839  15.650  0.00  0.00    +0.000 A 
ATOM     15 CL   UNL     1       5.455   4.248  14.065  0.00  0.00    +0.000 Cl
ATOM     16  C   UNL     1       6.901   5.729  15.743  0.00  0.00    +0.000 A 
ATOM     17  C   UNL     1       7.271   6.260  16.972  0.00  0.00    +0.000 A 
ATOM     18  C   UNL     1       6.578   5.887  18.118  0.00  0.00    +0.000 A 
ATOM     19  C   UNL     1       5.506   4.977  18.048  0.00  0.00    +0.000 A 
ENDBRANCH  10  19
ENDBRANCH   9  10
ENDBRANCH   1   9
BRANCH   1  20
ATOM     20  C   UNL     1       1.956   5.015  20.696  0.00  0.00    +0.000 C 
BRANCH  20  21
ATOM     21  C   UNL     1       0.860   4.018  20.295  0.00  0.00    +0.000 C 
BRANCH  21  22
ATOM     22  N   UNL     1       1.196   2.601  20.517  0.00  0.00    +0.000 NA
ATOM     23  C   UNL     1       1.758   1.976  19.316  0.00  0.00    +0.000 C 
ATOM     24  C   UNL     1       2.156   2.492  21.622  0.00  0.00    +0.000 C 
ENDBRANCH  21  22
ENDBRANCH  20  21
ENDBRANCH   1  20
TORSDOF 7
ENDMDL
MODEL 2
REMARK VINA RESULT:      -6.9      2.704      4.750
REMARK  Name = 
REMARK  10 active torsions:
REMARK  status: ('A' for Active; 'I' for Inactive)
REMARK    1  A    between atoms: C_1  and  C_2
REMARK    2  A    between atoms: C_8  and  C_9
REMARK    3  A    between atoms: C_9  and  O_11
REMARK    4  A    between atoms: O_11  and  C_12
REMARK    5  A    between atoms: C_12  and  C_13
REMARK    6  A    between atoms: C_12  and  C_18
REMARK    7  A    between atoms: C_13  and  C_14
REMARK    8  A    between atoms: C_14  and  N_15
REMARK    9  A    between atoms: N_15  and  C_16
REMARK   10  A    between atoms: N_15  and  C_17
REMARK                            x       y       z     vdW  Elec       q    Type
REMARK                         _______ _______ _______ _____ _____    ______ ____
ROOT
ATOM      1  C   UNL     1       2.881   6.256  18.327  0.00  0.00    +0.000 C 
ENDROOT
BRANCH   1   2
ATOM      2  C   UNL     1       2.266   7.557  18.833  0.00  0.00    +0.000 A 
ATOM      3  C   UNL     1       2.080   8.635  17.950  0.00  0.00    +0.000 A 
ATOM      4  C   UNL     1       1.465   9.813  18.381  0.00  0.00    +0.000 A 
ATOM      5  C   UNL     1       1.025   9.922  19.699  0.00  0.00    +0.000 A 
ATOM      6 CL   UNL     1       0.256  11.369  20.227  0.00  0.00    +0.000 Cl
ATOM      7  C   UNL     1       1.199   8.867  20.588  0.00  0.00    +0.000 A 
ATOM      8  C   UNL     1       1.823   7.691  20.159  0.00  0.00    +0.000 A 
ENDBRANCH   1   2
BRANCH   1   9
ATOM      9  O   UNL     1       1.811   5.480  17.731  0.00  0.00    +0.000 OA
BRANCH   9  10
ATOM     10  C   UNL     1       2.006   4.137  17.669  0.00  0.00    +0.000 C 
ATOM     11  O   UNL     1       1.973   3.451  16.663  0.00  0.00    +0.000 OA
BRANCH  10  19
ATOM     12  C   UNL     1       4.546   2.777  18.437  0.00  0.00    +0.000 C 
ATOM     13  C   UNL     1       3.407   2.919  19.415  0.00  0.00    +0.000 A 
ATOM     14  C   UNL     1       3.501   2.416  20.729  0.00  0.00    +0.000 A 
ATOM     15 CL   UNL     1       4.884   1.543  21.298  0.00  0.00    +0.000 Cl
ATOM     16  C   UNL     1       2.460   2.592  21.648  0.00  0.00    +0.000 A 
ATOM     17  C   UNL     1       1.311   3.282  21.285  0.00  0.00    +0.000 A 
ATOM     18  C   UNL     1       1.188   3.782  19.994  0.00  0.00    +0.000 A 
ATOM     19  C   UNL     1       2.215   3.596  19.048  0.00  0.00    +0.000 A 
ENDBRANCH  10  19
ENDBRANCH   9  10
ENDBRANCH   1   9
BRANCH   1  20
ATOM     20  C   UNL     1       3.964   6.505  17.261  0.00  0.00    +0.000 C 
BRANCH  20  21
ATOM     21  C   UNL     1       5.397   6.199  17.720  0.00  0.00    +0.000 C 
BRANCH  21  22
ATOM     22  N   UNL     1       6.324   5.805  16.646  0.00  0.00    +0.000 NA
ATOM     23  C   UNL     1       7.268   4.774  17.086  0.00  0.00    +0.000 C 
ATOM     24  C   UNL     1       5.559   5.311  15.495  0.00  0.00    +0.000 C 
ENDBRANCH  21  22
ENDBRANCH  20  21
ENDBRANCH   1  20
TORSDOF 7
ENDMDL
MODEL 3
REMARK VINA RESULT:      -6.8      3.514      6.312
REMARK  Name = 
REMARK  10 active torsions:
REMARK  status: ('A' for Active; 'I' for Inactive)
REMARK    1  A    between atoms: C_1  and  C_2
REMARK    2  A    between atoms: C_8  and  C_9
REMARK    3  A    between atoms: C_9  and  O_11
REMARK    4  A    between atoms: O_11  and  C_12
REMARK    5  A    between atoms: C_12  and  C_13
REMARK    6  A    between atoms: C_12  and  C_18
REMARK    7  A    between atoms: C_13  and  C_14
REMARK    8  A    between atoms: C_14  and  N_15
REMARK    9  A    between atoms: N_15  and  C_16
REMARK   10  A    between atoms: N_15  and  C_17
REMARK                            x       y       z     vdW  Elec       q    Type
REMARK                         _______ _______ _______ _____ _____    ______ ____
ROOT
ATOM      1  C   UNL     1       5.450   4.307  16.996  0.00  0.00    +0.000 C 
ENDROOT
BRANCH   1   2
ATOM      2  C   UNL     1       6.261   5.518  17.448  0.00  0.00    +0.000 A 
ATOM      3  C   UNL     1       7.281   5.361  18.402  0.00  0.00    +0.000 A 
ATOM      4  C   UNL     1       8.074   6.447  18.785  0.00  0.00    +0.000 A 
ATOM      5  C   UNL     1       7.856   7.698  18.213  0.00  0.00    +0.000 A 
ATOM      6 CL   UNL     1       8.839   9.034  18.675  0.00  0.00    +0.000 Cl
ATOM      7  C   UNL     1       6.851   7.874  17.266  0.00  0.00    +0.000 A 
ATOM      8  C   UNL     1       6.053   6.789  16.890  0.00  0.00    +0.000 A 
ENDBRANCH   1   2
BRANCH   1   9
ATOM      9  O   UNL     1       4.125   4.784  16.653  0.00  0.00    +0.000 OA
BRANCH   9  10
ATOM     10  C   UNL     1       3.086   3.994  17.030  0.00  0.00    +0.000 C 
ATOM     11  O   UNL     1       2.538   3.150  16.344  0.00  0.00    +0.000 OA
BRANCH  10  19
ATOM     12  C   UNL     1       2.532   1.898  19.078  0.00  0.00    +0.000 C 
ATOM     13  C   UNL     1       2.364   3.364  19.392  0.00  0.00    +0.000 A 
ATOM     14  C   UNL     1       1.940   3.797  20.665  0.00  0.00    +0.000 A 
ATOM     15 CL   UNL     1       1.515   2.697  21.933  0.00  0.00    +0.000 Cl
ATOM     16  C   UNL     1       1.831   5.159  20.967  0.00  0.00    +0.000 A 
ATOM     17  C   UNL     1       2.153   6.119  20.015  0.00  0.00    +0.000 A 
ATOM     18  C   UNL     1       2.565   5.719  18.748  0.00  0.00    +0.000 A 
ATOM     19  C   UNL     1       2.660   4.354  18.419  0.00  0.00    +0.000 A 
ENDBRANCH  10  19
ENDBRANCH   9  10
ENDBRANCH   1   9
BRANCH   1  20
ATOM     20  C   UNL     1       6.067   3.627  15.760  0.00  0.00    +0.000 C 
BRANCH  20  21
ATOM     21  C   UNL     1       5.648   4.241  14.416  0.00  0.00    +0.000 C 
BRANCH  21  22
ATOM     22  N   UNL     1       6.392   3.744  13.247  0.00  0.00    +0.000 NA
ATOM     23  C   UNL     1       5.499   3.368  12.147  0.00  0.00    +0.000 C 
ATOM     24  C   UNL     1       7.328   4.776  12.786  0.00  0.00    +0.000 C 
ENDBRANCH  21  22
ENDBRANCH  20  21
ENDBRANCH   1  20
TORSDOF 7
ENDMDL
MODEL 4
REMARK VINA RESULT:      -6.8      2.676      4.800
REMARK  Name = 
REMARK  10 active torsions:
REMARK  status: ('A' for Active; 'I' for Inactive)
REMARK    1  A    between atoms: C_1  and  C_2
REMARK    2  A    between atoms: C_8  and  C_9
REMARK    3  A    between atoms: C_9  and  O_11
REMARK    4  A    between atoms: O_11  and  C_12
REMARK    5  A    between atoms: C_12  and  C_13
REMARK    6  A    between atoms: C_12  and  C_18
REMARK    7  A    between atoms: C_13  and  C_14
REMARK    8  A    between atoms: C_14  and  N_15
REMARK    9  A    between atoms: N_15  and  C_16
REMARK   10  A    between atoms: N_15  and  C_17
REMARK                            x       y       z     vdW  Elec       q    Type
REMARK                         _______ _______ _______ _____ _____    ______ ____
ROOT
ATOM      1  C   UNL     1       3.290   6.194  18.477  0.00  0.00    +0.000 C 
ENDROOT
BRANCH   1   2
ATOM      2  C   UNL     1       2.403   7.400  18.769  0.00  0.00    +0.000 A 
ATOM      3  C   UNL     1       1.950   7.637  20.078  0.00  0.00    +0.000 A 
ATOM      4  C   UNL     1       1.185   8.768  20.376  0.00  0.00    +0.000 A 
ATOM      5  C   UNL     1       0.871   9.676  19.367  0.00  0.00    +0.000 A 
ATOM      6 CL   UNL     1      -0.061  11.076  19.735  0.00  0.00    +0.000 Cl
ATOM      7  C   UNL     1       1.310   9.460  18.064  0.00  0.00    +0.000 A 
ATOM      8  C   UNL     1       2.067   8.323  17.765  0.00  0.00    +0.000 A 
ENDBRANCH   1   2
BRANCH   1   9
ATOM      9  O   UNL     1       2.674   5.463  17.387  0.00  0.00    +0.000 OA
BRANCH   9  10
ATOM     10  C   UNL     1       1.757   4.523  17.736  0.00  0.00    +0.000 C 
ATOM     11  O   UNL     1       0.733   4.258  17.133  0.00  0.00    +0.000 OA
BRANCH  10  19
ATOM     12  C   UNL     1       4.224   2.860  17.939  0.00  0.00    +0.000 C 
ATOM     13  C   UNL     1       3.317   3.064  19.127  0.00  0.00    +0.000 A 
ATOM     14  C   UNL     1       3.602   2.477  20.377  0.00  0.00    +0.000 A 
ATOM     15 CL   UNL     1       4.959   1.431  20.630  0.00  0.00    +0.000 Cl
ATOM     16  C   UNL     1       2.783   2.707  21.488  0.00  0.00    +0.000 A 
ATOM     17  C   UNL     1       1.672   3.534  21.384  0.00  0.00    +0.000 A 
ATOM     18  C   UNL     1       1.363   4.119  20.161  0.00  0.00    +0.000 A 
ATOM     19  C   UNL     1       2.162   3.883  19.027  0.00  0.00    +0.000 A 
ENDBRANCH  10  19
ENDBRANCH   9  10
ENDBRANCH   1   9
BRANCH   1  20
ATOM     20  C   UNL     1       4.710   6.610  18.054  0.00  0.00    +0.000 C 
BRANCH  20  21
ATOM     21  C   UNL     1       4.935   6.667  16.536  0.00  0.00    +0.000 C 
BRANCH  21  22
ATOM     22  N   UNL     1       6.189   6.053  16.069  0.00  0.00    +0.000 NA
ATOM     23  C   UNL     1       7.098   5.749  17.178  0.00  0.00    +0.000 C 
ATOM     24  C   UNL     1       5.886   4.820  15.331  0.00  0.00    +0.000 C 
ENDBRANCH  21  22
ENDBRANCH  20  21
ENDBRANCH   1  20
TORSDOF 7
ENDMDL
MODEL 5
REMARK VINA RESULT:      -6.7      2.929      5.208
REMARK  Name = 
REMARK  10 active torsions:
REMARK  status: ('A' for Active; 'I' for Inactive)
REMARK    1  A    between atoms: C_1  and  C_2
REMARK    2  A    between atoms: C_8  and  C_9
REMARK    3  A    between atoms: C_9  and  O_11
REMARK    4  A    between atoms: O_11  and  C_12
REMARK    5  A    between atoms: C_12  and  C_13
REMARK    6  A    between atoms: C_12  and  C_18
REMARK    7  A    between atoms: C_13  and  C_14
REMARK    8  A    between atoms: C_14  and  N_15
REMARK    9  A    between atoms: N_15  and  C_16
REMARK   10  A    between atoms: N_15  and  C_17
REMARK                            x       y       z     vdW  Elec       q    Type
REMARK                         _______ _______ _______ _____ _____    ______ ____
ROOT
ATOM      1  C   UNL     1       4.343   5.999  17.752  0.00  0.00    +0.000 C 
ENDROOT
BRANCH   1   2
ATOM      2  C   UNL     1       3.287   6.967  18.279  0.00  0.00    +0.000 A 
ATOM      3  C   UNL     1       2.729   6.770  19.554  0.00  0.00    +0.000 A 
ATOM      4  C   UNL     1       1.804   7.678  20.076  0.00  0.00    +0.000 A 
ATOM      5  C   UNL     1       1.432   8.794  19.329  0.00  0.00    +0.000 A 
ATOM      6 CL   UNL     1       0.302   9.920  19.978  0.00  0.00    +0.000 Cl
ATOM      7  C   UNL     1       1.973   9.007  18.065  0.00  0.00    +0.000 A 
ATOM      8  C   UNL     1       2.891   8.093  17.539  0.00  0.00    +0.000 A 
ENDBRANCH   1   2
BRANCH   1   9
ATOM      9  O   UNL     1       3.665   5.059  16.881  0.00  0.00    +0.000 OA
BRANCH   9  10
ATOM     10  C   UNL     1       3.753   3.748  17.227  0.00  0.00    +0.000 C 
ATOM     11  O   UNL     1       4.513   2.927  16.746  0.00  0.00    +0.000 OA
BRANCH  10  19
ATOM     12  C   UNL     1       4.530   3.003  20.008  0.00  0.00    +0.000 C 
ATOM     13  C   UNL     1       3.083   3.047  19.584  0.00  0.00    +0.000 A 
ATOM     14  C   UNL     1       2.045   2.740  20.486  0.00  0.00    +0.000 A 
ATOM     15 CL   UNL     1       2.343   2.224  22.113  0.00  0.00    +0.000 Cl
ATOM     16  C   UNL     1       0.702   2.828  20.102  0.00  0.00    +0.000 A 
ATOM     17  C   UNL     1       0.363   3.236  18.818  0.00  0.00    +0.000 A 
ATOM     18  C   UNL     1       1.367   3.537  17.905  0.00  0.00    +0.000 A 
ATOM     19  C   UNL     1       2.724   3.434  18.266  0.00  0.00    +0.000 A 
ENDBRANCH  10  19
ENDBRANCH   9  10
ENDBRANCH   1   9
BRANCH   1  20
ATOM     20  C   UNL     1       5.437   6.721  16.946  0.00  0.00    +0.000 C 
BRANCH  20  21
ATOM     21  C   UNL     1       5.585   6.242  15.495  0.00  0.00    +0.000 C 
BRANCH  21  22
ATOM     22  N   UNL     1       6.803   5.463  15.217  0.00  0.00    +0.000 NA
ATOM     23  C   UNL     1       7.332   4.823  16.425  0.00  0.00    +0.000 C 
ATOM     24  C   UNL     1       6.510   4.438  14.208  0.00  0.00    +0.000 C 
ENDBRANCH  21  22
ENDBRANCH  20  21
ENDBRANCH   1  20
TORSDOF 7
ENDMDL
MODEL 6
REMARK VINA RESULT:      -6.7      0.714      1.043
REMARK  Name = 
REMARK  10 active torsions:
REMARK  status: ('A' for Active; 'I' for Inactive)
REMARK    1  A    between atoms: C_1  and  C_2
REMARK    2  A    between atoms: C_8  and  C_9
REMARK    3  A    between atoms: C_9  and  O_11
REMARK    4  A    between atoms: O_11  and  C_12
REMARK    5  A    between atoms: C_12  and  C_13
REMARK    6  A    between atoms: C_12  and  C_18
REMARK    7  A    between atoms: C_13  and  C_14
REMARK    8  A    between atoms: C_14  and  N_15
REMARK    9  A    between atoms: N_15  and  C_16
REMARK   10  A    between atoms: N_15  and  C_17
REMARK                            x       y       z     vdW  Elec       q    Type
REMARK                         _______ _______ _______ _____ _____    ______ ____
ROOT
ATOM      1  C   UNL     1       3.001   5.905  18.479  0.00  0.00    +0.000 C 
ENDROOT
BRANCH   1   2
ATOM      2  C   UNL     1       2.374   7.252  18.825  0.00  0.00    +0.000 A 
ATOM      3  C   UNL     1       2.171   8.210  17.816  0.00  0.00    +0.000 A 
ATOM      4  C   UNL     1       1.544   9.426  18.102  0.00  0.00    +0.000 A 
ATOM      5  C   UNL     1       1.111   9.693  19.399  0.00  0.00    +0.000 A 
ATOM      6 CL   UNL     1       0.328  11.186  19.749  0.00  0.00    +0.000 Cl
ATOM      7  C   UNL     1       1.302   8.758  20.411  0.00  0.00    +0.000 A 
ATOM      8  C   UNL     1       1.937   7.545  20.127  0.00  0.00    +0.000 A 
ENDBRANCH   1   2
BRANCH   1   9
ATOM      9  O   UNL     1       3.984   5.615  19.505  0.00  0.00    +0.000 OA
BRANCH   9  10
ATOM     10  C   UNL     1       4.902   4.659  19.205  0.00  0.00    +0.000 C 
ATOM     11  O   UNL     1       5.099   3.631  19.826  0.00  0.00    +0.000 OA
BRANCH  10  19
ATOM     12  C   UNL     1       4.623   3.267  16.582  0.00  0.00    +0.000 C 
ATOM     13  C   UNL     1       5.593   4.408  16.765  0.00  0.00    +0.000 A 
ATOM     14  C   UNL     1       6.402   4.860  15.702  0.00  0.00    +0.000 A 
ATOM     15 CL   UNL     1       6.401   4.107  14.142  0.00  0.00    +0.000 Cl
ATOM     16  C   UNL     1       7.265   5.950  15.862  0.00  0.00    +0.000 A 
ATOM     17  C   UNL     1       7.333   6.621  17.076  0.00  0.00    +0.000 A 
ATOM     18  C   UNL     1       6.553   6.191  18.144  0.00  0.00    +0.000 A 
ATOM     19  C   UNL     1       5.694   5.084  18.009  0.00  0.00    +0.000 A 
ENDBRANCH  10  19
ENDBRANCH   9  10
ENDBRANCH   1   9
BRANCH   1  20
ATOM     20  C   UNL     1       1.959   4.771  18.457  0.00  0.00    +0.000 C 
BRANCH  20  21
ATOM     21  C   UNL     1       1.489   4.307  19.843  0.00  0.00    +0.000 C 
BRANCH  21  22
ATOM     22  N   UNL     1       1.944   2.963  20.236  0.00  0.00    +0.000 NA
ATOM     23  C   UNL     1       1.435   2.574  21.555  0.00  0.00    +0.000 C 
ATOM     24  C   UNL     1       1.506   1.984  19.234  0.00  0.00    +0.000 C 
ENDBRANCH  21  22
ENDBRANCH  20  21
ENDBRANCH   1  20
TORSDOF 7
ENDMDL
MODEL 7
REMARK VINA RESULT:      -6.7      0.439      1.281
REMARK  Name = 
REMARK  10 active torsions:
REMARK  status: ('A' for Active; 'I' for Inactive)
REMARK    1  A    between atoms: C_1  and  C_2
REMARK    2  A    between atoms: C_8  and  C_9
REMARK    3  A    between atoms: C_9  and  O_11
REMARK    4  A    between atoms: O_11  and  C_12
REMARK    5  A    between atoms: C_12  and  C_13
REMARK    6  A    between atoms: C_12  and  C_18
REMARK    7  A    between atoms: C_13  and  C_14
REMARK    8  A    between atoms: C_14  and  N_15
REMARK    9  A    between atoms: N_15  and  C_16
REMARK   10  A    between atoms: N_15  and  C_17
REMARK                            x       y       z     vdW  Elec       q    Type
REMARK                         _______ _______ _______ _____ _____    ______ ____
ROOT
ATOM      1  C   UNL     1       2.499   6.123  19.379  0.00  0.00    +0.000 C 
ENDROOT
BRANCH   1   2
ATOM      2  C   UNL     1       2.058   7.569  19.171  0.00  0.00    +0.000 A 
ATOM      3  C   UNL     1       1.415   8.262  20.211  0.00  0.00    +0.000 A 
ATOM      4  C   UNL     1       1.057   9.604  20.059  0.00  0.00    +0.000 A 
ATOM      5  C   UNL     1       1.341  10.266  18.866  0.00  0.00    +0.000 A 
ATOM      6 CL   UNL     1       0.910  11.923  18.683  0.00  0.00    +0.000 Cl
ATOM      7  C   UNL     1       1.977   9.597  17.825  0.00  0.00    +0.000 A 
ATOM      8  C   UNL     1       2.328   8.252  17.974  0.00  0.00    +0.000 A 
ENDBRANCH   1   2
BRANCH   1   9
ATOM      9  O   UNL     1       3.926   6.144  19.637  0.00  0.00    +0.000 OA
BRANCH   9  10
ATOM     10  C   UNL     1       4.611   5.016  19.316  0.00  0.00    +0.000 C 
ATOM     11  O   UNL     1       4.658   3.992  19.973  0.00  0.00    +0.000 OA
BRANCH  10  19
ATOM     12  C   UNL     1       3.719   3.778  16.754  0.00  0.00    +0.000 C 
ATOM     13  C   UNL     1       4.967   4.622  16.824  0.00  0.00    +0.000 A 
ATOM     14  C   UNL     1       5.757   4.858  15.680  0.00  0.00    +0.000 A 
ATOM     15 CL   UNL     1       5.405   4.151  14.139  0.00  0.00    +0.000 Cl
ATOM     16  C   UNL     1       6.888   5.681  15.738  0.00  0.00    +0.000 A 
ATOM     17  C   UNL     1       7.250   6.296  16.930  0.00  0.00    +0.000 A 
ATOM     18  C   UNL     1       6.493   6.073  18.075  0.00  0.00    +0.000 A 
ATOM     19  C   UNL     1       5.365   5.232  18.042  0.00  0.00    +0.000 A 
ENDBRANCH  10  19
ENDBRANCH   9  10
ENDBRANCH   1   9
BRANCH   1  20
ATOM     20  C   UNL     1       1.790   5.470  20.579  0.00  0.00    +0.000 C 
BRANCH  20  21
ATOM     21  C   UNL     1       0.993   4.202  20.240  0.00  0.00    +0.000 C 
BRANCH  21  22
ATOM     22  N   UNL     1       1.751   2.944  20.344  0.00  0.00    +0.000 NA
ATOM     23  C   UNL     1       1.613   2.328  21.667  0.00  0.00    +0.000 C 
ATOM     24  C   UNL     1       1.288   2.005  19.315  0.00  0.00    +0.000 C 
ENDBRANCH  21  22
ENDBRANCH  20  21
ENDBRANCH   1  20
TORSDOF 7
ENDMDL
MODEL 8
REMARK VINA RESULT:      -6.5      1.431      5.823
REMARK  Name = 
REMARK  10 active torsions:
REMARK  status: ('A' for Active; 'I' for Inactive)
REMARK    1  A    between atoms: C_1  and  C_2
REMARK    2  A    between atoms: C_8  and  C_9
REMARK    3  A    between atoms: C_9  and  O_11
REMARK    4  A    between atoms: O_11  and  C_12
REMARK    5  A    between atoms: C_12  and  C_13
REMARK    6  A    between atoms: C_12  and  C_18
REMARK    7  A    between atoms: C_13  and  C_14
REMARK    8  A    between atoms: C_14  and  N_15
REMARK    9  A    between atoms: N_15  and  C_16
REMARK   10  A    between atoms: N_15  and  C_17
REMARK                            x       y       z     vdW  Elec       q    Type
REMARK                         _______ _______ _______ _____ _____    ______ ____
ROOT
ATOM      1  C   UNL     1       4.233   5.152  19.231  0.00  0.00    +0.000 C 
ENDROOT
BRANCH   1   2
ATOM      2  C   UNL     1       5.071   5.183  17.956  0.00  0.00    +0.000 A 
ATOM      3  C   UNL     1       6.360   4.623  17.952  0.00  0.00    +0.000 A 
ATOM      4  C   UNL     1       7.120   4.589  16.779  0.00  0.00    +0.000 A 
ATOM      5  C   UNL     1       6.594   5.110  15.599  0.00  0.00    +0.000 A 
ATOM      6 CL   UNL     1       7.525   5.057  14.151  0.00  0.00    +0.000 Cl
ATOM      7  C   UNL     1       5.320   5.668  15.582  0.00  0.00    +0.000 A 
ATOM      8  C   UNL     1       4.564   5.711  16.758  0.00  0.00    +0.000 A 
ENDBRANCH   1   2
BRANCH   1   9
ATOM      9  O   UNL     1       2.924   5.679  18.895  0.00  0.00    +0.000 OA
BRANCH   9  10
ATOM     10  C   UNL     1       2.263   6.325  19.890  0.00  0.00    +0.000 C 
ATOM     11  O   UNL     1       1.938   5.852  20.964  0.00  0.00    +0.000 OA
BRANCH  10  19
ATOM     12  C   UNL     1       0.993   8.281  21.749  0.00  0.00    +0.000 C 
ATOM     13  C   UNL     1       1.298   8.645  20.317  0.00  0.00    +0.000 A 
ATOM     14  C   UNL     1       0.996   9.924  19.805  0.00  0.00    +0.000 A 
ATOM     15 CL   UNL     1       0.196  11.140  20.743  0.00  0.00    +0.000 Cl
ATOM     16  C   UNL     1       1.325  10.273  18.491  0.00  0.00    +0.000 A 
ATOM     17  C   UNL     1       1.972   9.365  17.662  0.00  0.00    +0.000 A 
ATOM     18  C   UNL     1       2.274   8.094  18.138  0.00  0.00    +0.000 A 
ATOM     19  C   UNL     1       1.932   7.717  19.451  0.00  0.00    +0.000 A 
ENDBRANCH  10  19
ENDBRANCH   9  10
ENDBRANCH   1   9
BRANCH   1  20
ATOM     20  C   UNL     1       4.066   3.724  19.779  0.00  0.00    +0.000 C 
BRANCH  20  21
ATOM     21  C   UNL     1       3.255   2.782  18.877  0.00  0.00    +0.000 C 
BRANCH  21  22
ATOM     22  N   UNL     1       2.060   2.194  19.506  0.00  0.00    +0.000 NA
ATOM     23  C   UNL     1       1.980   2.510  20.935  0.00  0.00    +0.000 C 
ATOM     24  C   UNL     1       0.856   2.687  18.826  0.00  0.00    +0.000 C 
ENDBRANCH  21  22
ENDBRANCH  20  21
ENDBRANCH   1  20
TORSDOF 7
ENDMDL
MODEL 9
REMARK VINA RESULT:      -6.5      2.863      4.687
REMARK  Name = 
REMARK  10 active torsions:
REMARK  status: ('A' for Active; 'I' for Inactive)
REMARK    1  A    between atoms: C_1  and  C_2
REMARK    2  A    between atoms: C_8  and  C_9
REMARK    3  A    between atoms: C_9  and  O_11
REMARK    4  A    between atoms: O_11  and  C_12
REMARK    5  A    between atoms: C_12  and  C_13
REMARK    6  A    between atoms: C_12  and  C_18
REMARK    7  A    between atoms: C_13  and  C_14
REMARK    8  A    between atoms: C_14  and  N_15
REMARK    9  A    between atoms: N_15  and  C_16
REMARK   10  A    between atoms: N_15  and  C_17
REMARK                            x       y       z     vdW  Elec       q    Type
REMARK                         _______ _______ _______ _____ _____    ______ ____
ROOT
ATOM      1  C   UNL     1       3.159   6.113  18.278  0.00  0.00    +0.000 C 
ENDROOT
BRANCH   1   2
ATOM      2  C   UNL     1       2.420   7.332  18.821  0.00  0.00    +0.000 A 
ATOM      3  C   UNL     1       2.097   8.396  17.962  0.00  0.00    +0.000 A 
ATOM      4  C   UNL     1       1.369   9.494  18.428  0.00  0.00    +0.000 A 
ATOM      5  C   UNL     1       0.953   9.535  19.757  0.00  0.00    +0.000 A 
ATOM      6 CL   UNL     1       0.046  10.882  20.329  0.00  0.00    +0.000 Cl
ATOM      7  C   UNL     1       1.262   8.491  20.624  0.00  0.00    +0.000 A 
ATOM      8  C   UNL     1       1.999   7.397  20.159  0.00  0.00    +0.000 A 
ENDBRANCH   1   2
BRANCH   1   9
ATOM      9  O   UNL     1       2.164   5.232  17.698  0.00  0.00    +0.000 OA
BRANCH   9  10
ATOM     10  C   UNL     1       2.542   3.941  17.507  0.00  0.00    +0.000 C 
ATOM     11  O   UNL     1       2.585   3.354  16.441  0.00  0.00    +0.000 OA
BRANCH  10  19
ATOM     12  C   UNL     1       0.435   3.572  19.585  0.00  0.00    +0.000 C 
ATOM     13  C   UNL     1       1.863   3.157  19.835  0.00  0.00    +0.000 A 
ATOM     14  C   UNL     1       2.254   2.578  21.060  0.00  0.00    +0.000 A 
ATOM     15 CL   UNL     1       1.159   2.365  22.384  0.00  0.00    +0.000 Cl
ATOM     16  C   UNL     1       3.570   2.151  21.271  0.00  0.00    +0.000 A 
ATOM     17  C   UNL     1       4.521   2.277  20.266  0.00  0.00    +0.000 A 
ATOM     18  C   UNL     1       4.164   2.853  19.052  0.00  0.00    +0.000 A 
ATOM     19  C   UNL     1       2.851   3.309  18.828  0.00  0.00    +0.000 A 
ENDBRANCH  10  19
ENDBRANCH   9  10
ENDBRANCH   1   9
BRANCH   1  20
ATOM     20  C   UNL     1       4.178   6.493  17.188  0.00  0.00    +0.000 C 
BRANCH  20  21
ATOM     21  C   UNL     1       5.628   6.095  17.500  0.00  0.00    +0.000 C 
BRANCH  21  22
ATOM     22  N   UNL     1       6.060   4.813  16.918  0.00  0.00    +0.000 NA
ATOM     23  C   UNL     1       5.870   4.777  15.465  0.00  0.00    +0.000 C 
ATOM     24  C   UNL     1       7.475   4.583  17.235  0.00  0.00    +0.000 C 
ENDBRANCH  21  22
ENDBRANCH  20  21
ENDBRANCH   1  20
TORSDOF 7
ENDMDL
