MODEL 1
REMARK VINA RESULT:      -7.6      0.000      0.000
REMARK  Name = 
REMARK  3 active torsions:
REMARK  status: ('A' for Active; 'I' for Inactive)
REMARK    1  A    between atoms: C_1  and  O_2
REMARK    2  A    between atoms: O_2  and  C_3
REMARK    3  A    between atoms: C_6  and  C_7
REMARK                            x       y       z     vdW  Elec       q    Type
REMARK                         _______ _______ _______ _____ _____    ______ ____
ROOT
ATOM      1  C   UNL     1       0.123   9.823  20.929  0.00  0.00    +0.000 C 
ATOM      2  N   UNL     1       0.933  10.087  19.969  0.00  0.00    +0.000 NA
ATOM      3  N   UNL     1       1.589   8.990  19.555  0.00  0.00    +0.000 N 
ATOM      4  C   UNL     1       2.028   9.123  18.258  0.00  0.00    +0.000 C 
ATOM      5  O   UNL     1       1.968  10.142  17.558  0.00  0.00    +0.000 OA
ATOM      6  C   UNL     1       2.591   7.863  17.726  0.00  0.00    +0.000 C 
ATOM      7  O   UNL     1       3.169   6.637  17.731  0.00  0.00    +0.000 OA
ATOM      8  C   UNL     1       2.865   5.934  18.876  0.00  0.00    +0.000 A 
ATOM      9  C   UNL     1       3.509   4.681  18.658  0.00  0.00    +0.000 A 
ATOM     10  C   UNL     1       3.353   3.659  19.539  0.00  0.00    +0.000 A 
ATOM     11  C   UNL     1       2.538   3.879  20.639  0.00  0.00    +0.000 A 
ATOM     12 CL   UNL     1       2.294   2.557  21.702  0.00  0.00    +0.000 Cl
ATOM     13  C   UNL     1       1.919   5.182  20.901  0.00  0.00    +0.000 A 
ATOM     14  C   UNL     1       2.055   6.300  20.027  0.00  0.00    +0.000 A 
ATOM     15  C   UNL     1       1.574   7.829  20.511  0.00  0.00    +0.000 C 
ATOM     16  C   UNL     1       0.303   8.340  21.426  0.00  0.00    +0.000 C 
ENDROOT
BRANCH   1  20
ATOM     17  C   UNL     1      -2.330  13.318  22.170  0.00  0.00    +0.000 A 
ATOM     18  C   UNL     1      -1.766  12.432  23.066  0.00  0.00    +0.000 A 
ATOM     19  C   UNL     1      -1.049  11.312  22.601  0.00  0.00    +0.000 A 
ATOM     20  C   UNL     1      -0.852  11.001  21.218  0.00  0.00    +0.000 A 
ATOM     21  C   UNL     1      -1.468  11.885  20.335  0.00  0.00    +0.000 A 
ATOM     22  C   UNL     1      -2.195  13.029  20.802  0.00  0.00    +0.000 A 
BRANCH  17  24
ATOM     23  C   UNL     1      -3.794  14.101  23.909  0.00  0.00    +0.000 C 
ATOM     24  O   UNL     1      -3.008  14.358  22.753  0.00  0.00    +0.000 OA
ENDBRANCH  17  24
ENDBRANCH   1  20
TORSDOF 2
ENDMDL
MODEL 2
REMARK VINA RESULT:      -7.5      0.803      1.294
REMARK  Name = 
REMARK  3 active torsions:
REMARK  status: ('A' for Active; 'I' for Inactive)
REMARK    1  A    between atoms: C_1  and  O_2
REMARK    2  A    between atoms: O_2  and  C_3
REMARK    3  A    between atoms: C_6  and  C_7
REMARK                            x       y       z     vdW  Elec       q    Type
REMARK                         _______ _______ _______ _____ _____    ______ ____
ROOT
ATOM      1  C   UNL     1       0.193   9.845  20.836  0.00  0.00    +0.000 C 
ATOM      2  N   UNL     1       1.010  10.078  19.873  0.00  0.00    +0.000 NA
ATOM      3  N   UNL     1       1.650   8.964  19.482  0.00  0.00    +0.000 N 
ATOM      4  C   UNL     1       2.095   9.066  18.184  0.00  0.00    +0.000 C 
ATOM      5  O   UNL     1       2.052  10.071  17.464  0.00  0.00    +0.000 OA
ATOM      6  C   UNL     1       2.641   7.788  17.678  0.00  0.00    +0.000 C 
ATOM      7  O   UNL     1       3.201   6.553  17.709  0.00  0.00    +0.000 OA
ATOM      8  C   UNL     1       2.883   5.877  18.866  0.00  0.00    +0.000 A 
ATOM      9  C   UNL     1       3.510   4.611  18.675  0.00  0.00    +0.000 A 
ATOM     10  C   UNL     1       3.336   3.608  19.575  0.00  0.00    +0.000 A 
ATOM     11  C   UNL     1       2.522   3.862  20.668  0.00  0.00    +0.000 A 
ATOM     12 CL   UNL     1       2.256   2.565  21.755  0.00  0.00    +0.000 Cl
ATOM     13  C   UNL     1       1.921   5.179  20.903  0.00  0.00    +0.000 A 
ATOM     14  C   UNL     1       2.076   6.278  20.008  0.00  0.00    +0.000 A 
ATOM     15  C   UNL     1       1.616   7.822  20.460  0.00  0.00    +0.000 C 
ATOM     16  C   UNL     1       0.350   8.369  21.361  0.00  0.00    +0.000 C 
ENDROOT
BRANCH   1  20
ATOM     17  C   UNL     1      -2.850  13.068  21.184  0.00  0.00    +0.000 A 
ATOM     18  C   UNL     1      -2.385  12.594  19.974  0.00  0.00    +0.000 A 
ATOM     19  C   UNL     1      -1.376  11.610  19.937  0.00  0.00    +0.000 A 
ATOM     20  C   UNL     1      -0.765  11.042  21.099  0.00  0.00    +0.000 A 
ATOM     21  C   UNL     1      -1.220  11.570  22.307  0.00  0.00    +0.000 A 
ATOM     22  C   UNL     1      -2.249  12.566  22.349  0.00  0.00    +0.000 A 
BRANCH  17  24
ATOM     23  C   UNL     1      -5.172  13.618  20.896  0.00  0.00    +0.000 C 
ATOM     24  O   UNL     1      -3.824  14.028  21.078  0.00  0.00    +0.000 OA
ENDBRANCH  17  24
ENDBRANCH   1  20
TORSDOF 2
ENDMDL
MODEL 3
REMARK VINA RESULT:      -7.3      4.926     10.276
REMARK  Name = 
REMARK  3 active torsions:
REMARK  status: ('A' for Active; 'I' for Inactive)
REMARK    1  A    between atoms: C_1  and  O_2
REMARK    2  A    between atoms: O_2  and  C_3
REMARK    3  A    between atoms: C_6  and  C_7
REMARK                            x       y       z     vdW  Elec       q    Type
REMARK                         _______ _______ _______ _____ _____    ______ ____
ROOT
ATOM      1  C   UNL     1       5.381   5.729  15.841  0.00  0.00    +0.000 C 
ATOM      2  N   UNL     1       5.448   5.054  16.930  0.00  0.00    +0.000 NA
ATOM      3  N   UNL     1       4.605   5.528  17.862  0.00  0.00    +0.000 N 
ATOM      4  C   UNL     1       4.276   4.562  18.786  0.00  0.00    +0.000 C 
ATOM      5  O   UNL     1       4.760   3.426  18.871  0.00  0.00    +0.000 OA
ATOM      6  C   UNL     1       3.214   5.011  19.711  0.00  0.00    +0.000 C 
ATOM      7  O   UNL     1       2.430   5.864  20.416  0.00  0.00    +0.000 OA
ATOM      8  C   UNL     1       2.275   7.069  19.768  0.00  0.00    +0.000 A 
ATOM      9  C   UNL     1       1.392   7.781  20.631  0.00  0.00    +0.000 A 
ATOM     10  C   UNL     1       0.911   9.001  20.277  0.00  0.00    +0.000 A 
ATOM     11  C   UNL     1       1.299   9.512  19.048  0.00  0.00    +0.000 A 
ATOM     12 CL   UNL     1       0.626  11.018  18.585  0.00  0.00    +0.000 Cl
ATOM     13  C   UNL     1       2.253   8.813  18.180  0.00  0.00    +0.000 A 
ATOM     14  C   UNL     1       2.808   7.539  18.498  0.00  0.00    +0.000 A 
ATOM     15  C   UNL     1       4.096   6.923  17.624  0.00  0.00    +0.000 C 
ATOM     16  C   UNL     1       4.471   7.001  16.022  0.00  0.00    +0.000 C 
ENDROOT
BRANCH   1  20
ATOM     17  C   UNL     1       6.995   3.684  12.238  0.00  0.00    +0.000 A 
ATOM     18  C   UNL     1       5.810   3.322  12.846  0.00  0.00    +0.000 A 
ATOM     19  C   UNL     1       5.386   3.976  14.021  0.00  0.00    +0.000 A 
ATOM     20  C   UNL     1       6.116   5.025  14.664  0.00  0.00    +0.000 A 
ATOM     21  C   UNL     1       7.330   5.341  14.056  0.00  0.00    +0.000 A 
ATOM     22  C   UNL     1       7.763   4.682  12.859  0.00  0.00    +0.000 A 
BRANCH  17  24
ATOM     23  C   UNL     1       6.928   1.591  11.056  0.00  0.00    +0.000 C 
ATOM     24  O   UNL     1       7.294   2.964  11.109  0.00  0.00    +0.000 OA
ENDBRANCH  17  24
ENDBRANCH   1  20
TORSDOF 2
ENDMDL
MODEL 4
REMARK VINA RESULT:      -7.3      1.571      2.437
REMARK  Name = 
REMARK  3 active torsions:
REMARK  status: ('A' for Active; 'I' for Inactive)
REMARK    1  A    between atoms: C_1  and  O_2
REMARK    2  A    between atoms: O_2  and  C_3
REMARK    3  A    between atoms: C_6  and  C_7
REMARK                            x       y       z     vdW  Elec       q    Type
REMARK                         _______ _______ _______ _____ _____    ______ ____
ROOT
ATOM      1  C   UNL     1      -0.553  11.206  22.325  0.00  0.00    +0.000 C 
ATOM      2  N   UNL     1       0.062  11.781  21.356  0.00  0.00    +0.000 NA
ATOM      3  N   UNL     1       0.708  10.895  20.581  0.00  0.00    +0.000 N 
ATOM      4  C   UNL     1       0.909  11.387  19.311  0.00  0.00    +0.000 C 
ATOM      5  O   UNL     1       0.663  12.532  18.914  0.00  0.00    +0.000 OA
ATOM      6  C   UNL     1       1.456  10.362  18.395  0.00  0.00    +0.000 C 
ATOM      7  O   UNL     1       2.107   9.241  17.998  0.00  0.00    +0.000 OA
ATOM      8  C   UNL     1       2.051   8.252  18.955  0.00  0.00    +0.000 A 
ATOM      9  C   UNL     1       2.730   7.167  18.329  0.00  0.00    +0.000 A 
ATOM     10  C   UNL     1       2.796   5.950  18.930  0.00  0.00    +0.000 A 
ATOM     11  C   UNL     1       2.168   5.807  20.158  0.00  0.00    +0.000 A 
ATOM     12 CL   UNL     1       2.199   4.248  20.868  0.00  0.00    +0.000 Cl
ATOM     13  C   UNL     1       1.518   6.933  20.836  0.00  0.00    +0.000 A 
ATOM     14  C   UNL     1       1.427   8.238  20.269  0.00  0.00    +0.000 A 
ATOM     15  C   UNL     1       0.935   9.542  21.196  0.00  0.00    +0.000 C 
ATOM     16  C   UNL     1      -0.192   9.675  22.390  0.00  0.00    +0.000 C 
ENDROOT
BRANCH   1  20
ATOM     17  C   UNL     1      -3.186  14.339  24.063  0.00  0.00    +0.000 A 
ATOM     18  C   UNL     1      -1.864  14.559  23.733  0.00  0.00    +0.000 A 
ATOM     19  C   UNL     1      -1.070  13.504  23.240  0.00  0.00    +0.000 A 
ATOM     20  C   UNL     1      -1.540  12.166  23.049  0.00  0.00    +0.000 A 
ATOM     21  C   UNL     1      -2.864  11.959  23.432  0.00  0.00    +0.000 A 
ATOM     22  C   UNL     1      -3.677  13.030  23.930  0.00  0.00    +0.000 A 
BRANCH  17  24
ATOM     23  C   UNL     1      -5.154  15.719  24.069  0.00  0.00    +0.000 C 
ATOM     24  O   UNL     1      -3.842  15.446  24.539  0.00  0.00    +0.000 OA
ENDBRANCH  17  24
ENDBRANCH   1  20
TORSDOF 2
ENDMDL
MODEL 5
REMARK VINA RESULT:      -7.1      1.409      1.937
REMARK  Name = 
REMARK  3 active torsions:
REMARK  status: ('A' for Active; 'I' for Inactive)
REMARK    1  A    between atoms: C_1  and  O_2
REMARK    2  A    between atoms: O_2  and  C_3
REMARK    3  A    between atoms: C_6  and  C_7
REMARK                            x       y       z     vdW  Elec       q    Type
REMARK                         _______ _______ _______ _____ _____    ______ ____
ROOT
ATOM      1  C   UNL     1      -0.103  11.121  21.896  0.00  0.00    +0.000 C 
ATOM      2  N   UNL     1       0.545  11.552  20.875  0.00  0.00    +0.000 NA
ATOM      3  N   UNL     1       1.118  10.550  20.189  0.00  0.00    +0.000 N 
ATOM      4  C   UNL     1       1.345  10.900  18.877  0.00  0.00    +0.000 C 
ATOM      5  O   UNL     1       1.181  12.017  18.372  0.00  0.00    +0.000 OA
ATOM      6  C   UNL     1       1.807   9.754  18.064  0.00  0.00    +0.000 C 
ATOM      7  O   UNL     1       2.369   8.554  17.777  0.00  0.00    +0.000 OA
ATOM      8  C   UNL     1       2.247   7.669  18.825  0.00  0.00    +0.000 A 
ATOM      9  C   UNL     1       2.838   6.481  18.307  0.00  0.00    +0.000 A 
ATOM     10  C   UNL     1       2.818   5.326  19.022  0.00  0.00    +0.000 A 
ATOM     11  C   UNL     1       2.191   5.349  20.259  0.00  0.00    +0.000 A 
ATOM     12 CL   UNL     1       2.111   3.869  21.117  0.00  0.00    +0.000 Cl
ATOM     13  C   UNL     1       1.632   6.581  20.825  0.00  0.00    +0.000 A 
ATOM     14  C   UNL     1       1.634   7.829  20.135  0.00  0.00    +0.000 A 
ATOM     15  C   UNL     1       1.248   9.249  20.932  0.00  0.00    +0.000 C 
ATOM     16  C   UNL     1       0.144   9.581  22.109  0.00  0.00    +0.000 C 
ENDROOT
BRANCH   1  20
ATOM     17  C   UNL     1      -2.834  13.879  24.064  0.00  0.00    +0.000 A 
ATOM     18  C   UNL     1      -3.141  12.558  23.805  0.00  0.00    +0.000 A 
ATOM     19  C   UNL     1      -2.253  11.755  23.061  0.00  0.00    +0.000 A 
ATOM     20  C   UNL     1      -1.010  12.218  22.525  0.00  0.00    +0.000 A 
ATOM     21  C   UNL     1      -0.745  13.565  22.761  0.00  0.00    +0.000 A 
ATOM     22  C   UNL     1      -1.642  14.384  23.521  0.00  0.00    +0.000 A 
BRANCH  17  24
ATOM     23  C   UNL     1      -3.654  15.953  24.961  0.00  0.00    +0.000 C 
ATOM     24  O   UNL     1      -3.787  14.549  24.789  0.00  0.00    +0.000 OA
ENDBRANCH  17  24
ENDBRANCH   1  20
TORSDOF 2
ENDMDL
MODEL 6
REMARK VINA RESULT:      -7.1      3.681      9.069
REMARK  Name = 
REMARK  3 active torsions:
REMARK  status: ('A' for Active; 'I' for Inactive)
REMARK    1  A    between atoms: C_1  and  O_2
REMARK    2  A    between atoms: O_2  and  C_3
REMARK    3  A    between atoms: C_6  and  C_7
REMARK                            x       y       z     vdW  Elec       q    Type
REMARK                         _______ _______ _______ _____ _____    ______ ____
ROOT
ATOM      1  C   UNL     1       3.149   7.247  17.963  0.00  0.00    +0.000 C 
ATOM      2  N   UNL     1       2.871   6.865  19.157  0.00  0.00    +0.000 NA
ATOM      3  N   UNL     1       2.039   7.721  19.772  0.00  0.00    +0.000 N 
ATOM      4  C   UNL     1       1.337   7.105  20.783  0.00  0.00    +0.000 C 
ATOM      5  O   UNL     1       1.499   5.952  21.199  0.00  0.00    +0.000 OA
ATOM      6  C   UNL     1       0.290   7.982  21.351  0.00  0.00    +0.000 C 
ATOM      7  O   UNL     1      -0.355   9.127  21.684  0.00  0.00    +0.000 OA
ATOM      8  C   UNL     1      -0.098  10.138  20.785  0.00  0.00    +0.000 A 
ATOM      9  C   UNL     1      -0.897  11.210  21.277  0.00  0.00    +0.000 A 
ATOM     10  C   UNL     1      -0.994  12.377  20.588  0.00  0.00    +0.000 A 
ATOM     11  C   UNL     1      -0.301  12.473  19.391  0.00  0.00    +0.000 A 
ATOM     12 CL   UNL     1      -0.492  13.923  18.498  0.00  0.00    +0.000 Cl
ATOM     13  C   UNL     1       0.570  11.397  18.906  0.00  0.00    +0.000 A 
ATOM     14  C   UNL     1       0.729  10.156  19.588  0.00  0.00    +0.000 A 
ATOM     15  C   UNL     1       1.942   9.088  19.151  0.00  0.00    +0.000 C 
ATOM     16  C   UNL     1       2.571   8.685  17.684  0.00  0.00    +0.000 C 
ENDROOT
BRANCH   1  20
ATOM     17  C   UNL     1       5.613   4.399  15.601  0.00  0.00    +0.000 A 
ATOM     18  C   UNL     1       5.599   5.760  15.369  0.00  0.00    +0.000 A 
ATOM     19  C   UNL     1       4.749   6.598  16.118  0.00  0.00    +0.000 A 
ATOM     20  C   UNL     1       3.859   6.135  17.138  0.00  0.00    +0.000 A 
ATOM     21  C   UNL     1       3.860   4.754  17.322  0.00  0.00    +0.000 A 
ATOM     22  C   UNL     1       4.726   3.897  16.566  0.00  0.00    +0.000 A 
BRANCH  17  24
ATOM     23  C   UNL     1       6.269   3.711  13.392  0.00  0.00    +0.000 C 
ATOM     24  O   UNL     1       6.478   3.698  14.798  0.00  0.00    +0.000 OA
ENDBRANCH  17  24
ENDBRANCH   1  20
TORSDOF 2
ENDMDL
MODEL 7
REMARK VINA RESULT:      -7.1      3.507      8.769
REMARK  Name = 
REMARK  3 active torsions:
REMARK  status: ('A' for Active; 'I' for Inactive)
REMARK    1  A    between atoms: C_1  and  O_2
REMARK    2  A    between atoms: O_2  and  C_3
REMARK    3  A    between atoms: C_6  and  C_7
REMARK                            x       y       z     vdW  Elec       q    Type
REMARK                         _______ _______ _______ _____ _____    ______ ____
ROOT
ATOM      1  C   UNL     1       0.184  10.262  19.706  0.00  0.00    +0.000 C 
ATOM      2  N   UNL     1       0.326  10.504  20.958  0.00  0.00    +0.000 NA
ATOM      3  N   UNL     1      -0.734  11.155  21.464  0.00  0.00    +0.000 N 
ATOM      4  C   UNL     1      -0.848  10.958  22.822  0.00  0.00    +0.000 C 
ATOM      5  O   UNL     1      -0.040  10.375  23.554  0.00  0.00    +0.000 OA
ATOM      6  C   UNL     1      -2.106  11.516  23.363  0.00  0.00    +0.000 C 
ATOM      7  O   UNL     1      -3.204  12.307  23.447  0.00  0.00    +0.000 OA
ATOM      8  C   UNL     1      -3.656  12.688  22.203  0.00  0.00    +0.000 A 
ATOM      9  C   UNL     1      -4.822  13.448  22.509  0.00  0.00    +0.000 A 
ATOM     10  C   UNL     1      -5.621  13.921  21.517  0.00  0.00    +0.000 A 
ATOM     11  C   UNL     1      -5.266  13.623  20.211  0.00  0.00    +0.000 A 
ATOM     12 CL   UNL     1      -6.323  14.164  18.976  0.00  0.00    +0.000 Cl
ATOM     13  C   UNL     1      -4.037  12.892  19.885  0.00  0.00    +0.000 A 
ATOM     14  C   UNL     1      -3.147  12.382  20.875  0.00  0.00    +0.000 A 
ATOM     15  C   UNL     1      -1.630  11.814  20.452  0.00  0.00    +0.000 C 
ATOM     16  C   UNL     1      -1.102  10.972  19.139  0.00  0.00    +0.000 C 
ENDROOT
BRANCH   1  20
ATOM     17  C   UNL     1       2.929   7.009  18.424  0.00  0.00    +0.000 A 
ATOM     18  C   UNL     1       2.365   7.070  19.681  0.00  0.00    +0.000 A 
ATOM     19  C   UNL     1       1.549   8.162  20.041  0.00  0.00    +0.000 A 
ATOM     20  C   UNL     1       1.249   9.260  19.174  0.00  0.00    +0.000 A 
ATOM     21  C   UNL     1       1.866   9.196  17.926  0.00  0.00    +0.000 A 
ATOM     22  C   UNL     1       2.693   8.086  17.555  0.00  0.00    +0.000 A 
BRANCH  17  24
ATOM     23  C   UNL     1       3.295   4.656  18.756  0.00  0.00    +0.000 C 
ATOM     24  O   UNL     1       3.708   5.900  18.207  0.00  0.00    +0.000 OA
ENDBRANCH  17  24
ENDBRANCH   1  20
TORSDOF 2
ENDMDL
MODEL 8
REMARK VINA RESULT:      -7.0      2.932      4.360
REMARK  Name = 
REMARK  3 active torsions:
REMARK  status: ('A' for Active; 'I' for Inactive)
REMARK    1  A    between atoms: C_1  and  O_2
REMARK    2  A    between atoms: O_2  and  C_3
REMARK    3  A    between atoms: C_6  and  C_7
REMARK                            x       y       z     vdW  Elec       q    Type
REMARK                         _______ _______ _______ _____ _____    ______ ____
ROOT
ATOM      1  C   UNL     1       1.766   7.789  19.919  0.00  0.00    +0.000 C 
ATOM      2  N   UNL     1       1.576   6.598  20.358  0.00  0.00    +0.000 NA
ATOM      3  N   UNL     1       2.330   5.700  19.703  0.00  0.00    +0.000 N 
ATOM      4  C   UNL     1       2.545   4.571  20.461  0.00  0.00    +0.000 C 
ATOM      5  O   UNL     1       2.032   4.308  21.556  0.00  0.00    +0.000 OA
ATOM      6  C   UNL     1       3.517   3.652  19.832  0.00  0.00    +0.000 C 
ATOM      7  O   UNL     1       4.243   3.058  18.853  0.00  0.00    +0.000 OA
ATOM      8  C   UNL     1       4.487   3.917  17.805  0.00  0.00    +0.000 A 
ATOM      9  C   UNL     1       5.293   3.131  16.931  0.00  0.00    +0.000 A 
ATOM     10  C   UNL     1       5.832   3.673  15.809  0.00  0.00    +0.000 A 
ATOM     11  C   UNL     1       5.579   5.013  15.559  0.00  0.00    +0.000 A 
ATOM     12 CL   UNL     1       6.325   5.700  14.178  0.00  0.00    +0.000 Cl
ATOM     13  C   UNL     1       4.704   5.814  16.421  0.00  0.00    +0.000 A 
ATOM     14  C   UNL     1       4.094   5.303  17.604  0.00  0.00    +0.000 A 
ATOM     15  C   UNL     1       2.889   6.162  18.386  0.00  0.00    +0.000 C 
ATOM     16  C   UNL     1       2.679   7.777  18.636  0.00  0.00    +0.000 C 
ENDROOT
BRANCH   1  20
ATOM     17  C   UNL     1      -0.355  10.992  22.156  0.00  0.00    +0.000 A 
ATOM     18  C   UNL     1       0.024  11.116  20.835  0.00  0.00    +0.000 A 
ATOM     19  C   UNL     1       0.746  10.083  20.204  0.00  0.00    +0.000 A 
ATOM     20  C   UNL     1       1.139   8.868  20.848  0.00  0.00    +0.000 A 
ATOM     21  C   UNL     1       0.783   8.786  22.193  0.00  0.00    +0.000 A 
ATOM     22  C   UNL     1       0.045   9.832  22.838  0.00  0.00    +0.000 A 
BRANCH  17  24
ATOM     23  C   UNL     1      -2.345  11.868  23.184  0.00  0.00    +0.000 C 
ATOM     24  O   UNL     1      -1.044  12.072  22.650  0.00  0.00    +0.000 OA
ENDBRANCH  17  24
ENDBRANCH   1  20
TORSDOF 2
ENDMDL
MODEL 9
REMARK VINA RESULT:      -7.0      3.026      8.353
REMARK  Name = 
REMARK  3 active torsions:
REMARK  status: ('A' for Active; 'I' for Inactive)
REMARK    1  A    between atoms: C_1  and  O_2
REMARK    2  A    between atoms: O_2  and  C_3
REMARK    3  A    between atoms: C_6  and  C_7
REMARK                            x       y       z     vdW  Elec       q    Type
REMARK                         _______ _______ _______ _____ _____    ______ ____
ROOT
ATOM      1  C   UNL     1       0.757   9.626  20.191  0.00  0.00    +0.000 C 
ATOM      2  N   UNL     1       1.188  10.783  19.842  0.00  0.00    +0.000 NA
ATOM      3  N   UNL     1       0.606  11.766  20.548  0.00  0.00    +0.000 N 
ATOM      4  C   UNL     1       1.388  12.898  20.580  0.00  0.00    +0.000 C 
ATOM      5  O   UNL     1       2.439  13.088  19.956  0.00  0.00    +0.000 OA
ATOM      6  C   UNL     1       0.850  13.924  21.498  0.00  0.00    +0.000 C 
ATOM      7  O   UNL     1      -0.061  14.607  22.235  0.00  0.00    +0.000 OA
ATOM      8  C   UNL     1      -1.092  13.796  22.652  0.00  0.00    +0.000 A 
ATOM      9  C   UNL     1      -1.890  14.677  23.439  0.00  0.00    +0.000 A 
ATOM     10  C   UNL     1      -2.969  14.212  24.122  0.00  0.00    +0.000 A 
ATOM     11  C   UNL     1      -3.249  12.858  24.033  0.00  0.00    +0.000 A 
ATOM     12 CL   UNL     1      -4.570  12.276  24.957  0.00  0.00    +0.000 Cl
ATOM     13  C   UNL     1      -2.470  11.955  23.180  0.00  0.00    +0.000 A 
ATOM     14  C   UNL     1      -1.337  12.380  22.425  0.00  0.00    +0.000 A 
ATOM     15  C   UNL     1      -0.665  11.387  21.257  0.00  0.00    +0.000 C 
ATOM     16  C   UNL     1      -0.447   9.755  21.199  0.00  0.00    +0.000 C 
ENDROOT
BRANCH   1  20
ATOM     17  C   UNL     1       2.874   5.989  18.757  0.00  0.00    +0.000 A 
ATOM     18  C   UNL     1       2.353   6.110  20.029  0.00  0.00    +0.000 A 
ATOM     19  C   UNL     1       1.745   7.314  20.437  0.00  0.00    +0.000 A 
ATOM     20  C   UNL     1       1.622   8.473  19.607  0.00  0.00    +0.000 A 
ATOM     21  C   UNL     1       2.195   8.341  18.343  0.00  0.00    +0.000 A 
ATOM     22  C   UNL     1       2.810   7.117  17.922  0.00  0.00    +0.000 A 
BRANCH  17  24
ATOM     23  C   UNL     1       2.887   3.961  17.465  0.00  0.00    +0.000 C 
ATOM     24  O   UNL     1       3.445   4.770  18.492  0.00  0.00    +0.000 OA
ENDBRANCH  17  24
ENDBRANCH   1  20
TORSDOF 2
ENDMDL
