MODEL 1
REMARK VINA RESULT:      -7.1      0.000      0.000
REMARK  Name = 
REMARK  5 active torsions:
REMARK  status: ('A' for Active; 'I' for Inactive)
REMARK    1  A    between atoms: C_1  and  C_2
REMARK    2  A    between atoms: C_2  and  C_3
REMARK    3  A    between atoms: C_3  and  C_5
REMARK    4  A    between atoms: C_6  and  O_7
REMARK    5  A    between atoms: O_7  and  C_8
REMARK                            x       y       z     vdW  Elec       q    Type
REMARK                         _______ _______ _______ _____ _____    ______ ____
ROOT
ATOM      1  C   UNL     1       3.983   3.911  19.285  0.00  0.00    +0.000 A 
ATOM      2  C   UNL     1       2.783   4.531  19.677  0.00  0.00    +0.000 A 
ATOM      3  C   UNL     1       2.542   5.865  19.299  0.00  0.00    +0.000 A 
ATOM      4  C   UNL     1       3.470   6.596  18.552  0.00  0.00    +0.000 A 
ATOM      5  C   UNL     1       4.659   5.996  18.162  0.00  0.00    +0.000 A 
ATOM      6  C   UNL     1       5.643   6.706  17.349  0.00  0.00    +0.000 A 
ATOM      7  C   UNL     1       6.790   6.112  17.010  0.00  0.00    +0.000 A 
ATOM      8  C   UNL     1       7.106   4.739  17.414  0.00  0.00    +0.000 A 
ATOM      9  O   UNL     1       8.184   4.223  17.151  0.00  0.00    +0.000 OA
ATOM     10  O   UNL     1       6.108   4.066  18.097  0.00  0.00    +0.000 OA
ATOM     11  C   UNL     1       4.904   4.672  18.534  0.00  0.00    +0.000 A 
ENDROOT
BRANCH   1  12
ATOM     12  C   UNL     1       4.264   2.462  19.508  0.00  0.00    +0.000 C 
ATOM     13  O   UNL     1       4.971   2.123  20.455  0.00  0.00    +0.000 OA
BRANCH  12  15
ATOM     14  C   UNL     1       2.688   2.043  17.555  0.00  0.00    +0.000 C 
ATOM     15  C   UNL     1       3.590   1.433  18.610  0.00  0.00    +0.000 C 
ENDBRANCH  12  15
ENDBRANCH   1  12
BRANCH   2  16
ATOM     16  O   UNL     1       1.713   3.976  20.329  0.00  0.00    +0.000 OA
ATOM     17  C   UNL     1       1.925   3.495  21.651  0.00  0.00    +0.000 C 
ENDBRANCH   2  16
TORSDOF 3
ENDMDL
MODEL 2
REMARK VINA RESULT:      -6.9      2.592      4.609
REMARK  Name = 
REMARK  5 active torsions:
REMARK  status: ('A' for Active; 'I' for Inactive)
REMARK    1  A    between atoms: C_1  and  C_2
REMARK    2  A    between atoms: C_2  and  C_3
REMARK    3  A    between atoms: C_3  and  C_5
REMARK    4  A    between atoms: C_6  and  O_7
REMARK    5  A    between atoms: O_7  and  C_8
REMARK                            x       y       z     vdW  Elec       q    Type
REMARK                         _______ _______ _______ _____ _____    ______ ____
ROOT
ATOM      1  C   UNL     1       6.167   5.897  17.313  0.00  0.00    +0.000 A 
ATOM      2  C   UNL     1       5.029   5.490  18.032  0.00  0.00    +0.000 A 
ATOM      3  C   UNL     1       4.125   4.588  17.438  0.00  0.00    +0.000 A 
ATOM      4  C   UNL     1       4.323   4.095  16.145  0.00  0.00    +0.000 A 
ATOM      5  C   UNL     1       5.440   4.492  15.424  0.00  0.00    +0.000 A 
ATOM      6  C   UNL     1       5.710   3.976  14.085  0.00  0.00    +0.000 A 
ATOM      7  C   UNL     1       6.781   4.395  13.405  0.00  0.00    +0.000 A 
ATOM      8  C   UNL     1       7.729   5.363  13.963  0.00  0.00    +0.000 A 
ATOM      9  O   UNL     1       8.672   5.788  13.311  0.00  0.00    +0.000 OA
ATOM     10  O   UNL     1       7.495   5.752  15.271  0.00  0.00    +0.000 OA
ATOM     11  C   UNL     1       6.342   5.386  16.009  0.00  0.00    +0.000 A 
ENDROOT
BRANCH   1  12
ATOM     12  C   UNL     1       7.256   6.727  17.908  0.00  0.00    +0.000 C 
ATOM     13  O   UNL     1       7.997   6.234  18.755  0.00  0.00    +0.000 OA
BRANCH  12  15
ATOM     14  C   UNL     1       8.437   8.958  18.222  0.00  0.00    +0.000 C 
ATOM     15  C   UNL     1       7.481   8.137  17.379  0.00  0.00    +0.000 C 
ENDBRANCH  12  15
ENDBRANCH   1  12
BRANCH   2  16
ATOM     16  O   UNL     1       4.694   5.780  19.328  0.00  0.00    +0.000 OA
ATOM     17  C   UNL     1       3.534   5.155  19.864  0.00  0.00    +0.000 C 
ENDBRANCH   2  16
TORSDOF 3
ENDMDL
MODEL 3
REMARK VINA RESULT:      -6.9      2.421      4.256
REMARK  Name = 
REMARK  5 active torsions:
REMARK  status: ('A' for Active; 'I' for Inactive)
REMARK    1  A    between atoms: C_1  and  C_2
REMARK    2  A    between atoms: C_2  and  C_3
REMARK    3  A    between atoms: C_3  and  C_5
REMARK    4  A    between atoms: C_6  and  O_7
REMARK    5  A    between atoms: O_7  and  C_8
REMARK                            x       y       z     vdW  Elec       q    Type
REMARK                         _______ _______ _______ _____ _____    ______ ____
ROOT
ATOM      1  C   UNL     1       6.492   4.541  17.430  0.00  0.00    +0.000 A 
ATOM      2  C   UNL     1       5.364   4.049  18.112  0.00  0.00    +0.000 A 
ATOM      3  C   UNL     1       4.261   3.583  17.372  0.00  0.00    +0.000 A 
ATOM      4  C   UNL     1       4.252   3.606  15.974  0.00  0.00    +0.000 A 
ATOM      5  C   UNL     1       5.357   4.091  15.290  0.00  0.00    +0.000 A 
ATOM      6  C   UNL     1       5.410   4.101  13.831  0.00  0.00    +0.000 A 
ATOM      7  C   UNL     1       6.477   4.597  13.199  0.00  0.00    +0.000 A 
ATOM      8  C   UNL     1       7.632   5.133  13.924  0.00  0.00    +0.000 A 
ATOM      9  O   UNL     1       8.579   5.642  13.339  0.00  0.00    +0.000 OA
ATOM     10  O   UNL     1       7.588   5.015  15.303  0.00  0.00    +0.000 OA
ATOM     11  C   UNL     1       6.456   4.555  16.019  0.00  0.00    +0.000 A 
ENDROOT
BRANCH   1  12
ATOM     12  C   UNL     1       7.763   4.918  18.117  0.00  0.00    +0.000 C 
ATOM     13  O   UNL     1       8.718   4.144  18.086  0.00  0.00    +0.000 OA
BRANCH  12  15
ATOM     14  C   UNL     1       7.690   7.438  17.781  0.00  0.00    +0.000 C 
ATOM     15  C   UNL     1       7.875   6.294  18.759  0.00  0.00    +0.000 C 
ENDBRANCH  12  15
ENDBRANCH   1  12
BRANCH   2  16
ATOM     16  O   UNL     1       5.202   3.859  19.459  0.00  0.00    +0.000 OA
ATOM     17  C   UNL     1       4.413   2.752  19.877  0.00  0.00    +0.000 C 
ENDBRANCH   2  16
TORSDOF 3
ENDMDL
MODEL 4
REMARK VINA RESULT:      -6.8      1.378      1.378
REMARK  Name = 
REMARK  5 active torsions:
REMARK  status: ('A' for Active; 'I' for Inactive)
REMARK    1  A    between atoms: C_1  and  C_2
REMARK    2  A    between atoms: C_2  and  C_3
REMARK    3  A    between atoms: C_3  and  C_5
REMARK    4  A    between atoms: C_6  and  O_7
REMARK    5  A    between atoms: O_7  and  C_8
REMARK                            x       y       z     vdW  Elec       q    Type
REMARK                         _______ _______ _______ _____ _____    ______ ____
ROOT
ATOM      1  C   UNL     1       4.006   4.287  18.815  0.00  0.00    +0.000 A 
ATOM      2  C   UNL     1       3.234   5.133  19.632  0.00  0.00    +0.000 A 
ATOM      3  C   UNL     1       2.999   6.459  19.223  0.00  0.00    +0.000 A 
ATOM      4  C   UNL     1       3.524   6.963  18.029  0.00  0.00    +0.000 A 
ATOM      5  C   UNL     1       4.291   6.140  17.217  0.00  0.00    +0.000 A 
ATOM      6  C   UNL     1       4.829   6.609  15.943  0.00  0.00    +0.000 A 
ATOM      7  C   UNL     1       5.585   5.802  15.193  0.00  0.00    +0.000 A 
ATOM      8  C   UNL     1       5.892   4.427  15.596  0.00  0.00    +0.000 A 
ATOM      9  O   UNL     1       6.635   3.714  14.934  0.00  0.00    +0.000 OA
ATOM     10  O   UNL     1       5.282   3.987  16.758  0.00  0.00    +0.000 OA
ATOM     11  C   UNL     1       4.526   4.822  17.617  0.00  0.00    +0.000 A 
ENDROOT
BRANCH   1  12
ATOM     12  C   UNL     1       4.187   2.830  19.087  0.00  0.00    +0.000 C 
ATOM     13  O   UNL     1       4.851   2.475  20.058  0.00  0.00    +0.000 OA
BRANCH  12  15
ATOM     14  C   UNL     1       1.968   2.057  18.113  0.00  0.00    +0.000 C 
ATOM     15  C   UNL     1       3.463   1.821  18.206  0.00  0.00    +0.000 C 
ENDBRANCH  12  15
ENDBRANCH   1  12
BRANCH   2  16
ATOM     16  O   UNL     1       2.561   4.819  20.783  0.00  0.00    +0.000 OA
ATOM     17  C   UNL     1       1.184   4.480  20.670  0.00  0.00    +0.000 C 
ENDBRANCH   2  16
TORSDOF 3
ENDMDL
MODEL 5
REMARK VINA RESULT:      -6.8      1.218      1.495
REMARK  Name = 
REMARK  5 active torsions:
REMARK  status: ('A' for Active; 'I' for Inactive)
REMARK    1  A    between atoms: C_1  and  C_2
REMARK    2  A    between atoms: C_2  and  C_3
REMARK    3  A    between atoms: C_3  and  C_5
REMARK    4  A    between atoms: C_6  and  O_7
REMARK    5  A    between atoms: O_7  and  C_8
REMARK                            x       y       z     vdW  Elec       q    Type
REMARK                         _______ _______ _______ _____ _____    ______ ____
ROOT
ATOM      1  C   UNL     1       3.709   4.165  18.489  0.00  0.00    +0.000 A 
ATOM      2  C   UNL     1       2.494   4.862  18.610  0.00  0.00    +0.000 A 
ATOM      3  C   UNL     1       2.437   6.217  18.231  0.00  0.00    +0.000 A 
ATOM      4  C   UNL     1       3.561   6.893  17.748  0.00  0.00    +0.000 A 
ATOM      5  C   UNL     1       4.767   6.216  17.628  0.00  0.00    +0.000 A 
ATOM      6  C   UNL     1       5.959   6.868  17.093  0.00  0.00    +0.000 A 
ATOM      7  C   UNL     1       7.113   6.199  17.012  0.00  0.00    +0.000 A 
ATOM      8  C   UNL     1       7.234   4.800  17.432  0.00  0.00    +0.000 A 
ATOM      9  O   UNL     1       8.307   4.214  17.412  0.00  0.00    +0.000 OA
ATOM     10  O   UNL     1       6.060   4.188  17.838  0.00  0.00    +0.000 OA
ATOM     11  C   UNL     1       4.830   4.871  18.001  0.00  0.00    +0.000 A 
ENDROOT
BRANCH   1  12
ATOM     12  C   UNL     1       3.835   2.695  18.722  0.00  0.00    +0.000 C 
ATOM     13  O   UNL     1       3.563   1.915  17.813  0.00  0.00    +0.000 OA
BRANCH  12  15
ATOM     14  C   UNL     1       3.386   2.255  21.187  0.00  0.00    +0.000 C 
ATOM     15  C   UNL     1       4.390   2.204  20.052  0.00  0.00    +0.000 C 
ENDBRANCH  12  15
ENDBRANCH   1  12
BRANCH   2  16
ATOM     16  O   UNL     1       1.267   4.374  18.973  0.00  0.00    +0.000 OA
ATOM     17  C   UNL     1       0.915   4.436  20.350  0.00  0.00    +0.000 C 
ENDBRANCH   2  16
TORSDOF 3
ENDMDL
MODEL 6
REMARK VINA RESULT:      -6.8      1.773      2.459
REMARK  Name = 
REMARK  5 active torsions:
REMARK  status: ('A' for Active; 'I' for Inactive)
REMARK    1  A    between atoms: C_1  and  C_2
REMARK    2  A    between atoms: C_2  and  C_3
REMARK    3  A    between atoms: C_3  and  C_5
REMARK    4  A    between atoms: C_6  and  O_7
REMARK    5  A    between atoms: O_7  and  C_8
REMARK                            x       y       z     vdW  Elec       q    Type
REMARK                         _______ _______ _______ _____ _____    ______ ____
ROOT
ATOM      1  C   UNL     1       3.934   3.150  19.053  0.00  0.00    +0.000 A 
ATOM      2  C   UNL     1       2.955   2.854  18.087  0.00  0.00    +0.000 A 
ATOM      3  C   UNL     1       3.038   3.455  16.816  0.00  0.00    +0.000 A 
ATOM      4  C   UNL     1       4.062   4.349  16.492  0.00  0.00    +0.000 A 
ATOM      5  C   UNL     1       5.032   4.652  17.438  0.00  0.00    +0.000 A 
ATOM      6  C   UNL     1       6.142   5.551  17.135  0.00  0.00    +0.000 A 
ATOM      7  C   UNL     1       7.047   5.843  18.073  0.00  0.00    +0.000 A 
ATOM      8  C   UNL     1       6.981   5.276  19.422  0.00  0.00    +0.000 A 
ATOM      9  O   UNL     1       7.778   5.596  20.294  0.00  0.00    +0.000 OA
ATOM     10  O   UNL     1       5.974   4.352  19.641  0.00  0.00    +0.000 OA
ATOM     11  C   UNL     1       4.956   4.057  18.701  0.00  0.00    +0.000 A 
ENDROOT
BRANCH   1  12
ATOM     12  C   UNL     1       4.018   2.453  20.371  0.00  0.00    +0.000 C 
ATOM     13  O   UNL     1       5.002   1.762  20.626  0.00  0.00    +0.000 OA
BRANCH  12  15
ATOM     14  C   UNL     1       2.372   4.107  21.385  0.00  0.00    +0.000 C 
ATOM     15  C   UNL     1       2.927   2.696  21.404  0.00  0.00    +0.000 C 
ENDBRANCH  12  15
ENDBRANCH   1  12
BRANCH   2  16
ATOM     16  O   UNL     1       1.929   1.950  18.166  0.00  0.00    +0.000 OA
ATOM     17  C   UNL     1       0.677   2.417  18.653  0.00  0.00    +0.000 C 
ENDBRANCH   2  16
TORSDOF 3
ENDMDL
MODEL 7
REMARK VINA RESULT:      -6.7      1.804      2.006
REMARK  Name = 
REMARK  5 active torsions:
REMARK  status: ('A' for Active; 'I' for Inactive)
REMARK    1  A    between atoms: C_1  and  C_2
REMARK    2  A    between atoms: C_2  and  C_3
REMARK    3  A    between atoms: C_3  and  C_5
REMARK    4  A    between atoms: C_6  and  O_7
REMARK    5  A    between atoms: O_7  and  C_8
REMARK                            x       y       z     vdW  Elec       q    Type
REMARK                         _______ _______ _______ _____ _____    ______ ____
ROOT
ATOM      1  C   UNL     1       3.037   4.034  18.151  0.00  0.00    +0.000 A 
ATOM      2  C   UNL     1       2.339   4.859  19.051  0.00  0.00    +0.000 A 
ATOM      3  C   UNL     1       2.546   6.251  19.012  0.00  0.00    +0.000 A 
ATOM      4  C   UNL     1       3.437   6.836  18.108  0.00  0.00    +0.000 A 
ATOM      5  C   UNL     1       4.134   6.032  17.217  0.00  0.00    +0.000 A 
ATOM      6  C   UNL     1       5.048   6.599  16.228  0.00  0.00    +0.000 A 
ATOM      7  C   UNL     1       5.724   5.799  15.400  0.00  0.00    +0.000 A 
ATOM      8  C   UNL     1       5.575   4.341  15.430  0.00  0.00    +0.000 A 
ATOM      9  O   UNL     1       6.244   3.612  14.710  0.00  0.00    +0.000 OA
ATOM     10  O   UNL     1       4.627   3.849  16.310  0.00  0.00    +0.000 OA
ATOM     11  C   UNL     1       3.933   4.649  17.250  0.00  0.00    +0.000 A 
ENDROOT
BRANCH   1  12
ATOM     12  C   UNL     1       2.778   2.570  18.014  0.00  0.00    +0.000 C 
ATOM     13  O   UNL     1       1.879   2.184  17.271  0.00  0.00    +0.000 OA
BRANCH  12  15
ATOM     14  C   UNL     1       4.464   2.201  19.882  0.00  0.00    +0.000 C 
ATOM     15  C   UNL     1       3.698   1.588  18.727  0.00  0.00    +0.000 C 
ENDBRANCH  12  15
ENDBRANCH   1  12
BRANCH   2  16
ATOM     16  O   UNL     1       1.366   4.505  19.949  0.00  0.00    +0.000 OA
ATOM     17  C   UNL     1       1.786   4.065  21.235  0.00  0.00    +0.000 C 
ENDBRANCH   2  16
TORSDOF 3
ENDMDL
MODEL 8
REMARK VINA RESULT:      -6.7      2.253      3.743
REMARK  Name = 
REMARK  5 active torsions:
REMARK  status: ('A' for Active; 'I' for Inactive)
REMARK    1  A    between atoms: C_1  and  C_2
REMARK    2  A    between atoms: C_2  and  C_3
REMARK    3  A    between atoms: C_3  and  C_5
REMARK    4  A    between atoms: C_6  and  O_7
REMARK    5  A    between atoms: O_7  and  C_8
REMARK                            x       y       z     vdW  Elec       q    Type
REMARK                         _______ _______ _______ _____ _____    ______ ____
ROOT
ATOM      1  C   UNL     1       3.202   5.690  17.944  0.00  0.00    +0.000 A 
ATOM      2  C   UNL     1       2.459   4.498  17.868  0.00  0.00    +0.000 A 
ATOM      3  C   UNL     1       3.079   3.330  17.386  0.00  0.00    +0.000 A 
ATOM      4  C   UNL     1       4.413   3.324  16.969  0.00  0.00    +0.000 A 
ATOM      5  C   UNL     1       5.156   4.494  17.037  0.00  0.00    +0.000 A 
ATOM      6  C   UNL     1       6.563   4.530  16.649  0.00  0.00    +0.000 A 
ATOM      7  C   UNL     1       7.247   5.677  16.700  0.00  0.00    +0.000 A 
ATOM      8  C   UNL     1       6.635   6.928  17.154  0.00  0.00    +0.000 A 
ATOM      9  O   UNL     1       7.250   7.986  17.141  0.00  0.00    +0.000 OA
ATOM     10  O   UNL     1       5.331   6.834  17.608  0.00  0.00    +0.000 OA
ATOM     11  C   UNL     1       4.547   5.657  17.515  0.00  0.00    +0.000 A 
ENDROOT
BRANCH   1  12
ATOM     12  C   UNL     1       2.683   6.939  18.576  0.00  0.00    +0.000 C 
ATOM     13  O   UNL     1       2.562   6.990  19.798  0.00  0.00    +0.000 OA
BRANCH  12  15
ATOM     14  C   UNL     1       1.540   9.201  18.364  0.00  0.00    +0.000 C 
ATOM     15  C   UNL     1       2.406   8.151  17.697  0.00  0.00    +0.000 C 
ENDBRANCH  12  15
ENDBRANCH   1  12
BRANCH   2  16
ATOM     16  O   UNL     1       1.180   4.266  18.300  0.00  0.00    +0.000 OA
ATOM     17  C   UNL     1       1.017   3.644  19.569  0.00  0.00    +0.000 C 
ENDBRANCH   2  16
TORSDOF 3
ENDMDL
MODEL 9
REMARK VINA RESULT:      -6.7      2.323      5.295
REMARK  Name = 
REMARK  5 active torsions:
REMARK  status: ('A' for Active; 'I' for Inactive)
REMARK    1  A    between atoms: C_1  and  C_2
REMARK    2  A    between atoms: C_2  and  C_3
REMARK    3  A    between atoms: C_3  and  C_5
REMARK    4  A    between atoms: C_6  and  O_7
REMARK    5  A    between atoms: O_7  and  C_8
REMARK                            x       y       z     vdW  Elec       q    Type
REMARK                         _______ _______ _______ _____ _____    ______ ____
ROOT
ATOM      1  C   UNL     1       5.760   5.741  16.833  0.00  0.00    +0.000 A 
ATOM      2  C   UNL     1       6.872   6.342  17.451  0.00  0.00    +0.000 A 
ATOM      3  C   UNL     1       7.219   5.962  18.761  0.00  0.00    +0.000 A 
ATOM      4  C   UNL     1       6.482   5.010  19.471  0.00  0.00    +0.000 A 
ATOM      5  C   UNL     1       5.381   4.412  18.872  0.00  0.00    +0.000 A 
ATOM      6  C   UNL     1       4.601   3.385  19.558  0.00  0.00    +0.000 A 
ATOM      7  C   UNL     1       3.532   2.845  18.967  0.00  0.00    +0.000 A 
ATOM      8  C   UNL     1       3.105   3.237  17.621  0.00  0.00    +0.000 A 
ATOM      9  O   UNL     1       2.089   2.783  17.112  0.00  0.00    +0.000 OA
ATOM     10  O   UNL     1       3.925   4.138  16.965  0.00  0.00    +0.000 OA
ATOM     11  C   UNL     1       5.031   4.784  17.572  0.00  0.00    +0.000 A 
ENDROOT
BRANCH   1  12
ATOM     12  C   UNL     1       5.401   5.965  15.401  0.00  0.00    +0.000 C 
ATOM     13  O   UNL     1       4.950   7.055  15.056  0.00  0.00    +0.000 OA
BRANCH  12  15
ATOM     14  C   UNL     1       7.161   4.746  14.028  0.00  0.00    +0.000 C 
ATOM     15  C   UNL     1       5.693   4.868  14.386  0.00  0.00    +0.000 C 
ENDBRANCH  12  15
ENDBRANCH   1  12
BRANCH   2  16
ATOM     16  O   UNL     1       7.771   7.221  16.911  0.00  0.00    +0.000 OA
ATOM     17  C   UNL     1       7.983   8.451  17.595  0.00  0.00    +0.000 C 
ENDBRANCH   2  16
TORSDOF 3
ENDMDL
