MODEL 1
REMARK VINA RESULT:      -8.3      0.000      0.000
REMARK  Name = 
REMARK  1 active torsions:
REMARK  status: ('A' for Active; 'I' for Inactive)
REMARK    1  A    between atoms: C_4  and  C_5
REMARK                            x       y       z     vdW  Elec       q    Type
REMARK                         _______ _______ _______ _____ _____    ______ ____
ROOT
ATOM      1  O   UNL     1       0.455  12.520  18.566  0.00  0.00    +0.000 OA
ATOM      2  C   UNL     1       0.722  11.418  19.047  0.00  0.00    +0.000 A 
ATOM      3  C   UNL     1       0.293  11.060  20.406  0.00  0.00    +0.000 A 
ATOM      4  C   UNL     1       0.529   9.843  20.951  0.00  0.00    +0.000 A 
ATOM      5  C   UNL     1       1.231   8.790  20.156  0.00  0.00    +0.000 A 
ATOM      6  C   UNL     1       1.436   7.422  20.525  0.00  0.00    +0.000 A 
ATOM      7  C   UNL     1       2.078   6.494  19.658  0.00  0.00    +0.000 A 
ATOM      8  C   UNL     1       2.626   7.027  18.466  0.00  0.00    +0.000 A 
ATOM      9  C   UNL     1       2.424   8.346  18.077  0.00  0.00    +0.000 A 
ATOM     10  C   UNL     1       1.702   9.199  18.891  0.00  0.00    +0.000 A 
ATOM     11  N   UNL     1       1.435  10.475  18.383  0.00  0.00    +0.000 N 
ATOM     12  O   UNL     1       3.358   6.296  17.545  0.00  0.00    +0.000 OA
ATOM     13  C   UNL     1       3.531   4.923  17.919  0.00  0.00    +0.000 C 
ATOM     14  C   UNL     1       2.243   4.410  18.558  0.00  0.00    +0.000 C 
ATOM     15  C   UNL     1       2.106   2.903  18.561  0.00  0.00    +0.000 C 
ATOM     16  C   UNL     1       2.595   2.161  19.775  0.00  0.00    +0.000 C 
ATOM     17  C   UNL     1       2.603   2.933  21.085  0.00  0.00    +0.000 C 
ATOM     18  C   UNL     1       2.144   4.403  21.124  0.00  0.00    +0.000 C 
ATOM     19  N   UNL     1       2.096   5.093  19.846  0.00  0.00    +0.000 N 
ATOM     20  H   UNL     1       1.734  10.730  17.450  0.00  0.00    +0.000 HD
ENDROOT
BRANCH   4  21
ATOM     21  C   UNL     1       0.080   9.679  22.373  0.00  0.00    +0.000 C 
ATOM     22  F   UNL     1      -0.858   8.720  22.577  0.00  0.00    +0.000 F 
ATOM     23  F   UNL     1       1.132   9.365  23.179  0.00  0.00    +0.000 F 
ATOM     24  F   UNL     1      -0.435  10.837  22.864  0.00  0.00    +0.000 F 
ENDBRANCH   4  21
TORSDOF 1
ENDMDL
MODEL 2
REMARK VINA RESULT:      -8.2      6.407      8.466
REMARK  Name = 
REMARK  1 active torsions:
REMARK  status: ('A' for Active; 'I' for Inactive)
REMARK    1  A    between atoms: C_4  and  C_5
REMARK                            x       y       z     vdW  Elec       q    Type
REMARK                         _______ _______ _______ _____ _____    ______ ____
ROOT
ATOM      1  O   UNL     1       9.177   5.882  12.935  0.00  0.00    +0.000 OA
ATOM      2  C   UNL     1       8.146   5.456  13.458  0.00  0.00    +0.000 A 
ATOM      3  C   UNL     1       7.216   4.599  12.710  0.00  0.00    +0.000 A 
ATOM      4  C   UNL     1       6.097   4.076  13.265  0.00  0.00    +0.000 A 
ATOM      5  C   UNL     1       5.778   4.341  14.701  0.00  0.00    +0.000 A 
ATOM      6  C   UNL     1       4.722   3.760  15.474  0.00  0.00    +0.000 A 
ATOM      7  C   UNL     1       4.548   4.053  16.855  0.00  0.00    +0.000 A 
ATOM      8  C   UNL     1       5.391   5.055  17.394  0.00  0.00    +0.000 A 
ATOM      9  C   UNL     1       6.435   5.620  16.670  0.00  0.00    +0.000 A 
ATOM     10  C   UNL     1       6.648   5.236  15.359  0.00  0.00    +0.000 A 
ATOM     11  N   UNL     1       7.786   5.753  14.731  0.00  0.00    +0.000 N 
ATOM     12  O   UNL     1       5.311   5.532  18.692  0.00  0.00    +0.000 OA
ATOM     13  C   UNL     1       4.265   4.921  19.458  0.00  0.00    +0.000 C 
ATOM     14  C   UNL     1       4.187   3.437  19.107  0.00  0.00    +0.000 C 
ATOM     15  C   UNL     1       3.489   2.587  20.146  0.00  0.00    +0.000 C 
ATOM     16  C   UNL     1       2.012   2.349  19.974  0.00  0.00    +0.000 C 
ATOM     17  C   UNL     1       1.474   2.422  18.554  0.00  0.00    +0.000 C 
ATOM     18  C   UNL     1       2.418   2.743  17.380  0.00  0.00    +0.000 C 
ATOM     19  N   UNL     1       3.696   3.341  17.730  0.00  0.00    +0.000 N 
ATOM     20  H   UNL     1       8.428   6.349  15.239  0.00  0.00    +0.000 HD
ENDROOT
BRANCH   4  21
ATOM     21  C   UNL     1       5.230   3.282  12.334  0.00  0.00    +0.000 C 
ATOM     22  F   UNL     1       3.924   3.190  12.693  0.00  0.00    +0.000 F 
ATOM     23  F   UNL     1       5.246   3.819  11.082  0.00  0.00    +0.000 F 
ATOM     24  F   UNL     1       5.687   2.008  12.200  0.00  0.00    +0.000 F 
ENDBRANCH   4  21
TORSDOF 1
ENDMDL
MODEL 3
REMARK VINA RESULT:      -8.0      0.885      1.233
REMARK  Name = 
REMARK  1 active torsions:
REMARK  status: ('A' for Active; 'I' for Inactive)
REMARK    1  A    between atoms: C_4  and  C_5
REMARK                            x       y       z     vdW  Elec       q    Type
REMARK                         _______ _______ _______ _____ _____    ______ ____
ROOT
ATOM      1  O   UNL     1      -0.440  12.940  19.076  0.00  0.00    +0.000 OA
ATOM      2  C   UNL     1       0.013  11.843  19.406  0.00  0.00    +0.000 A 
ATOM      3  C   UNL     1      -0.327  11.241  20.702  0.00  0.00    +0.000 A 
ATOM      4  C   UNL     1       0.116  10.018  21.079  0.00  0.00    +0.000 A 
ATOM      5  C   UNL     1       0.966   9.210  20.152  0.00  0.00    +0.000 A 
ATOM      6  C   UNL     1       1.399   7.858  20.334  0.00  0.00    +0.000 A 
ATOM      7  C   UNL     1       2.168   7.172  19.352  0.00  0.00    +0.000 A 
ATOM      8  C   UNL     1       2.598   7.943  18.244  0.00  0.00    +0.000 A 
ATOM      9  C   UNL     1       2.176   9.250  18.036  0.00  0.00    +0.000 A 
ATOM     10  C   UNL     1       1.339   9.857  18.955  0.00  0.00    +0.000 A 
ATOM     11  N   UNL     1       0.857  11.127  18.622  0.00  0.00    +0.000 N 
ATOM     12  O   UNL     1       3.422   7.471  17.235  0.00  0.00    +0.000 OA
ATOM     13  C   UNL     1       3.825   6.108  17.422  0.00  0.00    +0.000 C 
ATOM     14  C   UNL     1       2.650   5.310  17.983  0.00  0.00    +0.000 C 
ATOM     15  C   UNL     1       2.762   3.814  17.782  0.00  0.00    +0.000 C 
ATOM     16  C   UNL     1       3.389   3.007  18.887  0.00  0.00    +0.000 C 
ATOM     17  C   UNL     1       3.296   3.589  20.288  0.00  0.00    +0.000 C 
ATOM     18  C   UNL     1       2.603   4.944  20.524  0.00  0.00    +0.000 C 
ATOM     19  N   UNL     1       2.418   5.781  19.350  0.00  0.00    +0.000 N 
ATOM     20  H   UNL     1       1.093  11.550  17.733  0.00  0.00    +0.000 HD
ENDROOT
BRANCH   4  21
ATOM     21  C   UNL     1      -0.273   9.594  22.464  0.00  0.00    +0.000 C 
ATOM     22  F   UNL     1       0.761   9.393  23.321  0.00  0.00    +0.000 F 
ATOM     23  F   UNL     1      -1.078  10.525  23.047  0.00  0.00    +0.000 F 
ATOM     24  F   UNL     1      -0.991   8.440  22.443  0.00  0.00    +0.000 F 
ENDBRANCH   4  21
TORSDOF 1
ENDMDL
MODEL 4
REMARK VINA RESULT:      -7.9      3.059      4.253
REMARK  Name = 
REMARK  1 active torsions:
REMARK  status: ('A' for Active; 'I' for Inactive)
REMARK    1  A    between atoms: C_4  and  C_5
REMARK                            x       y       z     vdW  Elec       q    Type
REMARK                         _______ _______ _______ _____ _____    ______ ____
ROOT
ATOM      1  O   UNL     1      -0.084   8.887  22.640  0.00  0.00    +0.000 OA
ATOM      2  C   UNL     1       0.533   8.558  21.625  0.00  0.00    +0.000 A 
ATOM      3  C   UNL     1       0.578   9.435  20.448  0.00  0.00    +0.000 A 
ATOM      4  C   UNL     1       1.283   9.127  19.333  0.00  0.00    +0.000 A 
ATOM      5  C   UNL     1       2.078   7.862  19.275  0.00  0.00    +0.000 A 
ATOM      6  C   UNL     1       2.979   7.455  18.240  0.00  0.00    +0.000 A 
ATOM      7  C   UNL     1       3.724   6.245  18.320  0.00  0.00    +0.000 A 
ATOM      8  C   UNL     1       3.424   5.397  19.414  0.00  0.00    +0.000 A 
ATOM      9  C   UNL     1       2.568   5.778  20.440  0.00  0.00    +0.000 A 
ATOM     10  C   UNL     1       1.940   7.008  20.390  0.00  0.00    +0.000 A 
ATOM     11  N   UNL     1       1.190   7.377  21.512  0.00  0.00    +0.000 N 
ATOM     12  O   UNL     1       3.983   4.145  19.611  0.00  0.00    +0.000 OA
ATOM     13  C   UNL     1       4.902   3.765  18.578  0.00  0.00    +0.000 C 
ATOM     14  C   UNL     1       5.715   4.986  18.155  0.00  0.00    +0.000 C 
ATOM     15  C   UNL     1       7.012   4.656  17.448  0.00  0.00    +0.000 C 
ATOM     16  C   UNL     1       6.988   4.583  15.945  0.00  0.00    +0.000 C 
ATOM     17  C   UNL     1       5.919   5.406  15.243  0.00  0.00    +0.000 C 
ATOM     18  C   UNL     1       4.919   6.243  16.062  0.00  0.00    +0.000 C 
ATOM     19  N   UNL     1       4.799   5.902  17.470  0.00  0.00    +0.000 N 
ATOM     20  H   UNL     1       1.149   6.774  22.324  0.00  0.00    +0.000 HD
ENDROOT
BRANCH   4  21
ATOM     21  C   UNL     1       1.158  10.107  18.204  0.00  0.00    +0.000 C 
ATOM     22  F   UNL     1       2.297  10.326  17.498  0.00  0.00    +0.000 F 
ATOM     23  F   UNL     1       0.223   9.691  17.305  0.00  0.00    +0.000 F 
ATOM     24  F   UNL     1       0.736  11.320  18.649  0.00  0.00    +0.000 F 
ENDBRANCH   4  21
TORSDOF 1
ENDMDL
MODEL 5
REMARK VINA RESULT:      -7.9      3.836      7.270
REMARK  Name = 
REMARK  1 active torsions:
REMARK  status: ('A' for Active; 'I' for Inactive)
REMARK    1  A    between atoms: C_4  and  C_5
REMARK                            x       y       z     vdW  Elec       q    Type
REMARK                         _______ _______ _______ _____ _____    ______ ____
ROOT
ATOM      1  O   UNL     1       3.884   2.067  18.506  0.00  0.00    +0.000 OA
ATOM      2  C   UNL     1       3.783   3.290  18.406  0.00  0.00    +0.000 A 
ATOM      3  C   UNL     1       4.447   4.020  17.317  0.00  0.00    +0.000 A 
ATOM      4  C   UNL     1       4.321   5.357  17.149  0.00  0.00    +0.000 A 
ATOM      5  C   UNL     1       3.459   6.152  18.078  0.00  0.00    +0.000 A 
ATOM      6  C   UNL     1       3.110   7.535  17.963  0.00  0.00    +0.000 A 
ATOM      7  C   UNL     1       2.235   8.172  18.886  0.00  0.00    +0.000 A 
ATOM      8  C   UNL     1       1.835   7.401  20.004  0.00  0.00    +0.000 A 
ATOM      9  C   UNL     1       2.145   6.052  20.129  0.00  0.00    +0.000 A 
ATOM     10  C   UNL     1       2.909   5.430  19.159  0.00  0.00    +0.000 A 
ATOM     11  N   UNL     1       3.080   4.047  19.285  0.00  0.00    +0.000 N 
ATOM     12  O   UNL     1       1.057   7.877  21.047  0.00  0.00    +0.000 OA
ATOM     13  C   UNL     1       0.696   9.257  20.901  0.00  0.00    +0.000 C 
ATOM     14  C   UNL     1       0.392   9.544  19.433  0.00  0.00    +0.000 C 
ATOM     15  C   UNL     1      -0.444  10.784  19.201  0.00  0.00    +0.000 C 
ATOM     16  C   UNL     1       0.283  12.077  18.945  0.00  0.00    +0.000 C 
ATOM     17  C   UNL     1       1.673  11.964  18.340  0.00  0.00    +0.000 C 
ATOM     18  C   UNL     1       2.280  10.581  18.037  0.00  0.00    +0.000 C 
ATOM     19  N   UNL     1       1.656   9.448  18.700  0.00  0.00    +0.000 N 
ATOM     20  H   UNL     1       2.631   3.540  20.037  0.00  0.00    +0.000 HD
ENDROOT
BRANCH   4  21
ATOM     21  C   UNL     1       5.125   5.942  16.026  0.00  0.00    +0.000 C 
ATOM     22  F   UNL     1       4.620   7.078  15.481  0.00  0.00    +0.000 F 
ATOM     23  F   UNL     1       6.387   6.244  16.441  0.00  0.00    +0.000 F 
ATOM     24  F   UNL     1       5.269   5.053  15.008  0.00  0.00    +0.000 F 
ENDBRANCH   4  21
TORSDOF 1
ENDMDL
MODEL 6
REMARK VINA RESULT:      -7.6      2.641      6.287
REMARK  Name = 
REMARK  1 active torsions:
REMARK  status: ('A' for Active; 'I' for Inactive)
REMARK    1  A    between atoms: C_4  and  C_5
REMARK                            x       y       z     vdW  Elec       q    Type
REMARK                         _______ _______ _______ _____ _____    ______ ____
ROOT
ATOM      1  O   UNL     1       5.055   3.887  17.122  0.00  0.00    +0.000 OA
ATOM      2  C   UNL     1       4.246   4.526  17.795  0.00  0.00    +0.000 A 
ATOM      3  C   UNL     1       3.645   3.951  19.007  0.00  0.00    +0.000 A 
ATOM      4  C   UNL     1       2.787   4.640  19.796  0.00  0.00    +0.000 A 
ATOM      5  C   UNL     1       2.434   6.055  19.463  0.00  0.00    +0.000 A 
ATOM      6  C   UNL     1       1.662   6.962  20.256  0.00  0.00    +0.000 A 
ATOM      7  C   UNL     1       1.434   8.309  19.857  0.00  0.00    +0.000 A 
ATOM      8  C   UNL     1       1.898   8.666  18.568  0.00  0.00    +0.000 A 
ATOM      9  C   UNL     1       2.666   7.810  17.788  0.00  0.00    +0.000 A 
ATOM     10  C   UNL     1       2.964   6.541  18.249  0.00  0.00    +0.000 A 
ATOM     11  N   UNL     1       3.840   5.779  17.469  0.00  0.00    +0.000 N 
ATOM     12  O   UNL     1       1.694   9.902  17.977  0.00  0.00    +0.000 OA
ATOM     13  C   UNL     1       0.940  10.805  18.796  0.00  0.00    +0.000 C 
ATOM     14  C   UNL     1       1.365  10.636  20.252  0.00  0.00    +0.000 C 
ATOM     15  C   UNL     1       1.026  11.814  21.140  0.00  0.00    +0.000 C 
ATOM     16  C   UNL     1      -0.284  11.775  21.880  0.00  0.00    +0.000 C 
ATOM     17  C   UNL     1      -0.852  10.397  22.182  0.00  0.00    +0.000 C 
ATOM     18  C   UNL     1      -0.106   9.130  21.723  0.00  0.00    +0.000 C 
ATOM     19  N   UNL     1       0.900   9.318  20.690  0.00  0.00    +0.000 N 
ATOM     20  H   UNL     1       4.252   6.167  16.630  0.00  0.00    +0.000 HD
ENDROOT
BRANCH   4  21
ATOM     21  C   UNL     1       2.219   3.871  20.951  0.00  0.00    +0.000 C 
ATOM     22  F   UNL     1       2.444   4.413  22.175  0.00  0.00    +0.000 F 
ATOM     23  F   UNL     1       0.869   3.743  20.830  0.00  0.00    +0.000 F 
ATOM     24  F   UNL     1       2.712   2.605  20.990  0.00  0.00    +0.000 F 
ENDBRANCH   4  21
TORSDOF 1
ENDMDL
MODEL 7
REMARK VINA RESULT:      -7.3      2.464      6.206
REMARK  Name = 
REMARK  1 active torsions:
REMARK  status: ('A' for Active; 'I' for Inactive)
REMARK    1  A    between atoms: C_4  and  C_5
REMARK                            x       y       z     vdW  Elec       q    Type
REMARK                         _______ _______ _______ _____ _____    ______ ____
ROOT
ATOM      1  O   UNL     1       4.810   5.031  16.757  0.00  0.00    +0.000 OA
ATOM      2  C   UNL     1       4.012   5.566  17.527  0.00  0.00    +0.000 A 
ATOM      3  C   UNL     1       3.536   4.871  18.731  0.00  0.00    +0.000 A 
ATOM      4  C   UNL     1       2.695   5.445  19.623  0.00  0.00    +0.000 A 
ATOM      5  C   UNL     1       2.231   6.851  19.418  0.00  0.00    +0.000 A 
ATOM      6  C   UNL     1       1.461   7.648  20.324  0.00  0.00    +0.000 A 
ATOM      7  C   UNL     1       1.120   9.000  20.039  0.00  0.00    +0.000 A 
ATOM      8  C   UNL     1       1.468   9.475  18.751  0.00  0.00    +0.000 A 
ATOM      9  C   UNL     1       2.232   8.728  17.862  0.00  0.00    +0.000 A 
ATOM     10  C   UNL     1       2.641   7.454  18.209  0.00  0.00    +0.000 A 
ATOM     11  N   UNL     1       3.506   6.808  17.320  0.00  0.00    +0.000 N 
ATOM     12  O   UNL     1       1.145  10.731  18.266  0.00  0.00    +0.000 OA
ATOM     13  C   UNL     1       0.395  11.524  19.196  0.00  0.00    +0.000 C 
ATOM     14  C   UNL     1       0.932  11.285  20.605  0.00  0.00    +0.000 C 
ATOM     15  C   UNL     1       0.584  12.374  21.597  0.00  0.00    +0.000 C 
ATOM     16  C   UNL     1      -0.665  12.196  22.417  0.00  0.00    +0.000 C 
ATOM     17  C   UNL     1      -1.122  10.765  22.656  0.00  0.00    +0.000 C 
ATOM     18  C   UNL     1      -0.331   9.586  22.058  0.00  0.00    +0.000 C 
ATOM     19  N   UNL     1       0.584   9.912  20.977  0.00  0.00    +0.000 N 
ATOM     20  H   UNL     1       3.831   7.279  16.486  0.00  0.00    +0.000 HD
ENDROOT
BRANCH   4  21
ATOM     21  C   UNL     1       2.260   4.562  20.755  0.00  0.00    +0.000 C 
ATOM     22  F   UNL     1       0.930   4.299  20.807  0.00  0.00    +0.000 F 
ATOM     23  F   UNL     1       2.888   3.355  20.695  0.00  0.00    +0.000 F 
ATOM     24  F   UNL     1       2.598   5.100  21.957  0.00  0.00    +0.000 F 
ENDBRANCH   4  21
TORSDOF 1
ENDMDL
MODEL 8
REMARK VINA RESULT:      -7.2      3.466      7.072
REMARK  Name = 
REMARK  1 active torsions:
REMARK  status: ('A' for Active; 'I' for Inactive)
REMARK    1  A    between atoms: C_4  and  C_5
REMARK                            x       y       z     vdW  Elec       q    Type
REMARK                         _______ _______ _______ _____ _____    ______ ____
ROOT
ATOM      1  O   UNL     1       3.465   2.609  19.550  0.00  0.00    +0.000 OA
ATOM      2  C   UNL     1       3.336   3.820  19.362  0.00  0.00    +0.000 A 
ATOM      3  C   UNL     1       4.027   4.492  18.253  0.00  0.00    +0.000 A 
ATOM      4  C   UNL     1       3.873   5.811  17.988  0.00  0.00    +0.000 A 
ATOM      5  C   UNL     1       2.952   6.641  18.823  0.00  0.00    +0.000 A 
ATOM      6  C   UNL     1       2.572   8.002  18.598  0.00  0.00    +0.000 A 
ATOM      7  C   UNL     1       1.641   8.676  19.439  0.00  0.00    +0.000 A 
ATOM      8  C   UNL     1       1.214   7.971  20.590  0.00  0.00    +0.000 A 
ATOM      9  C   UNL     1       1.554   6.643  20.821  0.00  0.00    +0.000 A 
ATOM     10  C   UNL     1       2.375   5.979  19.928  0.00  0.00    +0.000 A 
ATOM     11  N   UNL     1       2.577   4.614  20.157  0.00  0.00    +0.000 N 
ATOM     12  O   UNL     1       0.380   8.494  21.564  0.00  0.00    +0.000 OA
ATOM     13  C   UNL     1      -0.011   9.850  21.309  0.00  0.00    +0.000 C 
ATOM     14  C   UNL     1      -0.259  10.027  19.814  0.00  0.00    +0.000 C 
ATOM     15  C   UNL     1      -1.117  11.223  19.462  0.00  0.00    +0.000 C 
ATOM     16  C   UNL     1      -0.414  12.516  19.146  0.00  0.00    +0.000 C 
ATOM     17  C   UNL     1       1.004  12.403  18.608  0.00  0.00    +0.000 C 
ATOM     18  C   UNL     1       1.660  11.022  18.427  0.00  0.00    +0.000 C 
ATOM     19  N   UNL     1       1.038   9.919  19.141  0.00  0.00    +0.000 N 
ATOM     20  H   UNL     1       2.109   4.146  20.923  0.00  0.00    +0.000 HD
ENDROOT
BRANCH   4  21
ATOM     21  C   UNL     1       4.709   6.341  16.861  0.00  0.00    +0.000 C 
ATOM     22  F   UNL     1       5.895   6.891  17.227  0.00  0.00    +0.000 F 
ATOM     23  F   UNL     1       5.003   5.352  15.971  0.00  0.00    +0.000 F 
ATOM     24  F   UNL     1       4.040   7.292  16.156  0.00  0.00    +0.000 F 
ENDBRANCH   4  21
TORSDOF 1
ENDMDL
MODEL 9
REMARK VINA RESULT:      -6.9      3.258      7.054
REMARK  Name = 
REMARK  1 active torsions:
REMARK  status: ('A' for Active; 'I' for Inactive)
REMARK    1  A    between atoms: C_4  and  C_5
REMARK                            x       y       z     vdW  Elec       q    Type
REMARK                         _______ _______ _______ _____ _____    ______ ____
ROOT
ATOM      1  O   UNL     1       2.842   3.247  20.417  0.00  0.00    +0.000 OA
ATOM      2  C   UNL     1       2.742   4.437  20.113  0.00  0.00    +0.000 A 
ATOM      3  C   UNL     1       3.424   4.978  18.930  0.00  0.00    +0.000 A 
ATOM      4  C   UNL     1       3.300   6.268  18.540  0.00  0.00    +0.000 A 
ATOM      5  C   UNL     1       2.420   7.202  19.308  0.00  0.00    +0.000 A 
ATOM      6  C   UNL     1       2.071   8.545  18.958  0.00  0.00    +0.000 A 
ATOM      7  C   UNL     1       1.178   9.324  19.747  0.00  0.00    +0.000 A 
ATOM      8  C   UNL     1       0.759   8.747  20.970  0.00  0.00    +0.000 A 
ATOM      9  C   UNL     1       1.068   7.439  21.323  0.00  0.00    +0.000 A 
ATOM     10  C   UNL     1       1.851   6.668  20.484  0.00  0.00    +0.000 A 
ATOM     11  N   UNL     1       2.022   5.326  20.841  0.00  0.00    +0.000 N 
ATOM     12  O   UNL     1      -0.039   9.386  21.905  0.00  0.00    +0.000 OA
ATOM     13  C   UNL     1      -0.399  10.721  21.525  0.00  0.00    +0.000 C 
ATOM     14  C   UNL     1      -0.676  10.759  20.025  0.00  0.00    +0.000 C 
ATOM     15  C   UNL     1      -1.510  11.940  19.575  0.00  0.00    +0.000 C 
ATOM     16  C   UNL     1      -0.780  13.175  19.120  0.00  0.00    +0.000 C 
ATOM     17  C   UNL     1       0.622  12.969  18.567  0.00  0.00    +0.000 C 
ATOM     18  C   UNL     1       1.236  11.558  18.510  0.00  0.00    +0.000 C 
ATOM     19  N   UNL     1       0.602  10.549  19.341  0.00  0.00    +0.000 N 
ATOM     20  H   UNL     1       1.559   4.949  21.659  0.00  0.00    +0.000 HD
ENDROOT
BRANCH   4  21
ATOM     21  C   UNL     1       4.124   6.662  17.350  0.00  0.00    +0.000 C 
ATOM     22  F   UNL     1       3.602   7.655  16.586  0.00  0.00    +0.000 F 
ATOM     23  F   UNL     1       5.360   7.084  17.736  0.00  0.00    +0.000 F 
ATOM     24  F   UNL     1       4.332   5.603  16.523  0.00  0.00    +0.000 F 
ENDBRANCH   4  21
TORSDOF 1
ENDMDL
