MODEL 1
REMARK VINA RESULT:      -7.8      0.000      0.000
REMARK  Name = 
REMARK  9 active torsions:
REMARK  status: ('A' for Active; 'I' for Inactive)
REMARK    1  A    between atoms: C_1  and  C_2
REMARK    2  A    between atoms: N_4  and  C_5
REMARK    3  A    between atoms: C_8  and  C_9
REMARK    4  A    between atoms: C_13  and  C_14
REMARK    5  A    between atoms: N_16  and  C_17
REMARK    6  A    between atoms: C_22  and  C_23
REMARK    7  A    between atoms: N_25  and  C_26
REMARK    8  A    between atoms: C_26  and  C_27
REMARK    9  A    between atoms: C_26  and  C_28
REMARK                            x       y       z     vdW  Elec       q    Type
REMARK                         _______ _______ _______ _____ _____    ______ ____
ROOT
ATOM      1  C   UNL     1       1.471   8.505  19.156  0.00  0.00    +0.000 C 
ATOM      2  O   UNL     1       0.946   8.143  18.109  0.00  0.00    +0.000 OA
ATOM      3  N   UNL     1       2.230   7.661  19.962  0.00  0.00    +0.000 N 
ATOM      4  H   UNL     1       2.094   7.862  20.949  0.00  0.00    +0.000 HD
ENDROOT
BRANCH   1  14
ATOM      5  C   UNL     1      -0.588   8.481  21.971  0.00  0.00    +0.000 C 
ATOM      6  C   UNL     1      -0.160   9.874  21.676  0.00  0.00    +0.000 A 
ATOM      7  N   UNL     1      -0.617  10.852  22.471  0.00  0.00    +0.000 NA
ATOM      8  N   UNL     1      -0.147  11.979  21.910  0.00  0.00    +0.000 N 
ATOM      9  C   UNL     1      -0.551  13.260  22.432  0.00  0.00    +0.000 C 
ATOM     10  C   UNL     1       0.636  11.762  20.810  0.00  0.00    +0.000 A 
ATOM     11  N   UNL     1       1.202  12.712  20.038  0.00  0.00    +0.000 NA
ATOM     12  C   UNL     1       1.868  12.251  18.954  0.00  0.00    +0.000 A 
ATOM     13  C   UNL     1       2.018  10.887  18.696  0.00  0.00    +0.000 A 
ATOM     14  C   UNL     1       1.430   9.929  19.538  0.00  0.00    +0.000 A 
ATOM     15  C   UNL     1       0.675  10.384  20.632  0.00  0.00    +0.000 A 
BRANCH  12  16
ATOM     16  C   UNL     1       2.353  13.266  17.939  0.00  0.00    +0.000 C 
ATOM     17  C   UNL     1       2.334  14.742  18.247  0.00  0.00    +0.000 C 
ATOM     18  C   UNL     1       3.645  14.022  18.154  0.00  0.00    +0.000 C 
ENDBRANCH  12  16
ENDBRANCH   1  14
BRANCH   3  19
ATOM     19  C   UNL     1       2.220   6.279  19.632  0.00  0.00    +0.000 A 
ATOM     20  C   UNL     1       1.359   5.470  20.395  0.00  0.00    +0.000 A 
ATOM     21  C   UNL     1       1.177   4.126  20.082  0.00  0.00    +0.000 A 
ATOM     22  C   UNL     1       1.887   3.559  19.027  0.00  0.00    +0.000 A 
ATOM     23  C   UNL     1       2.785   4.340  18.297  0.00  0.00    +0.000 A 
ATOM     24  C   UNL     1       2.967   5.710  18.573  0.00  0.00    +0.000 A 
BRANCH  24  25
ATOM     25  C   UNL     1       4.016   6.387  17.736  0.00  0.00    +0.000 C 
ATOM     26  O   UNL     1       3.976   7.604  17.584  0.00  0.00    +0.000 OA
ATOM     27  N   UNL     1       5.014   5.615  17.189  0.00  0.00    +0.000 N 
ATOM     28  H   UNL     1       5.006   4.631  17.368  0.00  0.00    +0.000 HD
BRANCH  27  29
ATOM     29  C   UNL     1       6.106   6.152  16.396  0.00  0.00    +0.000 C 
ATOM     30  C   UNL     1       7.385   6.228  17.239  0.00  0.00    +0.000 C 
BRANCH  29  31
ATOM     31  C   UNL     1       6.274   5.346  15.117  0.00  0.00    +0.000 A 
ATOM     32  C   UNL     1       5.310   4.378  14.792  0.00  0.00    +0.000 A 
ATOM     33  C   UNL     1       5.421   3.616  13.627  0.00  0.00    +0.000 A 
ATOM     34  C   UNL     1       6.502   3.803  12.772  0.00  0.00    +0.000 A 
ATOM     35  C   UNL     1       7.476   4.746  13.086  0.00  0.00    +0.000 A 
ATOM     36  C   UNL     1       7.368   5.507  14.253  0.00  0.00    +0.000 A 
ENDBRANCH  29  31
ENDBRANCH  27  29
ENDBRANCH  24  25
ENDBRANCH   3  19
TORSDOF 6
ENDMDL
MODEL 2
REMARK VINA RESULT:      -7.8      3.381      9.118
REMARK  Name = 
REMARK  9 active torsions:
REMARK  status: ('A' for Active; 'I' for Inactive)
REMARK    1  A    between atoms: C_1  and  C_2
REMARK    2  A    between atoms: N_4  and  C_5
REMARK    3  A    between atoms: C_8  and  C_9
REMARK    4  A    between atoms: C_13  and  C_14
REMARK    5  A    between atoms: N_16  and  C_17
REMARK    6  A    between atoms: C_22  and  C_23
REMARK    7  A    between atoms: N_25  and  C_26
REMARK    8  A    between atoms: C_26  and  C_27
REMARK    9  A    between atoms: C_26  and  C_28
REMARK                            x       y       z     vdW  Elec       q    Type
REMARK                         _______ _______ _______ _____ _____    ______ ____
ROOT
ATOM      1  C   UNL     1       1.947   6.898  20.003  0.00  0.00    +0.000 C 
ATOM      2  O   UNL     1       1.755   6.416  21.113  0.00  0.00    +0.000 OA
ATOM      3  N   UNL     1       1.633   8.215  19.677  0.00  0.00    +0.000 N 
ATOM      4  H   UNL     1       1.296   8.295  18.722  0.00  0.00    +0.000 HD
ENDROOT
BRANCH   1  14
ATOM      5  C   UNL     1       0.890   3.638  20.654  0.00  0.00    +0.000 C 
ATOM      6  C   UNL     1       1.850   3.636  19.520  0.00  0.00    +0.000 A 
ATOM      7  N   UNL     1       2.163   2.455  18.965  0.00  0.00    +0.000 NA
ATOM      8  N   UNL     1       3.101   2.758  18.052  0.00  0.00    +0.000 N 
ATOM      9  C   UNL     1       3.772   1.702  17.338  0.00  0.00    +0.000 C 
ATOM     10  C   UNL     1       3.371   4.096  17.962  0.00  0.00    +0.000 A 
ATOM     11  N   UNL     1       4.290   4.669  17.159  0.00  0.00    +0.000 NA
ATOM     12  C   UNL     1       4.430   6.006  17.307  0.00  0.00    +0.000 A 
ATOM     13  C   UNL     1       3.629   6.747  18.178  0.00  0.00    +0.000 A 
ATOM     14  C   UNL     1       2.667   6.114  18.982  0.00  0.00    +0.000 A 
ATOM     15  C   UNL     1       2.550   4.717  18.896  0.00  0.00    +0.000 A 
BRANCH  12  16
ATOM     16  C   UNL     1       5.580   6.680  16.586  0.00  0.00    +0.000 C 
ATOM     17  C   UNL     1       6.728   7.288  17.352  0.00  0.00    +0.000 C 
ATOM     18  C   UNL     1       6.951   6.044  16.547  0.00  0.00    +0.000 C 
ENDBRANCH  12  16
ENDBRANCH   1  14
BRANCH   3  19
ATOM     19  C   UNL     1       0.885   8.952  20.634  0.00  0.00    +0.000 A 
ATOM     20  C   UNL     1       1.214   8.724  21.982  0.00  0.00    +0.000 A 
ATOM     21  C   UNL     1       0.631   9.477  22.997  0.00  0.00    +0.000 A 
ATOM     22  C   UNL     1      -0.321  10.442  22.683  0.00  0.00    +0.000 A 
ATOM     23  C   UNL     1      -0.694  10.641  21.352  0.00  0.00    +0.000 A 
ATOM     24  C   UNL     1      -0.099   9.913  20.301  0.00  0.00    +0.000 A 
BRANCH  24  25
ATOM     25  C   UNL     1      -0.661  10.204  18.938  0.00  0.00    +0.000 C 
ATOM     26  O   UNL     1       0.022   9.981  17.943  0.00  0.00    +0.000 OA
ATOM     27  N   UNL     1      -1.946  10.687  18.849  0.00  0.00    +0.000 N 
ATOM     28  H   UNL     1      -2.460  10.827  19.695  0.00  0.00    +0.000 HD
BRANCH  27  29
ATOM     29  C   UNL     1      -2.615  10.970  17.592  0.00  0.00    +0.000 C 
ATOM     30  C   UNL     1      -2.754   9.685  16.766  0.00  0.00    +0.000 C 
BRANCH  29  31
ATOM     31  C   UNL     1      -3.942  11.669  17.847  0.00  0.00    +0.000 A 
ATOM     32  C   UNL     1      -4.223  12.143  19.139  0.00  0.00    +0.000 A 
ATOM     33  C   UNL     1      -5.426  12.794  19.420  0.00  0.00    +0.000 A 
ATOM     34  C   UNL     1      -6.372  12.973  18.416  0.00  0.00    +0.000 A 
ATOM     35  C   UNL     1      -6.118  12.495  17.134  0.00  0.00    +0.000 A 
ATOM     36  C   UNL     1      -4.916  11.841  16.853  0.00  0.00    +0.000 A 
ENDBRANCH  29  31
ENDBRANCH  27  29
ENDBRANCH  24  25
ENDBRANCH   3  19
TORSDOF 6
ENDMDL
MODEL 3
REMARK VINA RESULT:      -7.7      5.705     11.143
REMARK  Name = 
REMARK  9 active torsions:
REMARK  status: ('A' for Active; 'I' for Inactive)
REMARK    1  A    between atoms: C_1  and  C_2
REMARK    2  A    between atoms: N_4  and  C_5
REMARK    3  A    between atoms: C_8  and  C_9
REMARK    4  A    between atoms: C_13  and  C_14
REMARK    5  A    between atoms: N_16  and  C_17
REMARK    6  A    between atoms: C_22  and  C_23
REMARK    7  A    between atoms: N_25  and  C_26
REMARK    8  A    between atoms: C_26  and  C_27
REMARK    9  A    between atoms: C_26  and  C_28
REMARK                            x       y       z     vdW  Elec       q    Type
REMARK                         _______ _______ _______ _____ _____    ______ ____
ROOT
ATOM      1  C   UNL     1      -2.909  13.498  20.916  0.00  0.00    +0.000 C 
ATOM      2  O   UNL     1      -2.957  14.656  20.517  0.00  0.00    +0.000 OA
ATOM      3  N   UNL     1      -3.477  13.079  22.117  0.00  0.00    +0.000 N 
ATOM      4  H   UNL     1      -2.913  12.366  22.570  0.00  0.00    +0.000 HD
ENDROOT
BRANCH   1  14
ATOM      5  C   UNL     1       0.493  13.605  21.675  0.00  0.00    +0.000 C 
ATOM      6  C   UNL     1       0.244  12.570  20.638  0.00  0.00    +0.000 A 
ATOM      7  N   UNL     1       1.299  11.891  20.164  0.00  0.00    +0.000 NA
ATOM      8  N   UNL     1       0.783  11.114  19.196  0.00  0.00    +0.000 N 
ATOM      9  C   UNL     1       1.659  10.326  18.368  0.00  0.00    +0.000 C 
ATOM     10  C   UNL     1      -0.573  11.231  19.060  0.00  0.00    +0.000 A 
ATOM     11  N   UNL     1      -1.339  10.598  18.148  0.00  0.00    +0.000 NA
ATOM     12  C   UNL     1      -2.647  10.938  18.159  0.00  0.00    +0.000 A 
ATOM     13  C   UNL     1      -3.179  11.826  19.095  0.00  0.00    +0.000 A 
ATOM     14  C   UNL     1      -2.351  12.448  20.045  0.00  0.00    +0.000 A 
ATOM     15  C   UNL     1      -0.975  12.164  20.009  0.00  0.00    +0.000 A 
BRANCH  12  16
ATOM     16  C   UNL     1      -3.521  10.420  17.035  0.00  0.00    +0.000 C 
ATOM     17  C   UNL     1      -4.443  11.343  16.279  0.00  0.00    +0.000 C 
ATOM     18  C   UNL     1      -3.232  10.785  15.596  0.00  0.00    +0.000 C 
ENDBRANCH  12  16
ENDBRANCH   1  14
BRANCH   3  19
ATOM     19  C   UNL     1      -3.959  14.094  22.988  0.00  0.00    +0.000 A 
ATOM     20  C   UNL     1      -3.016  14.646  23.872  0.00  0.00    +0.000 A 
ATOM     21  C   UNL     1      -3.345  15.727  24.685  0.00  0.00    +0.000 A 
ATOM     22  C   UNL     1      -4.636  16.246  24.655  0.00  0.00    +0.000 A 
ATOM     23  C   UNL     1      -5.595  15.672  23.819  0.00  0.00    +0.000 A 
ATOM     24  C   UNL     1      -5.282  14.596  22.965  0.00  0.00    +0.000 A 
BRANCH  24  25
ATOM     25  C   UNL     1      -6.445  14.057  22.180  0.00  0.00    +0.000 C 
ATOM     26  O   UNL     1      -7.556  14.013  22.699  0.00  0.00    +0.000 OA
ATOM     27  N   UNL     1      -6.229  13.657  20.881  0.00  0.00    +0.000 N 
ATOM     28  H   UNL     1      -5.305  13.739  20.506  0.00  0.00    +0.000 HD
BRANCH  27  29
ATOM     29  C   UNL     1      -7.275  13.158  20.007  0.00  0.00    +0.000 C 
ATOM     30  C   UNL     1      -7.119  13.752  18.602  0.00  0.00    +0.000 C 
BRANCH  29  31
ATOM     31  C   UNL     1      -7.290  11.636  20.021  0.00  0.00    +0.000 A 
ATOM     32  C   UNL     1      -7.877  10.971  21.110  0.00  0.00    +0.000 A 
ATOM     33  C   UNL     1      -7.917   9.577  21.163  0.00  0.00    +0.000 A 
ATOM     34  C   UNL     1      -7.363   8.823  20.133  0.00  0.00    +0.000 A 
ATOM     35  C   UNL     1      -6.763   9.464  19.054  0.00  0.00    +0.000 A 
ATOM     36  C   UNL     1      -6.719  10.860  19.001  0.00  0.00    +0.000 A 
ENDBRANCH  29  31
ENDBRANCH  27  29
ENDBRANCH  24  25
ENDBRANCH   3  19
TORSDOF 6
ENDMDL
MODEL 4
REMARK VINA RESULT:      -7.7      6.038      9.617
REMARK  Name = 
REMARK  9 active torsions:
REMARK  status: ('A' for Active; 'I' for Inactive)
REMARK    1  A    between atoms: C_1  and  C_2
REMARK    2  A    between atoms: N_4  and  C_5
REMARK    3  A    between atoms: C_8  and  C_9
REMARK    4  A    between atoms: C_13  and  C_14
REMARK    5  A    between atoms: N_16  and  C_17
REMARK    6  A    between atoms: C_22  and  C_23
REMARK    7  A    between atoms: N_25  and  C_26
REMARK    8  A    between atoms: C_26  and  C_27
REMARK    9  A    between atoms: C_26  and  C_28
REMARK                            x       y       z     vdW  Elec       q    Type
REMARK                         _______ _______ _______ _____ _____    ______ ____
ROOT
ATOM      1  C   UNL     1      -3.140  13.373  21.862  0.00  0.00    +0.000 C 
ATOM      2  O   UNL     1      -3.528  14.296  21.155  0.00  0.00    +0.000 OA
ATOM      3  N   UNL     1      -3.997  12.577  22.618  0.00  0.00    +0.000 N 
ATOM      4  H   UNL     1      -3.577  12.312  23.505  0.00  0.00    +0.000 HD
ENDROOT
BRANCH   1  14
ATOM      5  C   UNL     1      -1.595  16.166  20.454  0.00  0.00    +0.000 C 
ATOM      6  C   UNL     1      -0.578  15.119  20.733  0.00  0.00    +0.000 A 
ATOM      7  N   UNL     1       0.696  15.378  20.403  0.00  0.00    +0.000 NA
ATOM      8  N   UNL     1       1.347  14.236  20.681  0.00  0.00    +0.000 N 
ATOM      9  C   UNL     1       2.738  14.102  20.329  0.00  0.00    +0.000 C 
ATOM     10  C   UNL     1       0.551  13.265  21.222  0.00  0.00    +0.000 A 
ATOM     11  N   UNL     1       0.936  12.017  21.558  0.00  0.00    +0.000 NA
ATOM     12  C   UNL     1      -0.054  11.209  22.002  0.00  0.00    +0.000 A 
ATOM     13  C   UNL     1      -1.365  11.659  22.167  0.00  0.00    +0.000 A 
ATOM     14  C   UNL     1      -1.721  12.974  21.826  0.00  0.00    +0.000 A 
ATOM     15  C   UNL     1      -0.724  13.812  21.298  0.00  0.00    +0.000 A 
BRANCH  12  16
ATOM     16  C   UNL     1       0.269   9.742  22.203  0.00  0.00    +0.000 C 
ATOM     17  C   UNL     1      -0.644   8.666  21.671  0.00  0.00    +0.000 C 
ATOM     18  C   UNL     1       0.699   8.876  21.041  0.00  0.00    +0.000 C 
ENDBRANCH  12  16
ENDBRANCH   1  14
BRANCH   3  19
ATOM     19  C   UNL     1      -5.352  12.995  22.705  0.00  0.00    +0.000 A 
ATOM     20  C   UNL     1      -5.686  13.769  23.831  0.00  0.00    +0.000 A 
ATOM     21  C   UNL     1      -6.952  14.334  23.959  0.00  0.00    +0.000 A 
ATOM     22  C   UNL     1      -7.916  14.099  22.984  0.00  0.00    +0.000 A 
ATOM     23  C   UNL     1      -7.612  13.289  21.889  0.00  0.00    +0.000 A 
ATOM     24  C   UNL     1      -6.329  12.728  21.719  0.00  0.00    +0.000 A 
BRANCH  24  25
ATOM     25  C   UNL     1      -6.190  11.831  20.520  0.00  0.00    +0.000 C 
ATOM     26  O   UNL     1      -6.828  10.784  20.472  0.00  0.00    +0.000 OA
ATOM     27  N   UNL     1      -5.368  12.234  19.494  0.00  0.00    +0.000 N 
ATOM     28  H   UNL     1      -4.892  13.109  19.581  0.00  0.00    +0.000 HD
BRANCH  27  29
ATOM     29  C   UNL     1      -5.180  11.478  18.268  0.00  0.00    +0.000 C 
ATOM     30  C   UNL     1      -5.757  12.251  17.076  0.00  0.00    +0.000 C 
BRANCH  29  31
ATOM     31  C   UNL     1      -3.714  11.112  18.095  0.00  0.00    +0.000 A 
ATOM     32  C   UNL     1      -3.381   9.970  17.347  0.00  0.00    +0.000 A 
ATOM     33  C   UNL     1      -2.049   9.598  17.159  0.00  0.00    +0.000 A 
ATOM     34  C   UNL     1      -1.027  10.354  17.724  0.00  0.00    +0.000 A 
ATOM     35  C   UNL     1      -1.337  11.478  18.483  0.00  0.00    +0.000 A 
ATOM     36  C   UNL     1      -2.671  11.850  18.674  0.00  0.00    +0.000 A 
ENDBRANCH  29  31
ENDBRANCH  27  29
ENDBRANCH  24  25
ENDBRANCH   3  19
TORSDOF 6
ENDMDL
MODEL 5
REMARK VINA RESULT:      -7.6      1.728      3.571
REMARK  Name = 
REMARK  9 active torsions:
REMARK  status: ('A' for Active; 'I' for Inactive)
REMARK    1  A    between atoms: C_1  and  C_2
REMARK    2  A    between atoms: N_4  and  C_5
REMARK    3  A    between atoms: C_8  and  C_9
REMARK    4  A    between atoms: C_13  and  C_14
REMARK    5  A    between atoms: N_16  and  C_17
REMARK    6  A    between atoms: C_22  and  C_23
REMARK    7  A    between atoms: N_25  and  C_26
REMARK    8  A    between atoms: C_26  and  C_27
REMARK    9  A    between atoms: C_26  and  C_28
REMARK                            x       y       z     vdW  Elec       q    Type
REMARK                         _______ _______ _______ _____ _____    ______ ____
ROOT
ATOM      1  C   UNL     1       1.824   6.142  20.104  0.00  0.00    +0.000 C 
ATOM      2  O   UNL     1       2.173   5.578  21.134  0.00  0.00    +0.000 OA
ATOM      3  N   UNL     1       1.632   5.475  18.896  0.00  0.00    +0.000 N 
ATOM      4  H   UNL     1       1.923   6.043  18.104  0.00  0.00    +0.000 HD
ENDROOT
BRANCH   1  14
ATOM      5  C   UNL     1       3.247   7.384  17.172  0.00  0.00    +0.000 C 
ATOM      6  C   UNL     1       2.566   8.484  17.902  0.00  0.00    +0.000 A 
ATOM      7  N   UNL     1       2.615   9.715  17.371  0.00  0.00    +0.000 NA
ATOM      8  N   UNL     1       2.008  10.492  18.284  0.00  0.00    +0.000 N 
ATOM      9  C   UNL     1       1.987  11.921  18.105  0.00  0.00    +0.000 C 
ATOM     10  C   UNL     1       1.526   9.802  19.362  0.00  0.00    +0.000 A 
ATOM     11  N   UNL     1       0.911  10.336  20.437  0.00  0.00    +0.000 NA
ATOM     12  C   UNL     1       0.596   9.458  21.415  0.00  0.00    +0.000 A 
ATOM     13  C   UNL     1       0.827   8.087  21.289  0.00  0.00    +0.000 A 
ATOM     14  C   UNL     1       1.451   7.568  20.143  0.00  0.00    +0.000 A 
ATOM     15  C   UNL     1       1.851   8.469  19.142  0.00  0.00    +0.000 A 
BRANCH  12  16
ATOM     16  C   UNL     1       0.089  10.016  22.730  0.00  0.00    +0.000 C 
ATOM     17  C   UNL     1      -0.775  11.252  22.767  0.00  0.00    +0.000 C 
ATOM     18  C   UNL     1      -1.374   9.920  23.101  0.00  0.00    +0.000 C 
ENDBRANCH  12  16
ENDBRANCH   1  14
BRANCH   3  19
ATOM     19  C   UNL     1       2.049   4.119  18.837  0.00  0.00    +0.000 A 
ATOM     20  C   UNL     1       1.098   3.164  19.239  0.00  0.00    +0.000 A 
ATOM     21  C   UNL     1       1.354   1.802  19.109  0.00  0.00    +0.000 A 
ATOM     22  C   UNL     1       2.582   1.373  18.615  0.00  0.00    +0.000 A 
ATOM     23  C   UNL     1       3.553   2.311  18.262  0.00  0.00    +0.000 A 
ATOM     24  C   UNL     1       3.311   3.697  18.356  0.00  0.00    +0.000 A 
BRANCH  24  25
ATOM     25  C   UNL     1       4.484   4.566  17.998  0.00  0.00    +0.000 C 
ATOM     26  O   UNL     1       4.880   5.407  18.799  0.00  0.00    +0.000 OA
ATOM     27  N   UNL     1       5.101   4.365  16.785  0.00  0.00    +0.000 N 
ATOM     28  H   UNL     1       4.746   3.648  16.185  0.00  0.00    +0.000 HD
BRANCH  27  29
ATOM     29  C   UNL     1       6.265   5.110  16.340  0.00  0.00    +0.000 C 
ATOM     30  C   UNL     1       7.459   4.825  17.260  0.00  0.00    +0.000 C 
BRANCH  29  31
ATOM     31  C   UNL     1       6.550   4.816  14.875  0.00  0.00    +0.000 A 
ATOM     32  C   UNL     1       5.741   3.889  14.197  0.00  0.00    +0.000 A 
ATOM     33  C   UNL     1       5.962   3.591  12.852  0.00  0.00    +0.000 A 
ATOM     34  C   UNL     1       7.003   4.206  12.163  0.00  0.00    +0.000 A 
ATOM     35  C   UNL     1       7.826   5.114  12.822  0.00  0.00    +0.000 A 
ATOM     36  C   UNL     1       7.607   5.411  14.170  0.00  0.00    +0.000 A 
ENDBRANCH  29  31
ENDBRANCH  27  29
ENDBRANCH  24  25
ENDBRANCH   3  19
TORSDOF 6
ENDMDL
MODEL 6
REMARK VINA RESULT:      -7.4      2.104      8.256
REMARK  Name = 
REMARK  9 active torsions:
REMARK  status: ('A' for Active; 'I' for Inactive)
REMARK    1  A    between atoms: C_1  and  C_2
REMARK    2  A    between atoms: N_4  and  C_5
REMARK    3  A    between atoms: C_8  and  C_9
REMARK    4  A    between atoms: C_13  and  C_14
REMARK    5  A    between atoms: N_16  and  C_17
REMARK    6  A    between atoms: C_22  and  C_23
REMARK    7  A    between atoms: N_25  and  C_26
REMARK    8  A    between atoms: C_26  and  C_27
REMARK    9  A    between atoms: C_26  and  C_28
REMARK                            x       y       z     vdW  Elec       q    Type
REMARK                         _______ _______ _______ _____ _____    ______ ____
ROOT
ATOM      1  C   UNL     1       2.056   7.354  19.956  0.00  0.00    +0.000 C 
ATOM      2  O   UNL     1       2.176   7.079  21.144  0.00  0.00    +0.000 OA
ATOM      3  N   UNL     1       1.420   8.506  19.499  0.00  0.00    +0.000 N 
ATOM      4  H   UNL     1       0.904   8.333  18.641  0.00  0.00    +0.000 HD
ENDROOT
BRANCH   1  14
ATOM      5  C   UNL     1       0.706   4.196  20.562  0.00  0.00    +0.000 C 
ATOM      6  C   UNL     1       1.683   4.116  19.445  0.00  0.00    +0.000 A 
ATOM      7  N   UNL     1       1.902   2.916  18.887  0.00  0.00    +0.000 NA
ATOM      8  N   UNL     1       2.880   3.142  17.994  0.00  0.00    +0.000 N 
ATOM      9  C   UNL     1       3.469   2.035  17.284  0.00  0.00    +0.000 C 
ATOM     10  C   UNL     1       3.268   4.451  17.919  0.00  0.00    +0.000 A 
ATOM     11  N   UNL     1       4.249   4.947  17.138  0.00  0.00    +0.000 NA
ATOM     12  C   UNL     1       4.502   6.265  17.299  0.00  0.00    +0.000 A 
ATOM     13  C   UNL     1       3.753   7.068  18.161  0.00  0.00    +0.000 A 
ATOM     14  C   UNL     1       2.724   6.517  18.942  0.00  0.00    +0.000 A 
ATOM     15  C   UNL     1       2.487   5.136  18.843  0.00  0.00    +0.000 A 
BRANCH  12  16
ATOM     16  C   UNL     1       5.720   6.841  16.605  0.00  0.00    +0.000 C 
ATOM     17  C   UNL     1       6.861   7.427  17.397  0.00  0.00    +0.000 C 
ATOM     18  C   UNL     1       7.055   6.133  16.667  0.00  0.00    +0.000 C 
ENDBRANCH  12  16
ENDBRANCH   1  14
BRANCH   3  19
ATOM     19  C   UNL     1       0.722   9.280  20.464  0.00  0.00    +0.000 A 
ATOM     20  C   UNL     1       0.049   8.556  21.465  0.00  0.00    +0.000 A 
ATOM     21  C   UNL     1      -0.565   9.210  22.529  0.00  0.00    +0.000 A 
ATOM     22  C   UNL     1      -0.552  10.600  22.587  0.00  0.00    +0.000 A 
ATOM     23  C   UNL     1       0.067  11.331  21.571  0.00  0.00    +0.000 A 
ATOM     24  C   UNL     1       0.722  10.694  20.497  0.00  0.00    +0.000 A 
BRANCH  24  25
ATOM     25  C   UNL     1       1.280  11.627  19.459  0.00  0.00    +0.000 C 
ATOM     26  O   UNL     1       1.819  11.165  18.458  0.00  0.00    +0.000 OA
ATOM     27  N   UNL     1       1.139  12.982  19.653  0.00  0.00    +0.000 N 
ATOM     28  H   UNL     1       0.670  13.297  20.478  0.00  0.00    +0.000 HD
BRANCH  27  29
ATOM     29  C   UNL     1       1.598  13.983  18.707  0.00  0.00    +0.000 C 
ATOM     30  C   UNL     1       0.626  15.169  18.678  0.00  0.00    +0.000 C 
BRANCH  29  31
ATOM     31  C   UNL     1       3.031  14.386  19.021  0.00  0.00    +0.000 A 
ATOM     32  C   UNL     1       3.924  14.606  17.960  0.00  0.00    +0.000 A 
ATOM     33  C   UNL     1       5.247  14.981  18.200  0.00  0.00    +0.000 A 
ATOM     34  C   UNL     1       5.703  15.132  19.506  0.00  0.00    +0.000 A 
ATOM     35  C   UNL     1       4.837  14.902  20.571  0.00  0.00    +0.000 A 
ATOM     36  C   UNL     1       3.513  14.524  20.331  0.00  0.00    +0.000 A 
ENDBRANCH  29  31
ENDBRANCH  27  29
ENDBRANCH  24  25
ENDBRANCH   3  19
TORSDOF 6
ENDMDL
MODEL 7
REMARK VINA RESULT:      -7.4      5.962     10.190
REMARK  Name = 
REMARK  9 active torsions:
REMARK  status: ('A' for Active; 'I' for Inactive)
REMARK    1  A    between atoms: C_1  and  C_2
REMARK    2  A    between atoms: N_4  and  C_5
REMARK    3  A    between atoms: C_8  and  C_9
REMARK    4  A    between atoms: C_13  and  C_14
REMARK    5  A    between atoms: N_16  and  C_17
REMARK    6  A    between atoms: C_22  and  C_23
REMARK    7  A    between atoms: N_25  and  C_26
REMARK    8  A    between atoms: C_26  and  C_27
REMARK    9  A    between atoms: C_26  and  C_28
REMARK                            x       y       z     vdW  Elec       q    Type
REMARK                         _______ _______ _______ _____ _____    ______ ____
ROOT
ATOM      1  C   UNL     1      -2.680  13.327  22.962  0.00  0.00    +0.000 C 
ATOM      2  O   UNL     1      -3.009  13.020  24.102  0.00  0.00    +0.000 OA
ATOM      3  N   UNL     1      -3.417  14.197  22.163  0.00  0.00    +0.000 N 
ATOM      4  H   UNL     1      -3.396  13.917  21.186  0.00  0.00    +0.000 HD
ENDROOT
BRANCH   1  14
ATOM      5  C   UNL     1      -0.848  16.291  22.828  0.00  0.00    +0.000 C 
ATOM      6  C   UNL     1      -0.016  15.166  22.329  0.00  0.00    +0.000 A 
ATOM      7  N   UNL     1       1.228  15.444  21.908  0.00  0.00    +0.000 NA
ATOM      8  N   UNL     1       1.686  14.271  21.438  0.00  0.00    +0.000 N 
ATOM      9  C   UNL     1       2.966  14.216  20.779  0.00  0.00    +0.000 C 
ATOM     10  C   UNL     1       0.803  13.236  21.584  0.00  0.00    +0.000 A 
ATOM     11  N   UNL     1       0.991  11.967  21.168  0.00  0.00    +0.000 NA
ATOM     12  C   UNL     1      -0.062  11.139  21.353  0.00  0.00    +0.000 A 
ATOM     13  C   UNL     1      -1.231  11.552  21.994  0.00  0.00    +0.000 A 
ATOM     14  C   UNL     1      -1.379  12.879  22.433  0.00  0.00    +0.000 A 
ATOM     15  C   UNL     1      -0.325  13.776  22.190  0.00  0.00    +0.000 A 
BRANCH  12  16
ATOM     16  C   UNL     1       0.006   9.760  20.729  0.00  0.00    +0.000 C 
ATOM     17  C   UNL     1       1.124   8.807  21.070  0.00  0.00    +0.000 C 
ATOM     18  C   UNL     1      -0.265   8.522  21.554  0.00  0.00    +0.000 C 
ENDBRANCH  12  16
ENDBRANCH   1  14
BRANCH   3  19
ATOM     19  C   UNL     1      -4.698  14.580  22.642  0.00  0.00    +0.000 A 
ATOM     20  C   UNL     1      -4.717  15.630  23.578  0.00  0.00    +0.000 A 
ATOM     21  C   UNL     1      -5.920  16.168  24.024  0.00  0.00    +0.000 A 
ATOM     22  C   UNL     1      -7.125  15.637  23.573  0.00  0.00    +0.000 A 
ATOM     23  C   UNL     1      -7.118  14.561  22.684  0.00  0.00    +0.000 A 
ATOM     24  C   UNL     1      -5.914  14.015  22.193  0.00  0.00    +0.000 A 
BRANCH  24  25
ATOM     25  C   UNL     1      -6.085  12.821  21.296  0.00  0.00    +0.000 C 
ATOM     26  O   UNL     1      -6.513  11.770  21.763  0.00  0.00    +0.000 OA
ATOM     27  N   UNL     1      -5.784  12.958  19.961  0.00  0.00    +0.000 N 
ATOM     28  H   UNL     1      -5.461  13.846  19.635  0.00  0.00    +0.000 HD
BRANCH  27  29
ATOM     29  C   UNL     1      -5.944  11.893  18.986  0.00  0.00    +0.000 C 
ATOM     30  C   UNL     1      -7.105  12.216  18.037  0.00  0.00    +0.000 C 
BRANCH  29  31
ATOM     31  C   UNL     1      -4.629  11.639  18.264  0.00  0.00    +0.000 A 
ATOM     32  C   UNL     1      -4.658  11.233  16.920  0.00  0.00    +0.000 A 
ATOM     33  C   UNL     1      -3.476  10.991  16.217  0.00  0.00    +0.000 A 
ATOM     34  C   UNL     1      -2.246  11.142  16.848  0.00  0.00    +0.000 A 
ATOM     35  C   UNL     1      -2.197  11.527  18.184  0.00  0.00    +0.000 A 
ATOM     36  C   UNL     1      -3.379  11.766  18.890  0.00  0.00    +0.000 A 
ENDBRANCH  29  31
ENDBRANCH  27  29
ENDBRANCH  24  25
ENDBRANCH   3  19
TORSDOF 6
ENDMDL
MODEL 8
REMARK VINA RESULT:      -7.4      3.541      6.225
REMARK  Name = 
REMARK  9 active torsions:
REMARK  status: ('A' for Active; 'I' for Inactive)
REMARK    1  A    between atoms: C_1  and  C_2
REMARK    2  A    between atoms: N_4  and  C_5
REMARK    3  A    between atoms: C_8  and  C_9
REMARK    4  A    between atoms: C_13  and  C_14
REMARK    5  A    between atoms: N_16  and  C_17
REMARK    6  A    between atoms: C_22  and  C_23
REMARK    7  A    between atoms: N_25  and  C_26
REMARK    8  A    between atoms: C_26  and  C_27
REMARK    9  A    between atoms: C_26  and  C_28
REMARK                            x       y       z     vdW  Elec       q    Type
REMARK                         _______ _______ _______ _____ _____    ______ ____
ROOT
ATOM      1  C   UNL     1      -1.342  12.455  21.110  0.00  0.00    +0.000 C 
ATOM      2  O   UNL     1      -1.613  11.350  21.564  0.00  0.00    +0.000 OA
ATOM      3  N   UNL     1      -1.629  12.834  19.800  0.00  0.00    +0.000 N 
ATOM      4  H   UNL     1      -0.904  13.434  19.417  0.00  0.00    +0.000 HD
ENDROOT
BRANCH   1  14
ATOM      5  C   UNL     1      -3.838  12.732  23.529  0.00  0.00    +0.000 C 
ATOM      6  C   UNL     1      -2.747  13.697  23.824  0.00  0.00    +0.000 A 
ATOM      7  N   UNL     1      -2.886  14.494  24.894  0.00  0.00    +0.000 NA
ATOM      8  N   UNL     1      -1.812  15.301  24.845  0.00  0.00    +0.000 N 
ATOM      9  C   UNL     1      -1.691  16.387  25.783  0.00  0.00    +0.000 C 
ATOM     10  C   UNL     1      -0.961  15.024  23.811  0.00  0.00    +0.000 A 
ATOM     11  N   UNL     1       0.167  15.698  23.508  0.00  0.00    +0.000 NA
ATOM     12  C   UNL     1       0.801  15.285  22.388  0.00  0.00    +0.000 A 
ATOM     13  C   UNL     1       0.357  14.192  21.640  0.00  0.00    +0.000 A 
ATOM     14  C   UNL     1      -0.811  13.502  22.003  0.00  0.00    +0.000 A 
ATOM     15  C   UNL     1      -1.526  13.956  23.124  0.00  0.00    +0.000 A 
BRANCH  12  16
ATOM     16  C   UNL     1       1.956  16.123  21.879  0.00  0.00    +0.000 C 
ATOM     17  C   UNL     1       2.393  16.050  20.437  0.00  0.00    +0.000 C 
ATOM     18  C   UNL     1       1.717  17.287  20.944  0.00  0.00    +0.000 C 
ENDBRANCH  12  16
ENDBRANCH   1  14
BRANCH   3  19
ATOM     19  C   UNL     1      -2.080  11.814  18.921  0.00  0.00    +0.000 A 
ATOM     20  C   UNL     1      -3.390  11.959  18.430  0.00  0.00    +0.000 A 
ATOM     21  C   UNL     1      -3.894  11.086  17.470  0.00  0.00    +0.000 A 
ATOM     22  C   UNL     1      -3.110  10.030  17.016  0.00  0.00    +0.000 A 
ATOM     23  C   UNL     1      -1.828   9.845  17.535  0.00  0.00    +0.000 A 
ATOM     24  C   UNL     1      -1.281  10.730  18.487  0.00  0.00    +0.000 A 
BRANCH  24  25
ATOM     25  C   UNL     1       0.085  10.350  18.987  0.00  0.00    +0.000 C 
ATOM     26  O   UNL     1       1.076  10.890  18.505  0.00  0.00    +0.000 OA
ATOM     27  N   UNL     1       0.176   9.425  20.001  0.00  0.00    +0.000 N 
ATOM     28  H   UNL     1      -0.669   9.038  20.368  0.00  0.00    +0.000 HD
BRANCH  27  29
ATOM     29  C   UNL     1       1.432   9.005  20.597  0.00  0.00    +0.000 C 
ATOM     30  C   UNL     1       1.315   8.996  22.126  0.00  0.00    +0.000 C 
BRANCH  29  31
ATOM     31  C   UNL     1       1.868   7.667  20.018  0.00  0.00    +0.000 A 
ATOM     32  C   UNL     1       2.430   7.633  18.731  0.00  0.00    +0.000 A 
ATOM     33  C   UNL     1       2.847   6.429  18.161  0.00  0.00    +0.000 A 
ATOM     34  C   UNL     1       2.701   5.237  18.864  0.00  0.00    +0.000 A 
ATOM     35  C   UNL     1       2.131   5.249  20.133  0.00  0.00    +0.000 A 
ATOM     36  C   UNL     1       1.710   6.453  20.703  0.00  0.00    +0.000 A 
ENDBRANCH  29  31
ENDBRANCH  27  29
ENDBRANCH  24  25
ENDBRANCH   3  19
TORSDOF 6
ENDMDL
MODEL 9
REMARK VINA RESULT:      -7.2      3.813      9.079
REMARK  Name = 
REMARK  9 active torsions:
REMARK  status: ('A' for Active; 'I' for Inactive)
REMARK    1  A    between atoms: C_1  and  C_2
REMARK    2  A    between atoms: N_4  and  C_5
REMARK    3  A    between atoms: C_8  and  C_9
REMARK    4  A    between atoms: C_13  and  C_14
REMARK    5  A    between atoms: N_16  and  C_17
REMARK    6  A    between atoms: C_22  and  C_23
REMARK    7  A    between atoms: N_25  and  C_26
REMARK    8  A    between atoms: C_26  and  C_27
REMARK    9  A    between atoms: C_26  and  C_28
REMARK                            x       y       z     vdW  Elec       q    Type
REMARK                         _______ _______ _______ _____ _____    ______ ____
ROOT
ATOM      1  C   UNL     1       2.096   9.700  18.305  0.00  0.00    +0.000 C 
ATOM      2  O   UNL     1       2.585  10.497  17.513  0.00  0.00    +0.000 OA
ATOM      3  N   UNL     1       1.041  10.020  19.156  0.00  0.00    +0.000 N 
ATOM      4  H   UNL     1       1.135   9.560  20.058  0.00  0.00    +0.000 HD
ENDROOT
BRANCH   1  14
ATOM      5  C   UNL     1       0.680   8.424  21.225  0.00  0.00    +0.000 C 
ATOM      6  C   UNL     1       1.447   7.355  20.532  0.00  0.00    +0.000 A 
ATOM      7  N   UNL     1       1.495   6.144  21.107  0.00  0.00    +0.000 NA
ATOM      8  N   UNL     1       2.319   5.437  20.316  0.00  0.00    +0.000 N 
ATOM      9  C   UNL     1       2.711   4.105  20.700  0.00  0.00    +0.000 C 
ATOM     10  C   UNL     1       2.766   6.130  19.225  0.00  0.00    +0.000 A 
ATOM     11  N   UNL     1       3.628   5.676  18.293  0.00  0.00    +0.000 NA
ATOM     12  C   UNL     1       3.985   6.578  17.350  0.00  0.00    +0.000 A 
ATOM     13  C   UNL     1       3.443   7.863  17.307  0.00  0.00    +0.000 A 
ATOM     14  C   UNL     1       2.530   8.291  18.285  0.00  0.00    +0.000 A 
ATOM     15  C   UNL     1       2.197   7.395  19.314  0.00  0.00    +0.000 A 
BRANCH  12  16
ATOM     16  C   UNL     1       5.099   6.199  16.396  0.00  0.00    +0.000 C 
ATOM     17  C   UNL     1       6.072   5.097  16.736  0.00  0.00    +0.000 C 
ATOM     18  C   UNL     1       5.065   4.887  15.646  0.00  0.00    +0.000 C 
ENDBRANCH  12  16
ENDBRANCH   1  14
BRANCH   3  19
ATOM     19  C   UNL     1       0.662  11.387  19.224  0.00  0.00    +0.000 A 
ATOM     20  C   UNL     1       1.527  12.231  19.944  0.00  0.00    +0.000 A 
ATOM     21  C   UNL     1       1.321  13.607  19.975  0.00  0.00    +0.000 A 
ATOM     22  C   UNL     1       0.222  14.157  19.322  0.00  0.00    +0.000 A 
ATOM     23  C   UNL     1      -0.673  13.323  18.648  0.00  0.00    +0.000 A 
ATOM     24  C   UNL     1      -0.472  11.929  18.576  0.00  0.00    +0.000 A 
BRANCH  24  25
ATOM     25  C   UNL     1      -1.562  11.174  17.869  0.00  0.00    +0.000 C 
ATOM     26  O   UNL     1      -1.764   9.997  18.153  0.00  0.00    +0.000 OA
ATOM     27  N   UNL     1      -2.326  11.842  16.940  0.00  0.00    +0.000 N 
ATOM     28  H   UNL     1      -2.128  12.808  16.769  0.00  0.00    +0.000 HD
BRANCH  27  29
ATOM     29  C   UNL     1      -3.432  11.237  16.220  0.00  0.00    +0.000 C 
ATOM     30  C   UNL     1      -3.075   9.802  15.812  0.00  0.00    +0.000 C 
BRANCH  29  31
ATOM     31  C   UNL     1      -4.709  11.330  17.041  0.00  0.00    +0.000 A 
ATOM     32  C   UNL     1      -5.552  12.440  16.863  0.00  0.00    +0.000 A 
ATOM     33  C   UNL     1      -6.736  12.566  17.592  0.00  0.00    +0.000 A 
ATOM     34  C   UNL     1      -7.093  11.590  18.517  0.00  0.00    +0.000 A 
ATOM     35  C   UNL     1      -6.262  10.493  18.719  0.00  0.00    +0.000 A 
ATOM     36  C   UNL     1      -5.075  10.367  17.992  0.00  0.00    +0.000 A 
ENDBRANCH  29  31
ENDBRANCH  27  29
ENDBRANCH  24  25
ENDBRANCH   3  19
TORSDOF 6
ENDMDL
