MODEL 1
REMARK VINA RESULT:      -9.2      0.000      0.000
REMARK  Name = 
REMARK  9 active torsions:
REMARK  status: ('A' for Active; 'I' for Inactive)
REMARK    1  A    between atoms: C_1  and  C_2
REMARK    2  A    between atoms: N_10  and  C_11
REMARK    3  A    between atoms: C_11  and  C_12
REMARK    4  A    between atoms: C_12  and  C_13
REMARK    5  A    between atoms: C_23  and  S_24
REMARK    6  A    between atoms: S_24  and  C_25
REMARK    7  A    between atoms: C_25  and  C_26
REMARK    8  A    between atoms: N_28  and  C_29
REMARK    9  A    between atoms: C_29  and  C_30
REMARK                            x       y       z     vdW  Elec       q    Type
REMARK                         _______ _______ _______ _____ _____    ______ ____
ROOT
ATOM      1  C   UNL     1       2.537   8.130  18.229  0.00  0.00    +0.000 A 
ATOM      2  N   UNL     1       1.740   7.128  18.750  0.00  0.00    +0.000 NA
ATOM      3  C   UNL     1       2.502   6.057  18.642  0.00  0.00    +0.000 A 
ATOM      4  C   UNL     1       2.262   4.624  18.745  0.00  0.00    +0.000 A 
ATOM      5  C   UNL     1       1.709   3.965  19.837  0.00  0.00    +0.000 A 
ATOM      6  C   UNL     1       1.586   2.570  19.795  0.00  0.00    +0.000 A 
ATOM      7  C   UNL     1       1.863   1.871  18.617  0.00  0.00    +0.000 A 
ATOM      8  C   UNL     1       2.492   2.522  17.560  0.00  0.00    +0.000 A 
ATOM      9  C   UNL     1       2.862   3.855  17.724  0.00  0.00    +0.000 A 
ATOM     10  N   UNL     1       4.101   4.285  17.153  0.00  0.00    +0.000 NA
ATOM     11  C   UNL     1       4.536   5.487  17.468  0.00  0.00    +0.000 A 
ATOM     12  N   UNL     1       3.680   6.411  18.070  0.00  0.00    +0.000 N 
ATOM     13  N   UNL     1       3.787   7.746  17.937  0.00  0.00    +0.000 NA
ENDROOT
BRANCH   1  14
ATOM     14  C   UNL     1       2.073   9.489  17.805  0.00  0.00    +0.000 C 
BRANCH  14  15
ATOM     15  C   UNL     1       0.605   9.782  18.065  0.00  0.00    +0.000 C 
BRANCH  15  25
ATOM     16  C   UNL     1       0.741  12.866  18.152  0.00  0.00    +0.000 C 
ATOM     17  C   UNL     1       0.430  11.985  19.305  0.00  0.00    +0.000 A 
ATOM     18  N   UNL     1       0.128  12.419  20.512  0.00  0.00    +0.000 NA
ATOM     19  C   UNL     1      -0.119  11.304  21.267  0.00  0.00    +0.000 A 
ATOM     20  C   UNL     1      -0.489  11.213  22.607  0.00  0.00    +0.000 A 
ATOM     21  C   UNL     1      -0.694   9.945  23.166  0.00  0.00    +0.000 A 
ATOM     22  C   UNL     1      -0.524   8.798  22.398  0.00  0.00    +0.000 A 
ATOM     23  C   UNL     1      -0.144   8.868  21.050  0.00  0.00    +0.000 A 
ATOM     24  C   UNL     1       0.049  10.146  20.505  0.00  0.00    +0.000 A 
ATOM     25  N   UNL     1       0.394  10.606  19.251  0.00  0.00    +0.000 N 
ENDBRANCH  15  25
ENDBRANCH  14  15
ENDBRANCH   1  14
BRANCH  11  26
ATOM     26  S   UNL     1       6.210   5.938  17.213  0.00  0.00    +0.000 S 
BRANCH  26  27
ATOM     27  C   UNL     1       6.878   4.495  16.373  0.00  0.00    +0.000 C 
BRANCH  27  28
ATOM     28  C   UNL     1       6.796   4.694  14.874  0.00  0.00    +0.000 C 
ATOM     29  O   UNL     1       7.610   5.379  14.256  0.00  0.00    +0.000 OA
ATOM     30  N   UNL     1       5.741   4.052  14.268  0.00  0.00    +0.000 N 
ATOM     31  H   UNL     1       5.067   3.560  14.852  0.00  0.00    +0.000 HD
BRANCH  30  32
ATOM     32  C   UNL     1       5.469   4.157  12.858  0.00  0.00    +0.000 C 
BRANCH  32  33
ATOM     33  C   UNL     1       6.019   2.988  12.122  0.00  0.00    +0.000 A 
ATOM     34  C   UNL     1       5.441   1.837  11.608  0.00  0.00    +0.000 A 
ATOM     35  C   UNL     1       6.447   1.186  10.855  0.00  0.00    +0.000 A 
ATOM     36  C   UNL     1       7.573   1.963  10.974  0.00  0.00    +0.000 A 
ATOM     37  O   UNL     1       7.324   3.054  11.747  0.00  0.00    +0.000 OA
ENDBRANCH  32  33
ENDBRANCH  30  32
ENDBRANCH  27  28
ENDBRANCH  26  27
ENDBRANCH  11  26
TORSDOF 8
ENDMDL
MODEL 2
REMARK VINA RESULT:      -9.0      1.976      2.856
REMARK  Name = 
REMARK  9 active torsions:
REMARK  status: ('A' for Active; 'I' for Inactive)
REMARK    1  A    between atoms: C_1  and  C_2
REMARK    2  A    between atoms: N_10  and  C_11
REMARK    3  A    between atoms: C_11  and  C_12
REMARK    4  A    between atoms: C_12  and  C_13
REMARK    5  A    between atoms: C_23  and  S_24
REMARK    6  A    between atoms: S_24  and  C_25
REMARK    7  A    between atoms: C_25  and  C_26
REMARK    8  A    between atoms: N_28  and  C_29
REMARK    9  A    between atoms: C_29  and  C_30
REMARK                            x       y       z     vdW  Elec       q    Type
REMARK                         _______ _______ _______ _____ _____    ______ ____
ROOT
ATOM      1  C   UNL     1       1.397   8.227  20.627  0.00  0.00    +0.000 A 
ATOM      2  N   UNL     1       1.053   7.028  21.223  0.00  0.00    +0.000 NA
ATOM      3  C   UNL     1       1.682   6.137  20.481  0.00  0.00    +0.000 A 
ATOM      4  C   UNL     1       1.599   4.690  20.342  0.00  0.00    +0.000 A 
ATOM      5  C   UNL     1       1.753   3.761  21.364  0.00  0.00    +0.000 A 
ATOM      6  C   UNL     1       1.689   2.396  21.054  0.00  0.00    +0.000 A 
ATOM      7  C   UNL     1       1.317   1.978  19.774  0.00  0.00    +0.000 A 
ATOM      8  C   UNL     1       1.246   2.906  18.739  0.00  0.00    +0.000 A 
ATOM      9  C   UNL     1       1.586   4.230  19.007  0.00  0.00    +0.000 A 
ATOM     10  N   UNL     1       2.300   4.958  18.004  0.00  0.00    +0.000 NA
ATOM     11  C   UNL     1       2.783   6.139  18.330  0.00  0.00    +0.000 A 
ATOM     12  N   UNL     1       2.348   6.781  19.491  0.00  0.00    +0.000 N 
ATOM     13  N   UNL     1       2.307   8.118  19.650  0.00  0.00    +0.000 NA
ENDROOT
BRANCH   1  14
ATOM     14  C   UNL     1       0.717   9.543  20.848  0.00  0.00    +0.000 C 
BRANCH  14  15
ATOM     15  C   UNL     1       0.667  10.457  19.636  0.00  0.00    +0.000 C 
BRANCH  15  25
ATOM     16  C   UNL     1      -0.599  12.695  21.347  0.00  0.00    +0.000 C 
ATOM     17  C   UNL     1      -1.227  12.057  20.164  0.00  0.00    +0.000 A 
ATOM     18  N   UNL     1      -2.398  12.401  19.668  0.00  0.00    +0.000 NA
ATOM     19  C   UNL     1      -2.598  11.602  18.574  0.00  0.00    +0.000 A 
ATOM     20  C   UNL     1      -3.675  11.571  17.691  0.00  0.00    +0.000 A 
ATOM     21  C   UNL     1      -3.652  10.659  16.628  0.00  0.00    +0.000 A 
ATOM     22  C   UNL     1      -2.575   9.794  16.462  0.00  0.00    +0.000 A 
ATOM     23  C   UNL     1      -1.484   9.803  17.345  0.00  0.00    +0.000 A 
ATOM     24  C   UNL     1      -1.522  10.729  18.398  0.00  0.00    +0.000 A 
ATOM     25  N   UNL     1      -0.654  11.042  19.423  0.00  0.00    +0.000 N 
ENDBRANCH  15  25
ENDBRANCH  14  15
ENDBRANCH   1  14
BRANCH  11  26
ATOM     26  S   UNL     1       4.033   6.902  17.369  0.00  0.00    +0.000 S 
BRANCH  26  27
ATOM     27  C   UNL     1       5.092   5.514  16.934  0.00  0.00    +0.000 C 
BRANCH  27  28
ATOM     28  C   UNL     1       5.603   5.685  15.520  0.00  0.00    +0.000 C 
ATOM     29  O   UNL     1       5.370   6.692  14.854  0.00  0.00    +0.000 OA
ATOM     30  N   UNL     1       6.342   4.625  15.045  0.00  0.00    +0.000 N 
ATOM     31  H   UNL     1       6.434   3.794  15.628  0.00  0.00    +0.000 HD
BRANCH  30  32
ATOM     32  C   UNL     1       6.875   4.581  13.709  0.00  0.00    +0.000 C 
BRANCH  32  33
ATOM     33  C   UNL     1       6.042   3.716  12.832  0.00  0.00    +0.000 A 
ATOM     34  C   UNL     1       4.735   3.811  12.378  0.00  0.00    +0.000 A 
ATOM     35  C   UNL     1       4.566   2.775  11.428  0.00  0.00    +0.000 A 
ATOM     36  C   UNL     1       5.764   2.106  11.379  0.00  0.00    +0.000 A 
ATOM     37  O   UNL     1       6.661   2.665  12.234  0.00  0.00    +0.000 OA
ENDBRANCH  32  33
ENDBRANCH  30  32
ENDBRANCH  27  28
ENDBRANCH  26  27
ENDBRANCH  11  26
TORSDOF 8
ENDMDL
MODEL 3
REMARK VINA RESULT:      -8.7      2.062      2.971
REMARK  Name = 
REMARK  9 active torsions:
REMARK  status: ('A' for Active; 'I' for Inactive)
REMARK    1  A    between atoms: C_1  and  C_2
REMARK    2  A    between atoms: N_10  and  C_11
REMARK    3  A    between atoms: C_11  and  C_12
REMARK    4  A    between atoms: C_12  and  C_13
REMARK    5  A    between atoms: C_23  and  S_24
REMARK    6  A    between atoms: S_24  and  C_25
REMARK    7  A    between atoms: C_25  and  C_26
REMARK    8  A    between atoms: N_28  and  C_29
REMARK    9  A    between atoms: C_29  and  C_30
REMARK                            x       y       z     vdW  Elec       q    Type
REMARK                         _______ _______ _______ _____ _____    ______ ____
ROOT
ATOM      1  C   UNL     1       1.597   8.231  20.315  0.00  0.00    +0.000 A 
ATOM      2  N   UNL     1       1.275   7.075  21.001  0.00  0.00    +0.000 NA
ATOM      3  C   UNL     1       1.898   6.139  20.311  0.00  0.00    +0.000 A 
ATOM      4  C   UNL     1       1.826   4.685  20.276  0.00  0.00    +0.000 A 
ATOM      5  C   UNL     1       2.008   3.831  21.357  0.00  0.00    +0.000 A 
ATOM      6  C   UNL     1       1.950   2.447  21.146  0.00  0.00    +0.000 A 
ATOM      7  C   UNL     1       1.557   1.938  19.905  0.00  0.00    +0.000 A 
ATOM      8  C   UNL     1       1.457   2.789  18.810  0.00  0.00    +0.000 A 
ATOM      9  C   UNL     1       1.791   4.132  18.977  0.00  0.00    +0.000 A 
ATOM     10  N   UNL     1       2.478   4.792  17.911  0.00  0.00    +0.000 NA
ATOM     11  C   UNL     1       2.956   5.997  18.143  0.00  0.00    +0.000 A 
ATOM     12  N   UNL     1       2.538   6.716  19.264  0.00  0.00    +0.000 N 
ATOM     13  N   UNL     1       2.489   8.060  19.330  0.00  0.00    +0.000 NA
ENDROOT
BRANCH   1  14
ATOM     14  C   UNL     1       0.910   9.555  20.457  0.00  0.00    +0.000 C 
BRANCH  14  15
ATOM     15  C   UNL     1       0.718  10.326  19.163  0.00  0.00    +0.000 C 
BRANCH  15  25
ATOM     16  C   UNL     1      -0.188  12.661  20.970  0.00  0.00    +0.000 C 
ATOM     17  C   UNL     1      -0.990  12.058  19.877  0.00  0.00    +0.000 A 
ATOM     18  N   UNL     1      -2.184  12.477  19.512  0.00  0.00    +0.000 NA
ATOM     19  C   UNL     1      -2.562  11.685  18.461  0.00  0.00    +0.000 A 
ATOM     20  C   UNL     1      -3.733  11.721  17.707  0.00  0.00    +0.000 A 
ATOM     21  C   UNL     1      -3.893  10.801  16.664  0.00  0.00    +0.000 A 
ATOM     22  C   UNL     1      -2.904   9.863  16.391  0.00  0.00    +0.000 A 
ATOM     23  C   UNL     1      -1.721   9.803  17.143  0.00  0.00    +0.000 A 
ATOM     24  C   UNL     1      -1.575  10.739  18.178  0.00  0.00    +0.000 A 
ATOM     25  N   UNL     1      -0.575  11.000  19.093  0.00  0.00    +0.000 N 
ENDBRANCH  15  25
ENDBRANCH  14  15
ENDBRANCH   1  14
BRANCH  11  26
ATOM     26  S   UNL     1       4.180   6.700  17.105  0.00  0.00    +0.000 S 
BRANCH  26  27
ATOM     27  C   UNL     1       5.701   6.332  17.993  0.00  0.00    +0.000 C 
BRANCH  27  28
ATOM     28  C   UNL     1       6.576   5.426  17.152  0.00  0.00    +0.000 C 
ATOM     29  O   UNL     1       7.229   4.505  17.640  0.00  0.00    +0.000 OA
ATOM     30  N   UNL     1       6.582   5.722  15.808  0.00  0.00    +0.000 N 
ATOM     31  H   UNL     1       6.073   6.544  15.486  0.00  0.00    +0.000 HD
BRANCH  30  32
ATOM     32  C   UNL     1       7.386   5.004  14.854  0.00  0.00    +0.000 C 
BRANCH  32  33
ATOM     33  C   UNL     1       6.532   4.282  13.875  0.00  0.00    +0.000 A 
ATOM     34  C   UNL     1       5.176   3.992  13.837  0.00  0.00    +0.000 A 
ATOM     35  C   UNL     1       4.922   3.432  12.562  0.00  0.00    +0.000 A 
ATOM     36  C   UNL     1       6.134   3.397  11.915  0.00  0.00    +0.000 A 
ATOM     37  O   UNL     1       7.116   3.902  12.708  0.00  0.00    +0.000 OA
ENDBRANCH  32  33
ENDBRANCH  30  32
ENDBRANCH  27  28
ENDBRANCH  26  27
ENDBRANCH  11  26
TORSDOF 8
ENDMDL
MODEL 4
REMARK VINA RESULT:      -8.6      1.303      2.543
REMARK  Name = 
REMARK  9 active torsions:
REMARK  status: ('A' for Active; 'I' for Inactive)
REMARK    1  A    between atoms: C_1  and  C_2
REMARK    2  A    between atoms: N_10  and  C_11
REMARK    3  A    between atoms: C_11  and  C_12
REMARK    4  A    between atoms: C_12  and  C_13
REMARK    5  A    between atoms: C_23  and  S_24
REMARK    6  A    between atoms: S_24  and  C_25
REMARK    7  A    between atoms: C_25  and  C_26
REMARK    8  A    between atoms: N_28  and  C_29
REMARK    9  A    between atoms: C_29  and  C_30
REMARK                            x       y       z     vdW  Elec       q    Type
REMARK                         _______ _______ _______ _____ _____    ______ ____
ROOT
ATOM      1  C   UNL     1       2.488   8.013  18.309  0.00  0.00    +0.000 A 
ATOM      2  N   UNL     1       1.581   7.089  18.793  0.00  0.00    +0.000 NA
ATOM      3  C   UNL     1       2.314   6.001  18.934  0.00  0.00    +0.000 A 
ATOM      4  C   UNL     1       2.011   4.593  19.150  0.00  0.00    +0.000 A 
ATOM      5  C   UNL     1       1.261   4.070  20.196  0.00  0.00    +0.000 A 
ATOM      6  C   UNL     1       1.100   2.681  20.287  0.00  0.00    +0.000 A 
ATOM      7  C   UNL     1       1.548   1.849  19.257  0.00  0.00    +0.000 A 
ATOM      8  C   UNL     1       2.367   2.367  18.259  0.00  0.00    +0.000 A 
ATOM      9  C   UNL     1       2.748   3.705  18.337  0.00  0.00    +0.000 A 
ATOM     10  N   UNL     1       4.080   4.049  17.943  0.00  0.00    +0.000 NA
ATOM     11  C   UNL     1       4.496   5.273  18.195  0.00  0.00    +0.000 A 
ATOM     12  N   UNL     1       3.582   6.271  18.537  0.00  0.00    +0.000 N 
ATOM     13  N   UNL     1       3.756   7.581  18.280  0.00  0.00    +0.000 NA
ENDROOT
BRANCH   1  14
ATOM     14  C   UNL     1       2.147   9.323  17.667  0.00  0.00    +0.000 C 
BRANCH  14  15
ATOM     15  C   UNL     1       0.862   9.968  18.155  0.00  0.00    +0.000 C 
BRANCH  15  25
ATOM     16  C   UNL     1       0.105   9.510  21.114  0.00  0.00    +0.000 C 
ATOM     17  C   UNL     1       0.771  10.721  20.573  0.00  0.00    +0.000 A 
ATOM     18  N   UNL     1       1.163  11.743  21.306  0.00  0.00    +0.000 NA
ATOM     19  C   UNL     1       1.752  12.628  20.442  0.00  0.00    +0.000 A 
ATOM     20  C   UNL     1       2.340  13.862  20.710  0.00  0.00    +0.000 A 
ATOM     21  C   UNL     1       2.889  14.593  19.650  0.00  0.00    +0.000 A 
ATOM     22  C   UNL     1       2.841  14.099  18.351  0.00  0.00    +0.000 A 
ATOM     23  C   UNL     1       2.247  12.863  18.058  0.00  0.00    +0.000 A 
ATOM     24  C   UNL     1       1.709  12.140  19.134  0.00  0.00    +0.000 A 
ATOM     25  N   UNL     1       1.083  10.916  19.242  0.00  0.00    +0.000 N 
ENDBRANCH  15  25
ENDBRANCH  14  15
ENDBRANCH   1  14
BRANCH  11  26
ATOM     26  S   UNL     1       6.203   5.667  18.184  0.00  0.00    +0.000 S 
BRANCH  26  27
ATOM     27  C   UNL     1       6.443   6.309  16.520  0.00  0.00    +0.000 C 
BRANCH  27  28
ATOM     28  C   UNL     1       7.064   5.240  15.646  0.00  0.00    +0.000 C 
ATOM     29  O   UNL     1       7.712   4.304  16.111  0.00  0.00    +0.000 OA
ATOM     30  N   UNL     1       6.846   5.405  14.297  0.00  0.00    +0.000 N 
ATOM     31  H   UNL     1       6.360   6.243  13.980  0.00  0.00    +0.000 HD
BRANCH  30  32
ATOM     32  C   UNL     1       7.393   4.519  13.303  0.00  0.00    +0.000 C 
BRANCH  32  33
ATOM     33  C   UNL     1       6.319   3.722  12.654  0.00  0.00    +0.000 A 
ATOM     34  C   UNL     1       4.947   3.890  12.552  0.00  0.00    +0.000 A 
ATOM     35  C   UNL     1       4.486   2.894  11.658  0.00  0.00    +0.000 A 
ATOM     36  C   UNL     1       5.596   2.173  11.290  0.00  0.00    +0.000 A 
ATOM     37  O   UNL     1       6.710   2.663  11.895  0.00  0.00    +0.000 OA
ENDBRANCH  32  33
ENDBRANCH  30  32
ENDBRANCH  27  28
ENDBRANCH  26  27
ENDBRANCH  11  26
TORSDOF 8
ENDMDL
MODEL 5
REMARK VINA RESULT:      -8.6      3.109      5.280
REMARK  Name = 
REMARK  9 active torsions:
REMARK  status: ('A' for Active; 'I' for Inactive)
REMARK    1  A    between atoms: C_1  and  C_2
REMARK    2  A    between atoms: N_10  and  C_11
REMARK    3  A    between atoms: C_11  and  C_12
REMARK    4  A    between atoms: C_12  and  C_13
REMARK    5  A    between atoms: C_23  and  S_24
REMARK    6  A    between atoms: S_24  and  C_25
REMARK    7  A    between atoms: C_25  and  C_26
REMARK    8  A    between atoms: N_28  and  C_29
REMARK    9  A    between atoms: C_29  and  C_30
REMARK                            x       y       z     vdW  Elec       q    Type
REMARK                         _______ _______ _______ _____ _____    ______ ____
ROOT
ATOM      1  C   UNL     1       2.540   8.130  18.289  0.00  0.00    +0.000 A 
ATOM      2  N   UNL     1       2.011   7.452  19.371  0.00  0.00    +0.000 NA
ATOM      3  C   UNL     1       2.515   6.240  19.236  0.00  0.00    +0.000 A 
ATOM      4  C   UNL     1       2.220   4.946  19.833  0.00  0.00    +0.000 A 
ATOM      5  C   UNL     1       2.216   4.655  21.193  0.00  0.00    +0.000 A 
ATOM      6  C   UNL     1       1.956   3.341  21.604  0.00  0.00    +0.000 A 
ATOM      7  C   UNL     1       1.549   2.377  20.677  0.00  0.00    +0.000 A 
ATOM      8  C   UNL     1       1.635   2.651  19.315  0.00  0.00    +0.000 A 
ATOM      9  C   UNL     1       2.164   3.876  18.914  0.00  0.00    +0.000 A 
ATOM     10  N   UNL     1       2.996   3.901  17.750  0.00  0.00    +0.000 NA
ATOM     11  C   UNL     1       3.642   5.017  17.484  0.00  0.00    +0.000 A 
ATOM     12  N   UNL     1       3.287   6.206  18.121  0.00  0.00    +0.000 N 
ATOM     13  N   UNL     1       3.442   7.432  17.585  0.00  0.00    +0.000 NA
ENDROOT
BRANCH   1  14
ATOM     14  C   UNL     1       2.060   9.446  17.758  0.00  0.00    +0.000 C 
BRANCH  14  15
ATOM     15  C   UNL     1       0.771   9.960  18.373  0.00  0.00    +0.000 C 
BRANCH  15  25
ATOM     16  C   UNL     1      -0.048   9.709  21.341  0.00  0.00    +0.000 C 
ATOM     17  C   UNL     1       0.659  10.866  20.738  0.00  0.00    +0.000 A 
ATOM     18  N   UNL     1       1.066  11.922  21.412  0.00  0.00    +0.000 NA
ATOM     19  C   UNL     1       1.693  12.735  20.506  0.00  0.00    +0.000 A 
ATOM     20  C   UNL     1       2.309  13.968  20.707  0.00  0.00    +0.000 A 
ATOM     21  C   UNL     1       2.895  14.617  19.613  0.00  0.00    +0.000 A 
ATOM     22  C   UNL     1       2.856  14.043  18.347  0.00  0.00    +0.000 A 
ATOM     23  C   UNL     1       2.234  12.807  18.121  0.00  0.00    +0.000 A 
ATOM     24  C   UNL     1       1.659  12.167  19.230  0.00  0.00    +0.000 A 
ATOM     25  N   UNL     1       0.998  10.969  19.404  0.00  0.00    +0.000 N 
ENDBRANCH  15  25
ENDBRANCH  14  15
ENDBRANCH   1  14
BRANCH  11  26
ATOM     26  S   UNL     1       5.009   5.029  16.388  0.00  0.00    +0.000 S 
BRANCH  26  27
ATOM     27  C   UNL     1       5.584   6.730  16.502  0.00  0.00    +0.000 C 
BRANCH  27  28
ATOM     28  C   UNL     1       6.845   6.788  17.338  0.00  0.00    +0.000 C 
ATOM     29  O   UNL     1       7.373   5.778  17.801  0.00  0.00    +0.000 OA
ATOM     30  N   UNL     1       7.343   8.055  17.537  0.00  0.00    +0.000 N 
ATOM     31  H   UNL     1       6.812   8.850  17.182  0.00  0.00    +0.000 HD
BRANCH  30  32
ATOM     32  C   UNL     1       8.507   8.319  18.341  0.00  0.00    +0.000 C 
BRANCH  32  33
ATOM     33  C   UNL     1       8.734   9.782  18.482  0.00  0.00    +0.000 A 
ATOM     34  C   UNL     1       9.576  10.534  19.288  0.00  0.00    +0.000 A 
ATOM     35  C   UNL     1       9.468  11.872  18.840  0.00  0.00    +0.000 A 
ATOM     36  C   UNL     1       8.559  11.856  17.810  0.00  0.00    +0.000 A 
ATOM     37  O   UNL     1       8.104  10.593  17.593  0.00  0.00    +0.000 OA
ENDBRANCH  32  33
ENDBRANCH  30  32
ENDBRANCH  27  28
ENDBRANCH  26  27
ENDBRANCH  11  26
TORSDOF 8
ENDMDL
MODEL 6
REMARK VINA RESULT:      -8.5      2.976      4.651
REMARK  Name = 
REMARK  9 active torsions:
REMARK  status: ('A' for Active; 'I' for Inactive)
REMARK    1  A    between atoms: C_1  and  C_2
REMARK    2  A    between atoms: N_10  and  C_11
REMARK    3  A    between atoms: C_11  and  C_12
REMARK    4  A    between atoms: C_12  and  C_13
REMARK    5  A    between atoms: C_23  and  S_24
REMARK    6  A    between atoms: S_24  and  C_25
REMARK    7  A    between atoms: C_25  and  C_26
REMARK    8  A    between atoms: N_28  and  C_29
REMARK    9  A    between atoms: C_29  and  C_30
REMARK                            x       y       z     vdW  Elec       q    Type
REMARK                         _______ _______ _______ _____ _____    ______ ____
ROOT
ATOM      1  C   UNL     1       2.280   8.268  18.584  0.00  0.00    +0.000 A 
ATOM      2  N   UNL     1       1.852   7.525  19.669  0.00  0.00    +0.000 NA
ATOM      3  C   UNL     1       2.364   6.333  19.432  0.00  0.00    +0.000 A 
ATOM      4  C   UNL     1       2.141   5.004  19.983  0.00  0.00    +0.000 A 
ATOM      5  C   UNL     1       2.251   4.645  21.322  0.00  0.00    +0.000 A 
ATOM      6  C   UNL     1       2.048   3.307  21.684  0.00  0.00    +0.000 A 
ATOM      7  C   UNL     1       1.585   2.383  20.744  0.00  0.00    +0.000 A 
ATOM      8  C   UNL     1       1.556   2.726  19.396  0.00  0.00    +0.000 A 
ATOM      9  C   UNL     1       2.029   3.980  19.017  0.00  0.00    +0.000 A 
ATOM     10  N   UNL     1       2.764   4.081  17.794  0.00  0.00    +0.000 NA
ATOM     11  C   UNL     1       3.368   5.223  17.535  0.00  0.00    +0.000 A 
ATOM     12  N   UNL     1       3.044   6.371  18.259  0.00  0.00    +0.000 N 
ATOM     13  N   UNL     1       3.134   7.625  17.776  0.00  0.00    +0.000 NA
ENDROOT
BRANCH   1  14
ATOM     14  C   UNL     1       1.736   9.598  18.162  0.00  0.00    +0.000 C 
BRANCH  14  15
ATOM     15  C   UNL     1       0.428  10.001  18.820  0.00  0.00    +0.000 C 
BRANCH  15  25
ATOM     16  C   UNL     1      -2.282  11.114  17.843  0.00  0.00    +0.000 C 
ATOM     17  C   UNL     1      -1.100  11.930  18.216  0.00  0.00    +0.000 A 
ATOM     18  N   UNL     1      -1.076  13.248  18.216  0.00  0.00    +0.000 NA
ATOM     19  C   UNL     1       0.173  13.606  18.647  0.00  0.00    +0.000 A 
ATOM     20  C   UNL     1       0.708  14.879  18.836  0.00  0.00    +0.000 A 
ATOM     21  C   UNL     1       2.025  14.996  19.296  0.00  0.00    +0.000 A 
ATOM     22  C   UNL     1       2.788  13.862  19.553  0.00  0.00    +0.000 A 
ATOM     23  C   UNL     1       2.272  12.572  19.362  0.00  0.00    +0.000 A 
ATOM     24  C   UNL     1       0.947  12.474  18.908  0.00  0.00    +0.000 A 
ATOM     25  N   UNL     1       0.111  11.413  18.631  0.00  0.00    +0.000 N 
ENDBRANCH  15  25
ENDBRANCH  14  15
ENDBRANCH   1  14
BRANCH  11  26
ATOM     26  S   UNL     1       4.641   5.320  16.335  0.00  0.00    +0.000 S 
BRANCH  26  27
ATOM     27  C   UNL     1       5.752   3.998  16.839  0.00  0.00    +0.000 C 
BRANCH  27  28
ATOM     28  C   UNL     1       7.044   4.588  17.364  0.00  0.00    +0.000 C 
ATOM     29  O   UNL     1       8.144   4.263  16.920  0.00  0.00    +0.000 OA
ATOM     30  N   UNL     1       6.884   5.510  18.373  0.00  0.00    +0.000 N 
ATOM     31  H   UNL     1       5.948   5.677  18.739  0.00  0.00    +0.000 HD
BRANCH  30  32
ATOM     32  C   UNL     1       7.994   6.147  19.031  0.00  0.00    +0.000 C 
BRANCH  32  33
ATOM     33  C   UNL     1       8.189   7.531  18.524  0.00  0.00    +0.000 A 
ATOM     34  C   UNL     1       7.646   8.233  17.458  0.00  0.00    +0.000 A 
ATOM     35  C   UNL     1       8.087   9.571  17.594  0.00  0.00    +0.000 A 
ATOM     36  C   UNL     1       8.881   9.597  18.714  0.00  0.00    +0.000 A 
ATOM     37  O   UNL     1       8.955   8.363  19.279  0.00  0.00    +0.000 OA
ENDBRANCH  32  33
ENDBRANCH  30  32
ENDBRANCH  27  28
ENDBRANCH  26  27
ENDBRANCH  11  26
TORSDOF 8
ENDMDL
MODEL 7
REMARK VINA RESULT:      -8.4      3.064      4.833
REMARK  Name = 
REMARK  9 active torsions:
REMARK  status: ('A' for Active; 'I' for Inactive)
REMARK    1  A    between atoms: C_1  and  C_2
REMARK    2  A    between atoms: N_10  and  C_11
REMARK    3  A    between atoms: C_11  and  C_12
REMARK    4  A    between atoms: C_12  and  C_13
REMARK    5  A    between atoms: C_23  and  S_24
REMARK    6  A    between atoms: S_24  and  C_25
REMARK    7  A    between atoms: C_25  and  C_26
REMARK    8  A    between atoms: N_28  and  C_29
REMARK    9  A    between atoms: C_29  and  C_30
REMARK                            x       y       z     vdW  Elec       q    Type
REMARK                         _______ _______ _______ _____ _____    ______ ____
ROOT
ATOM      1  C   UNL     1       2.528   8.215  18.393  0.00  0.00    +0.000 A 
ATOM      2  N   UNL     1       2.018   7.501  19.462  0.00  0.00    +0.000 NA
ATOM      3  C   UNL     1       2.523   6.296  19.281  0.00  0.00    +0.000 A 
ATOM      4  C   UNL     1       2.241   4.982  19.842  0.00  0.00    +0.000 A 
ATOM      5  C   UNL     1       2.258   4.648  21.191  0.00  0.00    +0.000 A 
ATOM      6  C   UNL     1       2.008   3.322  21.565  0.00  0.00    +0.000 A 
ATOM      7  C   UNL     1       1.590   2.386  20.614  0.00  0.00    +0.000 A 
ATOM      8  C   UNL     1       1.655   2.702  19.260  0.00  0.00    +0.000 A 
ATOM      9  C   UNL     1       2.174   3.941  18.890  0.00  0.00    +0.000 A 
ATOM     10  N   UNL     1       2.988   4.006  17.716  0.00  0.00    +0.000 NA
ATOM     11  C   UNL     1       3.628   5.132  17.475  0.00  0.00    +0.000 A 
ATOM     12  N   UNL     1       3.278   6.300  18.155  0.00  0.00    +0.000 N 
ATOM     13  N   UNL     1       3.421   7.542  17.656  0.00  0.00    +0.000 NA
ENDROOT
BRANCH   1  14
ATOM     14  C   UNL     1       2.036   9.545  17.912  0.00  0.00    +0.000 C 
BRANCH  14  15
ATOM     15  C   UNL     1       0.561   9.815  18.152  0.00  0.00    +0.000 C 
BRANCH  15  25
ATOM     16  C   UNL     1       0.637  12.903  18.141  0.00  0.00    +0.000 C 
ATOM     17  C   UNL     1       0.333  12.053  19.319  0.00  0.00    +0.000 A 
ATOM     18  N   UNL     1       0.014  12.520  20.509  0.00  0.00    +0.000 NA
ATOM     19  C   UNL     1      -0.217  11.425  21.299  0.00  0.00    +0.000 A 
ATOM     20  C   UNL     1      -0.596  11.369  22.638  0.00  0.00    +0.000 A 
ATOM     21  C   UNL     1      -0.781  10.116  23.236  0.00  0.00    +0.000 A 
ATOM     22  C   UNL     1      -0.583   8.949  22.506  0.00  0.00    +0.000 A 
ATOM     23  C   UNL     1      -0.194   8.983  21.159  0.00  0.00    +0.000 A 
ATOM     24  C   UNL     1      -0.021  10.247  20.575  0.00  0.00    +0.000 A 
ATOM     25  N   UNL     1       0.325  10.673  19.310  0.00  0.00    +0.000 N 
ENDBRANCH  15  25
ENDBRANCH  14  15
ENDBRANCH   1  14
BRANCH  11  26
ATOM     26  S   UNL     1       4.978   5.184  16.360  0.00  0.00    +0.000 S 
BRANCH  26  27
ATOM     27  C   UNL     1       5.591   6.862  16.569  0.00  0.00    +0.000 C 
BRANCH  27  28
ATOM     28  C   UNL     1       6.844   6.846  17.418  0.00  0.00    +0.000 C 
ATOM     29  O   UNL     1       7.351   5.800  17.823  0.00  0.00    +0.000 OA
ATOM     30  N   UNL     1       7.361   8.089  17.701  0.00  0.00    +0.000 N 
ATOM     31  H   UNL     1       6.847   8.914  17.392  0.00  0.00    +0.000 HD
BRANCH  30  32
ATOM     32  C   UNL     1       8.521   8.283  18.531  0.00  0.00    +0.000 C 
BRANCH  32  33
ATOM     33  C   UNL     1       8.882   9.723  18.611  0.00  0.00    +0.000 A 
ATOM     34  C   UNL     1       8.673  10.799  17.762  0.00  0.00    +0.000 A 
ATOM     35  C   UNL     1       9.092  11.953  18.467  0.00  0.00    +0.000 A 
ATOM     36  C   UNL     1       9.546  11.509  19.685  0.00  0.00    +0.000 A 
ATOM     37  O   UNL     1       9.430  10.157  19.777  0.00  0.00    +0.000 OA
ENDBRANCH  32  33
ENDBRANCH  30  32
ENDBRANCH  27  28
ENDBRANCH  26  27
ENDBRANCH  11  26
TORSDOF 8
ENDMDL
MODEL 8
REMARK VINA RESULT:      -8.4      1.839      2.869
REMARK  Name = 
REMARK  9 active torsions:
REMARK  status: ('A' for Active; 'I' for Inactive)
REMARK    1  A    between atoms: C_1  and  C_2
REMARK    2  A    between atoms: N_10  and  C_11
REMARK    3  A    between atoms: C_11  and  C_12
REMARK    4  A    between atoms: C_12  and  C_13
REMARK    5  A    between atoms: C_23  and  S_24
REMARK    6  A    between atoms: S_24  and  C_25
REMARK    7  A    between atoms: C_25  and  C_26
REMARK    8  A    between atoms: N_28  and  C_29
REMARK    9  A    between atoms: C_29  and  C_30
REMARK                            x       y       z     vdW  Elec       q    Type
REMARK                         _______ _______ _______ _____ _____    ______ ____
ROOT
ATOM      1  C   UNL     1       1.590   8.544  19.837  0.00  0.00    +0.000 A 
ATOM      2  N   UNL     1       1.189   7.434  20.556  0.00  0.00    +0.000 NA
ATOM      3  C   UNL     1       1.908   6.463  20.028  0.00  0.00    +0.000 A 
ATOM      4  C   UNL     1       1.853   5.009  20.090  0.00  0.00    +0.000 A 
ATOM      5  C   UNL     1       1.894   4.238  21.246  0.00  0.00    +0.000 A 
ATOM      6  C   UNL     1       1.878   2.842  21.131  0.00  0.00    +0.000 A 
ATOM      7  C   UNL     1       1.661   2.237  19.890  0.00  0.00    +0.000 A 
ATOM      8  C   UNL     1       1.704   3.007  18.731  0.00  0.00    +0.000 A 
ATOM      9  C   UNL     1       2.000   4.363  18.843  0.00  0.00    +0.000 A 
ATOM     10  N   UNL     1       2.821   4.958  17.833  0.00  0.00    +0.000 NA
ATOM     11  C   UNL     1       3.252   6.186  18.039  0.00  0.00    +0.000 A 
ATOM     12  N   UNL     1       2.679   6.975  19.037  0.00  0.00    +0.000 N 
ATOM     13  N   UNL     1       2.609   8.320  18.997  0.00  0.00    +0.000 NA
ENDROOT
BRANCH   1  14
ATOM     14  C   UNL     1       0.879   9.861  19.787  0.00  0.00    +0.000 C 
BRANCH  14  15
ATOM     15  C   UNL     1      -0.555   9.842  20.286  0.00  0.00    +0.000 C 
BRANCH  15  25
ATOM     16  C   UNL     1      -0.014   9.353  23.288  0.00  0.00    +0.000 C 
ATOM     17  C   UNL     1      -0.539  10.611  22.701  0.00  0.00    +0.000 A 
ATOM     18  N   UNL     1      -0.802  11.701  23.393  0.00  0.00    +0.000 NA
ATOM     19  C   UNL     1      -1.233  12.634  22.487  0.00  0.00    +0.000 A 
ATOM     20  C   UNL     1      -1.625  13.953  22.700  0.00  0.00    +0.000 A 
ATOM     21  C   UNL     1      -2.025  14.725  21.602  0.00  0.00    +0.000 A 
ATOM     22  C   UNL     1      -2.036  14.180  20.323  0.00  0.00    +0.000 A 
ATOM     23  C   UNL     1      -1.653  12.852  20.087  0.00  0.00    +0.000 A 
ATOM     24  C   UNL     1      -1.248  12.097  21.198  0.00  0.00    +0.000 A 
ATOM     25  N   UNL     1      -0.794  10.804  21.358  0.00  0.00    +0.000 N 
ENDBRANCH  15  25
ENDBRANCH  14  15
ENDBRANCH   1  14
BRANCH  11  26
ATOM     26  S   UNL     1       4.600   6.835  17.127  0.00  0.00    +0.000 S 
BRANCH  26  27
ATOM     27  C   UNL     1       6.019   6.092  17.947  0.00  0.00    +0.000 C 
BRANCH  27  28
ATOM     28  C   UNL     1       6.566   4.964  17.098  0.00  0.00    +0.000 C 
ATOM     29  O   UNL     1       7.716   4.545  17.223  0.00  0.00    +0.000 OA
ATOM     30  N   UNL     1       5.677   4.456  16.178  0.00  0.00    +0.000 N 
ATOM     31  H   UNL     1       4.765   4.901  16.082  0.00  0.00    +0.000 HD
BRANCH  30  32
ATOM     32  C   UNL     1       6.025   3.413  15.250  0.00  0.00    +0.000 C 
BRANCH  32  33
ATOM     33  C   UNL     1       6.501   3.984  13.962  0.00  0.00    +0.000 A 
ATOM     34  C   UNL     1       7.304   5.071  13.650  0.00  0.00    +0.000 A 
ATOM     35  C   UNL     1       7.546   5.002  12.257  0.00  0.00    +0.000 A 
ATOM     36  C   UNL     1       6.863   3.898  11.807  0.00  0.00    +0.000 A 
ATOM     37  O   UNL     1       6.221   3.280  12.834  0.00  0.00    +0.000 OA
ENDBRANCH  32  33
ENDBRANCH  30  32
ENDBRANCH  27  28
ENDBRANCH  26  27
ENDBRANCH  11  26
TORSDOF 8
ENDMDL
MODEL 9
REMARK VINA RESULT:      -8.4      4.889     10.859
REMARK  Name = 
REMARK  9 active torsions:
REMARK  status: ('A' for Active; 'I' for Inactive)
REMARK    1  A    between atoms: C_1  and  C_2
REMARK    2  A    between atoms: N_10  and  C_11
REMARK    3  A    between atoms: C_11  and  C_12
REMARK    4  A    between atoms: C_12  and  C_13
REMARK    5  A    between atoms: C_23  and  S_24
REMARK    6  A    between atoms: S_24  and  C_25
REMARK    7  A    between atoms: C_25  and  C_26
REMARK    8  A    between atoms: N_28  and  C_29
REMARK    9  A    between atoms: C_29  and  C_30
REMARK                            x       y       z     vdW  Elec       q    Type
REMARK                         _______ _______ _______ _____ _____    ______ ____
ROOT
ATOM      1  C   UNL     1       1.665   8.614  18.501  0.00  0.00    +0.000 A 
ATOM      2  N   UNL     1       1.540   8.816  19.863  0.00  0.00    +0.000 NA
ATOM      3  C   UNL     1       0.453   9.557  19.955  0.00  0.00    +0.000 A 
ATOM      4  C   UNL     1      -0.148  10.353  21.016  0.00  0.00    +0.000 A 
ATOM      5  C   UNL     1      -0.508   9.894  22.278  0.00  0.00    +0.000 A 
ATOM      6  C   UNL     1      -1.120  10.781  23.172  0.00  0.00    +0.000 A 
ATOM      7  C   UNL     1      -1.220  12.140  22.863  0.00  0.00    +0.000 A 
ATOM      8  C   UNL     1      -0.936  12.577  21.573  0.00  0.00    +0.000 A 
ATOM      9  C   UNL     1      -0.591  11.630  20.610  0.00  0.00    +0.000 A 
ATOM     10  N   UNL     1      -1.078  11.818  19.278  0.00  0.00    +0.000 NA
ATOM     11  C   UNL     1      -0.911  10.832  18.420  0.00  0.00    +0.000 A 
ATOM     12  N   UNL     1      -0.026   9.791  18.708  0.00  0.00    +0.000 N 
ATOM     13  N   UNL     1       0.637   9.078  17.777  0.00  0.00    +0.000 NA
ENDROOT
BRANCH   1  14
ATOM     14  C   UNL     1       2.889   8.117  17.796  0.00  0.00    +0.000 C 
BRANCH  14  15
ATOM     15  C   UNL     1       3.682   7.060  18.544  0.00  0.00    +0.000 C 
BRANCH  15  25
ATOM     16  C   UNL     1       5.226   5.872  16.148  0.00  0.00    +0.000 C 
ATOM     17  C   UNL     1       4.191   5.164  16.941  0.00  0.00    +0.000 A 
ATOM     18  N   UNL     1       3.830   3.913  16.744  0.00  0.00    +0.000 NA
ATOM     19  C   UNL     1       2.883   3.635  17.693  0.00  0.00    +0.000 A 
ATOM     20  C   UNL     1       2.191   2.449  17.925  0.00  0.00    +0.000 A 
ATOM     21  C   UNL     1       1.262   2.402  18.973  0.00  0.00    +0.000 A 
ATOM     22  C   UNL     1       1.032   3.523  19.763  0.00  0.00    +0.000 A 
ATOM     23  C   UNL     1       1.712   4.729  19.541  0.00  0.00    +0.000 A 
ATOM     24  C   UNL     1       2.644   4.755  18.492  0.00  0.00    +0.000 A 
ATOM     25  N   UNL     1       3.496   5.720  17.997  0.00  0.00    +0.000 N 
ENDBRANCH  15  25
ENDBRANCH  14  15
ENDBRANCH   1  14
BRANCH  11  26
ATOM     26  S   UNL     1      -1.842  10.755  16.939  0.00  0.00    +0.000 S 
BRANCH  26  27
ATOM     27  C   UNL     1      -3.349   9.928  17.469  0.00  0.00    +0.000 C 
BRANCH  27  28
ATOM     28  C   UNL     1      -4.486  10.927  17.527  0.00  0.00    +0.000 C 
ATOM     29  O   UNL     1      -4.641  11.798  16.673  0.00  0.00    +0.000 OA
ATOM     30  N   UNL     1      -5.321  10.781  18.611  0.00  0.00    +0.000 N 
ATOM     31  H   UNL     1      -5.089  10.083  19.316  0.00  0.00    +0.000 HD
BRANCH  30  32
ATOM     32  C   UNL     1      -6.430  11.662  18.867  0.00  0.00    +0.000 C 
BRANCH  32  33
ATOM     33  C   UNL     1      -6.418  12.138  20.275  0.00  0.00    +0.000 A 
ATOM     34  C   UNL     1      -7.357  12.095  21.295  0.00  0.00    +0.000 A 
ATOM     35  C   UNL     1      -6.699  12.549  22.463  0.00  0.00    +0.000 A 
ATOM     36  C   UNL     1      -5.416  12.858  22.081  0.00  0.00    +0.000 A 
ATOM     37  O   UNL     1      -5.241  12.619  20.754  0.00  0.00    +0.000 OA
ENDBRANCH  32  33
ENDBRANCH  30  32
ENDBRANCH  27  28
ENDBRANCH  26  27
ENDBRANCH  11  26
TORSDOF 8
ENDMDL
