MODEL 1
REMARK VINA RESULT:      -6.7      0.000      0.000
REMARK  Name = 
REMARK  6 active torsions:
REMARK  status: ('A' for Active; 'I' for Inactive)
REMARK    1  A    between atoms: C_2  and  O_3
REMARK    2  A    between atoms: C_2  and  C_4
REMARK    3  A    between atoms: C_4  and  C_5
REMARK    4  A    between atoms: C_5  and  C_6
REMARK    5  A    between atoms: C_6  and  N_7
REMARK    6  A    between atoms: C_11  and  C_12
REMARK                            x       y       z     vdW  Elec       q    Type
REMARK                         _______ _______ _______ _____ _____    ______ ____
ROOT
ATOM      1  N   UNL     1       5.617   5.482  16.844  0.00  0.00    +0.000 N 
ATOM      2  C   UNL     1       4.852   4.756  17.742  0.00  0.00    +0.000 C 
ATOM      3  O   UNL     1       4.491   5.163  18.838  0.00  0.00    +0.000 OA
ATOM      4  C   UNL     1       4.544   3.403  17.188  0.00  0.00    +0.000 C 
ATOM      5  C   UNL     1       3.742   2.468  17.716  0.00  0.00    +0.000 C 
ATOM      6  S   UNL     1       5.347   3.199  15.677  0.00  0.00    +0.000 S 
ATOM      7  C   UNL     1       5.951   4.851  15.665  0.00  0.00    +0.000 C 
ATOM      8  S   UNL     1       6.801   5.475  14.371  0.00  0.00    +0.000 S 
ENDROOT
BRANCH   5   9
ATOM      9  C   UNL     1       2.970   2.659  18.945  0.00  0.00    +0.000 A 
ATOM     10  C   UNL     1       3.573   2.400  20.184  0.00  0.00    +0.000 A 
ATOM     11  C   UNL     1       2.821   2.476  21.356  0.00  0.00    +0.000 A 
ATOM     12  C   UNL     1       1.476   2.815  21.285  0.00  0.00    +0.000 A 
ATOM     13  F   UNL     1       0.748   2.861  22.409  0.00  0.00    +0.000 F 
ATOM     14  C   UNL     1       0.870   3.099  20.065  0.00  0.00    +0.000 A 
ATOM     15  C   UNL     1       1.620   3.026  18.890  0.00  0.00    +0.000 A 
ENDBRANCH   5   9
BRANCH   1  16
ATOM     16  C   UNL     1       5.980   6.856  17.194  0.00  0.00    +0.000 C 
BRANCH  16  17
ATOM     17  C   UNL     1       7.498   7.046  17.260  0.00  0.00    +0.000 C 
BRANCH  17  18
ATOM     18  C   UNL     1       8.007   6.988  18.701  0.00  0.00    +0.000 C 
BRANCH  18  20
ATOM     19  O   UNL     1       8.211   4.576  18.518  0.00  0.00    +0.000 OA
ATOM     20  C   UNL     1       8.066   5.568  19.212  0.00  0.00    +0.000 C 
BRANCH  20  21
ATOM     21  O   UNL     1       7.932   5.495  20.556  0.00  0.00    +0.000 OA
ATOM     22  H   UNL     1       7.878   4.585  20.905  0.00  0.00    +0.000 HD
ENDBRANCH  20  21
ENDBRANCH  18  20
ENDBRANCH  17  18
ENDBRANCH  16  17
ENDBRANCH   1  16
TORSDOF 6
ENDMDL
MODEL 2
REMARK VINA RESULT:      -6.4      1.680      1.921
REMARK  Name = 
REMARK  6 active torsions:
REMARK  status: ('A' for Active; 'I' for Inactive)
REMARK    1  A    between atoms: C_2  and  O_3
REMARK    2  A    between atoms: C_2  and  C_4
REMARK    3  A    between atoms: C_4  and  C_5
REMARK    4  A    between atoms: C_5  and  C_6
REMARK    5  A    between atoms: C_6  and  N_7
REMARK    6  A    between atoms: C_11  and  C_12
REMARK                            x       y       z     vdW  Elec       q    Type
REMARK                         _______ _______ _______ _____ _____    ______ ____
ROOT
ATOM      1  N   UNL     1       6.450   4.470  17.166  0.00  0.00    +0.000 N 
ATOM      2  C   UNL     1       5.332   4.022  17.850  0.00  0.00    +0.000 C 
ATOM      3  O   UNL     1       5.291   3.802  19.052  0.00  0.00    +0.000 OA
ATOM      4  C   UNL     1       4.189   3.831  16.906  0.00  0.00    +0.000 C 
ATOM      5  C   UNL     1       2.922   3.516  17.212  0.00  0.00    +0.000 C 
ATOM      6  S   UNL     1       4.712   4.134  15.292  0.00  0.00    +0.000 S 
ATOM      7  C   UNL     1       6.318   4.638  15.805  0.00  0.00    +0.000 C 
ATOM      8  S   UNL     1       7.452   5.217  14.726  0.00  0.00    +0.000 S 
ENDROOT
BRANCH   5   9
ATOM      9  C   UNL     1       2.433   3.355  18.581  0.00  0.00    +0.000 A 
ATOM     10  C   UNL     1       2.481   2.091  19.185  0.00  0.00    +0.000 A 
ATOM     11  C   UNL     1       1.923   1.898  20.449  0.00  0.00    +0.000 A 
ATOM     12  C   UNL     1       1.326   2.969  21.103  0.00  0.00    +0.000 A 
ATOM     13  F   UNL     1       0.767   2.777  22.306  0.00  0.00    +0.000 F 
ATOM     14  C   UNL     1       1.293   4.235  20.526  0.00  0.00    +0.000 A 
ATOM     15  C   UNL     1       1.852   4.432  19.263  0.00  0.00    +0.000 A 
ENDBRANCH   5   9
BRANCH   1  16
ATOM     16  C   UNL     1       7.662   4.759  17.935  0.00  0.00    +0.000 C 
BRANCH  16  17
ATOM     17  C   UNL     1       7.455   5.918  18.914  0.00  0.00    +0.000 C 
BRANCH  17  18
ATOM     18  C   UNL     1       8.354   7.107  18.572  0.00  0.00    +0.000 C 
BRANCH  18  20
ATOM     19  O   UNL     1       6.725   7.878  16.946  0.00  0.00    +0.000 OA
ATOM     20  C   UNL     1       7.629   8.126  17.725  0.00  0.00    +0.000 C 
BRANCH  20  21
ATOM     21  O   UNL     1       8.096   9.382  17.912  0.00  0.00    +0.000 OA
ATOM     22  H   UNL     1       8.118   9.668  18.844  0.00  0.00    +0.000 HD
ENDBRANCH  20  21
ENDBRANCH  18  20
ENDBRANCH  17  18
ENDBRANCH  16  17
ENDBRANCH   1  16
TORSDOF 6
ENDMDL
MODEL 3
REMARK VINA RESULT:      -6.4      1.696      2.053
REMARK  Name = 
REMARK  6 active torsions:
REMARK  status: ('A' for Active; 'I' for Inactive)
REMARK    1  A    between atoms: C_2  and  O_3
REMARK    2  A    between atoms: C_2  and  C_4
REMARK    3  A    between atoms: C_4  and  C_5
REMARK    4  A    between atoms: C_5  and  C_6
REMARK    5  A    between atoms: C_6  and  N_7
REMARK    6  A    between atoms: C_11  and  C_12
REMARK                            x       y       z     vdW  Elec       q    Type
REMARK                         _______ _______ _______ _____ _____    ______ ____
ROOT
ATOM      1  N   UNL     1       6.378   4.448  17.120  0.00  0.00    +0.000 N 
ATOM      2  C   UNL     1       5.220   4.014  17.744  0.00  0.00    +0.000 C 
ATOM      3  O   UNL     1       5.121   3.768  18.938  0.00  0.00    +0.000 OA
ATOM      4  C   UNL     1       4.114   3.877  16.748  0.00  0.00    +0.000 C 
ATOM      5  C   UNL     1       2.828   3.589  16.992  0.00  0.00    +0.000 C 
ATOM      6  S   UNL     1       4.715   4.203  15.166  0.00  0.00    +0.000 S 
ATOM      7  C   UNL     1       6.309   4.651  15.759  0.00  0.00    +0.000 C 
ATOM      8  S   UNL     1       7.503   5.225  14.744  0.00  0.00    +0.000 S 
ENDROOT
BRANCH   5   9
ATOM      9  C   UNL     1       2.275   3.409  18.335  0.00  0.00    +0.000 A 
ATOM     10  C   UNL     1       1.839   4.529  19.056  0.00  0.00    +0.000 A 
ATOM     11  C   UNL     1       1.409   4.387  20.375  0.00  0.00    +0.000 A 
ATOM     12  C   UNL     1       1.411   3.127  20.962  0.00  0.00    +0.000 A 
ATOM     13  F   UNL     1       1.022   2.995  22.238  0.00  0.00    +0.000 F 
ATOM     14  C   UNL     1       1.817   2.003  20.251  0.00  0.00    +0.000 A 
ATOM     15  C   UNL     1       2.246   2.142  18.930  0.00  0.00    +0.000 A 
ENDBRANCH   5   9
BRANCH   1  16
ATOM     16  C   UNL     1       7.563   4.686  17.947  0.00  0.00    +0.000 C 
BRANCH  16  17
ATOM     17  C   UNL     1       7.357   5.853  18.916  0.00  0.00    +0.000 C 
BRANCH  17  18
ATOM     18  C   UNL     1       8.314   7.007  18.616  0.00  0.00    +0.000 C 
BRANCH  18  20
ATOM     19  O   UNL     1       6.714   7.858  17.001  0.00  0.00    +0.000 OA
ATOM     20  C   UNL     1       7.667   8.051  17.737  0.00  0.00    +0.000 C 
BRANCH  20  21
ATOM     21  O   UNL     1       8.266   9.260  17.840  0.00  0.00    +0.000 OA
ATOM     22  H   UNL     1       7.711  10.009  17.551  0.00  0.00    +0.000 HD
ENDBRANCH  20  21
ENDBRANCH  18  20
ENDBRANCH  17  18
ENDBRANCH  16  17
ENDBRANCH   1  16
TORSDOF 6
ENDMDL
MODEL 4
REMARK VINA RESULT:      -6.4      3.875      6.425
REMARK  Name = 
REMARK  6 active torsions:
REMARK  status: ('A' for Active; 'I' for Inactive)
REMARK    1  A    between atoms: C_2  and  O_3
REMARK    2  A    between atoms: C_2  and  C_4
REMARK    3  A    between atoms: C_4  and  C_5
REMARK    4  A    between atoms: C_5  and  C_6
REMARK    5  A    between atoms: C_6  and  N_7
REMARK    6  A    between atoms: C_11  and  C_12
REMARK                            x       y       z     vdW  Elec       q    Type
REMARK                         _______ _______ _______ _____ _____    ______ ____
ROOT
ATOM      1  N   UNL     1       2.697   4.350  19.626  0.00  0.00    +0.000 N 
ATOM      2  C   UNL     1       3.821   4.977  19.113  0.00  0.00    +0.000 C 
ATOM      3  O   UNL     1       4.360   5.957  19.607  0.00  0.00    +0.000 OA
ATOM      4  C   UNL     1       4.270   4.293  17.862  0.00  0.00    +0.000 C 
ATOM      5  C   UNL     1       5.377   4.543  17.149  0.00  0.00    +0.000 C 
ATOM      6  S   UNL     1       3.159   3.040  17.455  0.00  0.00    +0.000 S 
ATOM      7  C   UNL     1       2.212   3.271  18.920  0.00  0.00    +0.000 C 
ATOM      8  S   UNL     1       0.927   2.281  19.310  0.00  0.00    +0.000 S 
ENDROOT
BRANCH   5   9
ATOM      9  C   UNL     1       6.385   5.532  17.531  0.00  0.00    +0.000 A 
ATOM     10  C   UNL     1       7.308   5.220  18.539  0.00  0.00    +0.000 A 
ATOM     11  C   UNL     1       8.207   6.188  18.987  0.00  0.00    +0.000 A 
ATOM     12  C   UNL     1       8.182   7.457  18.423  0.00  0.00    +0.000 A 
ATOM     13  F   UNL     1       9.028   8.394  18.873  0.00  0.00    +0.000 F 
ATOM     14  C   UNL     1       7.288   7.773  17.405  0.00  0.00    +0.000 A 
ATOM     15  C   UNL     1       6.389   6.807  16.952  0.00  0.00    +0.000 A 
ENDBRANCH   5   9
BRANCH   1  16
ATOM     16  C   UNL     1       2.137   4.853  20.882  0.00  0.00    +0.000 C 
BRANCH  16  17
ATOM     17  C   UNL     1       1.056   5.910  20.642  0.00  0.00    +0.000 C 
BRANCH  17  18
ATOM     18  C   UNL     1       1.656   7.313  20.544  0.00  0.00    +0.000 C 
BRANCH  18  20
ATOM     19  O   UNL     1      -0.216   8.495  21.541  0.00  0.00    +0.000 OA
ATOM     20  C   UNL     1       0.982   8.273  21.496  0.00  0.00    +0.000 C 
BRANCH  20  21
ATOM     21  O   UNL     1       1.862   8.890  22.319  0.00  0.00    +0.000 OA
ATOM     22  H   UNL     1       2.304   8.295  22.954  0.00  0.00    +0.000 HD
ENDBRANCH  20  21
ENDBRANCH  18  20
ENDBRANCH  17  18
ENDBRANCH  16  17
ENDBRANCH   1  16
TORSDOF 6
ENDMDL
MODEL 5
REMARK VINA RESULT:      -6.4      5.880      7.226
REMARK  Name = 
REMARK  6 active torsions:
REMARK  status: ('A' for Active; 'I' for Inactive)
REMARK    1  A    between atoms: C_2  and  O_3
REMARK    2  A    between atoms: C_2  and  C_4
REMARK    3  A    between atoms: C_4  and  C_5
REMARK    4  A    between atoms: C_5  and  C_6
REMARK    5  A    between atoms: C_6  and  N_7
REMARK    6  A    between atoms: C_11  and  C_12
REMARK                            x       y       z     vdW  Elec       q    Type
REMARK                         _______ _______ _______ _____ _____    ______ ____
ROOT
ATOM      1  N   UNL     1       0.992   8.670  20.052  0.00  0.00    +0.000 N 
ATOM      2  C   UNL     1       1.856   7.643  19.707  0.00  0.00    +0.000 C 
ATOM      3  O   UNL     1       2.045   6.636  20.374  0.00  0.00    +0.000 OA
ATOM      4  C   UNL     1       2.534   7.949  18.411  0.00  0.00    +0.000 C 
ATOM      5  C   UNL     1       3.348   7.150  17.707  0.00  0.00    +0.000 C 
ATOM      6  S   UNL     1       2.074   9.521  17.873  0.00  0.00    +0.000 S 
ATOM      7  C   UNL     1       0.927   9.742  19.188  0.00  0.00    +0.000 C 
ATOM      8  S   UNL     1      -0.053  11.088  19.293  0.00  0.00    +0.000 S 
ENDROOT
BRANCH   5   9
ATOM      9  C   UNL     1       3.670   5.776  18.092  0.00  0.00    +0.000 A 
ATOM     10  C   UNL     1       2.770   4.746  17.787  0.00  0.00    +0.000 A 
ATOM     11  C   UNL     1       3.012   3.449  18.239  0.00  0.00    +0.000 A 
ATOM     12  C   UNL     1       4.154   3.188  18.987  0.00  0.00    +0.000 A 
ATOM     13  F   UNL     1       4.373   1.947  19.443  0.00  0.00    +0.000 F 
ATOM     14  C   UNL     1       5.069   4.195  19.276  0.00  0.00    +0.000 A 
ATOM     15  C   UNL     1       4.831   5.494  18.823  0.00  0.00    +0.000 A 
ENDBRANCH   5   9
BRANCH   1  16
ATOM     16  C   UNL     1       0.200   8.526  21.275  0.00  0.00    +0.000 C 
BRANCH  16  17
ATOM     17  C   UNL     1       0.708   9.438  22.395  0.00  0.00    +0.000 C 
BRANCH  17  18
ATOM     18  C   UNL     1      -0.426   9.863  23.329  0.00  0.00    +0.000 C 
BRANCH  18  20
ATOM     19  O   UNL     1      -0.190  12.179  22.638  0.00  0.00    +0.000 OA
ATOM     20  C   UNL     1      -0.899  11.265  23.025  0.00  0.00    +0.000 C 
BRANCH  20  21
ATOM     21  O   UNL     1      -2.227  11.421  23.237  0.00  0.00    +0.000 OA
ATOM     22  H   UNL     1      -2.745  10.598  23.164  0.00  0.00    +0.000 HD
ENDBRANCH  20  21
ENDBRANCH  18  20
ENDBRANCH  17  18
ENDBRANCH  16  17
ENDBRANCH   1  16
TORSDOF 6
ENDMDL
MODEL 6
REMARK VINA RESULT:      -6.3      5.823      7.076
REMARK  Name = 
REMARK  6 active torsions:
REMARK  status: ('A' for Active; 'I' for Inactive)
REMARK    1  A    between atoms: C_2  and  O_3
REMARK    2  A    between atoms: C_2  and  C_4
REMARK    3  A    between atoms: C_4  and  C_5
REMARK    4  A    between atoms: C_5  and  C_6
REMARK    5  A    between atoms: C_6  and  N_7
REMARK    6  A    between atoms: C_11  and  C_12
REMARK                            x       y       z     vdW  Elec       q    Type
REMARK                         _______ _______ _______ _____ _____    ______ ____
ROOT
ATOM      1  N   UNL     1       1.498   8.810  20.300  0.00  0.00    +0.000 N 
ATOM      2  C   UNL     1       1.960   7.589  19.837  0.00  0.00    +0.000 C 
ATOM      3  O   UNL     1       2.137   6.600  20.535  0.00  0.00    +0.000 OA
ATOM      4  C   UNL     1       2.226   7.658  18.368  0.00  0.00    +0.000 C 
ATOM      5  C   UNL     1       2.575   6.651  17.554  0.00  0.00    +0.000 C 
ATOM      6  S   UNL     1       1.964   9.266  17.806  0.00  0.00    +0.000 S 
ATOM      7  C   UNL     1       1.385   9.822  19.372  0.00  0.00    +0.000 C 
ATOM      8  S   UNL     1       0.806  11.370  19.604  0.00  0.00    +0.000 S 
ENDROOT
BRANCH   5   9
ATOM      9  C   UNL     1       2.703   5.260  17.990  0.00  0.00    +0.000 A 
ATOM     10  C   UNL     1       3.949   4.786  18.420  0.00  0.00    +0.000 A 
ATOM     11  C   UNL     1       4.112   3.437  18.738  0.00  0.00    +0.000 A 
ATOM     12  C   UNL     1       3.028   2.574  18.631  0.00  0.00    +0.000 A 
ATOM     13  F   UNL     1       3.192   1.274  18.911  0.00  0.00    +0.000 F 
ATOM     14  C   UNL     1       1.779   3.036  18.229  0.00  0.00    +0.000 A 
ATOM     15  C   UNL     1       1.612   4.385  17.912  0.00  0.00    +0.000 A 
ENDBRANCH   5   9
BRANCH   1  16
ATOM     16  C   UNL     1       1.138   8.923  21.715  0.00  0.00    +0.000 C 
BRANCH  16  17
ATOM     17  C   UNL     1      -0.376   9.036  21.911  0.00  0.00    +0.000 C 
BRANCH  17  18
ATOM     18  C   UNL     1      -0.721   9.702  23.244  0.00  0.00    +0.000 C 
BRANCH  18  20
ATOM     19  O   UNL     1      -0.248  12.036  22.772  0.00  0.00    +0.000 OA
ATOM     20  C   UNL     1      -1.050  11.165  23.064  0.00  0.00    +0.000 C 
BRANCH  20  21
ATOM     21  O   UNL     1      -2.360  11.431  23.270  0.00  0.00    +0.000 OA
ATOM     22  H   UNL     1      -2.538  12.324  23.623  0.00  0.00    +0.000 HD
ENDBRANCH  20  21
ENDBRANCH  18  20
ENDBRANCH  17  18
ENDBRANCH  16  17
ENDBRANCH   1  16
TORSDOF 6
ENDMDL
MODEL 7
REMARK VINA RESULT:      -6.3      5.150      6.815
REMARK  Name = 
REMARK  6 active torsions:
REMARK  status: ('A' for Active; 'I' for Inactive)
REMARK    1  A    between atoms: C_2  and  O_3
REMARK    2  A    between atoms: C_2  and  C_4
REMARK    3  A    between atoms: C_4  and  C_5
REMARK    4  A    between atoms: C_5  and  C_6
REMARK    5  A    between atoms: C_6  and  N_7
REMARK    6  A    between atoms: C_11  and  C_12
REMARK                            x       y       z     vdW  Elec       q    Type
REMARK                         _______ _______ _______ _____ _____    ______ ____
ROOT
ATOM      1  N   UNL     1       2.867   5.911  19.837  0.00  0.00    +0.000 N 
ATOM      2  C   UNL     1       2.098   7.024  19.539  0.00  0.00    +0.000 C 
ATOM      3  O   UNL     1       1.142   7.408  20.199  0.00  0.00    +0.000 OA
ATOM      4  C   UNL     1       2.593   7.678  18.290  0.00  0.00    +0.000 C 
ATOM      5  C   UNL     1       2.175   8.832  17.753  0.00  0.00    +0.000 C 
ATOM      6  S   UNL     1       3.874   6.743  17.615  0.00  0.00    +0.000 S 
ATOM      7  C   UNL     1       3.891   5.614  18.964  0.00  0.00    +0.000 C 
ATOM      8  S   UNL     1       5.018   4.389  19.081  0.00  0.00    +0.000 S 
ENDROOT
BRANCH   5   9
ATOM      9  C   UNL     1       1.160   9.693  18.363  0.00  0.00    +0.000 A 
ATOM     10  C   UNL     1       1.527  10.561  19.400  0.00  0.00    +0.000 A 
ATOM     11  C   UNL     1       0.554  11.310  20.061  0.00  0.00    +0.000 A 
ATOM     12  C   UNL     1      -0.777  11.191  19.679  0.00  0.00    +0.000 A 
ATOM     13  F   UNL     1      -1.714  11.891  20.333  0.00  0.00    +0.000 F 
ATOM     14  C   UNL     1      -1.152  10.352  18.635  0.00  0.00    +0.000 A 
ATOM     15  C   UNL     1      -0.181   9.603  17.969  0.00  0.00    +0.000 A 
ENDBRANCH   5   9
BRANCH   1  16
ATOM     16  C   UNL     1       2.560   5.163  21.058  0.00  0.00    +0.000 C 
BRANCH  16  17
ATOM     17  C   UNL     1       2.179   3.711  20.758  0.00  0.00    +0.000 C 
BRANCH  17  18
ATOM     18  C   UNL     1       0.890   3.628  19.938  0.00  0.00    +0.000 C 
BRANCH  18  20
ATOM     19  O   UNL     1       1.221   3.723  17.535  0.00  0.00    +0.000 OA
ATOM     20  C   UNL     1       1.144   3.066  18.560  0.00  0.00    +0.000 C 
BRANCH  20  21
ATOM     21  O   UNL     1       1.276   1.719  18.565  0.00  0.00    +0.000 OA
ATOM     22  H   UNL     1       2.199   1.406  18.520  0.00  0.00    +0.000 HD
ENDBRANCH  20  21
ENDBRANCH  18  20
ENDBRANCH  17  18
ENDBRANCH  16  17
ENDBRANCH   1  16
TORSDOF 6
ENDMDL
MODEL 8
REMARK VINA RESULT:      -6.2      5.804      7.607
REMARK  Name = 
REMARK  6 active torsions:
REMARK  status: ('A' for Active; 'I' for Inactive)
REMARK    1  A    between atoms: C_2  and  O_3
REMARK    2  A    between atoms: C_2  and  C_4
REMARK    3  A    between atoms: C_4  and  C_5
REMARK    4  A    between atoms: C_5  and  C_6
REMARK    5  A    between atoms: C_6  and  N_7
REMARK    6  A    between atoms: C_11  and  C_12
REMARK                            x       y       z     vdW  Elec       q    Type
REMARK                         _______ _______ _______ _____ _____    ______ ____
ROOT
ATOM      1  N   UNL     1       1.899   8.335  19.199  0.00  0.00    +0.000 N 
ATOM      2  C   UNL     1       2.763   7.499  18.511  0.00  0.00    +0.000 C 
ATOM      3  O   UNL     1       3.252   7.749  17.418  0.00  0.00    +0.000 OA
ATOM      4  C   UNL     1       3.001   6.245  19.288  0.00  0.00    +0.000 C 
ATOM      5  C   UNL     1       3.858   5.256  18.999  0.00  0.00    +0.000 C 
ATOM      6  S   UNL     1       2.024   6.249  20.708  0.00  0.00    +0.000 S 
ATOM      7  C   UNL     1       1.426   7.877  20.410  0.00  0.00    +0.000 C 
ATOM      8  S   UNL     1       0.432   8.668  21.491  0.00  0.00    +0.000 S 
ENDROOT
BRANCH   5   9
ATOM      9  C   UNL     1       4.769   5.279  17.854  0.00  0.00    +0.000 A 
ATOM     10  C   UNL     1       4.425   4.586  16.686  0.00  0.00    +0.000 A 
ATOM     11  C   UNL     1       5.328   4.511  15.626  0.00  0.00    +0.000 A 
ATOM     12  C   UNL     1       6.566   5.133  15.737  0.00  0.00    +0.000 A 
ATOM     13  F   UNL     1       7.444   5.038  14.728  0.00  0.00    +0.000 F 
ATOM     14  C   UNL     1       6.911   5.845  16.881  0.00  0.00    +0.000 A 
ATOM     15  C   UNL     1       6.009   5.925  17.943  0.00  0.00    +0.000 A 
ENDBRANCH   5   9
BRANCH   1  16
ATOM     16  C   UNL     1       1.582   9.639  18.613  0.00  0.00    +0.000 C 
BRANCH  16  17
ATOM     17  C   UNL     1       0.227   9.631  17.902  0.00  0.00    +0.000 C 
BRANCH  17  18
ATOM     18  C   UNL     1      -0.684  10.746  18.419  0.00  0.00    +0.000 C 
BRANCH  18  20
ATOM     19  O   UNL     1      -2.677   9.769  17.436  0.00  0.00    +0.000 OA
ATOM     20  C   UNL     1      -2.012  10.756  17.699  0.00  0.00    +0.000 C 
BRANCH  20  21
ATOM     21  O   UNL     1      -2.405  12.004  17.355  0.00  0.00    +0.000 OA
ATOM     22  H   UNL     1      -3.184  12.330  17.845  0.00  0.00    +0.000 HD
ENDBRANCH  20  21
ENDBRANCH  18  20
ENDBRANCH  17  18
ENDBRANCH  16  17
ENDBRANCH   1  16
TORSDOF 6
ENDMDL
MODEL 9
REMARK VINA RESULT:      -6.2      3.307      6.093
REMARK  Name = 
REMARK  6 active torsions:
REMARK  status: ('A' for Active; 'I' for Inactive)
REMARK    1  A    between atoms: C_2  and  O_3
REMARK    2  A    between atoms: C_2  and  C_4
REMARK    3  A    between atoms: C_4  and  C_5
REMARK    4  A    between atoms: C_5  and  C_6
REMARK    5  A    between atoms: C_6  and  N_7
REMARK    6  A    between atoms: C_11  and  C_12
REMARK                            x       y       z     vdW  Elec       q    Type
REMARK                         _______ _______ _______ _____ _____    ______ ____
ROOT
ATOM      1  N   UNL     1       2.519   4.482  18.578  0.00  0.00    +0.000 N 
ATOM      2  C   UNL     1       3.764   5.019  18.295  0.00  0.00    +0.000 C 
ATOM      3  O   UNL     1       4.110   6.159  18.570  0.00  0.00    +0.000 OA
ATOM      4  C   UNL     1       4.617   4.012  17.595  0.00  0.00    +0.000 C 
ATOM      5  C   UNL     1       5.911   4.128  17.264  0.00  0.00    +0.000 C 
ATOM      6  S   UNL     1       3.701   2.583  17.296  0.00  0.00    +0.000 S 
ATOM      7  C   UNL     1       2.297   3.184  18.170  0.00  0.00    +0.000 C 
ATOM      8  S   UNL     1       0.938   2.248  18.416  0.00  0.00    +0.000 S 
ENDROOT
BRANCH   5   9
ATOM      9  C   UNL     1       6.735   5.290  17.598  0.00  0.00    +0.000 A 
ATOM     10  C   UNL     1       7.443   5.306  18.807  0.00  0.00    +0.000 A 
ATOM     11  C   UNL     1       8.148   6.448  19.189  0.00  0.00    +0.000 A 
ATOM     12  C   UNL     1       8.146   7.562  18.358  0.00  0.00    +0.000 A 
ATOM     13  F   UNL     1       8.801   8.667  18.738  0.00  0.00    +0.000 F 
ATOM     14  C   UNL     1       7.468   7.551  17.144  0.00  0.00    +0.000 A 
ATOM     15  C   UNL     1       6.763   6.409  16.758  0.00  0.00    +0.000 A 
ENDBRANCH   5   9
BRANCH   1  16
ATOM     16  C   UNL     1       1.556   5.310  19.307  0.00  0.00    +0.000 C 
BRANCH  16  17
ATOM     17  C   UNL     1       1.166   4.684  20.649  0.00  0.00    +0.000 C 
BRANCH  17  18
ATOM     18  C   UNL     1       2.398   4.357  21.494  0.00  0.00    +0.000 C 
BRANCH  18  20
ATOM     19  O   UNL     1       3.510   2.199  21.518  0.00  0.00    +0.000 OA
ATOM     20  C   UNL     1       2.520   2.873  21.746  0.00  0.00    +0.000 C 
BRANCH  20  21
ATOM     21  O   UNL     1       1.388   2.339  22.260  0.00  0.00    +0.000 OA
ATOM     22  H   UNL     1       1.376   1.364  22.280  0.00  0.00    +0.000 HD
ENDBRANCH  20  21
ENDBRANCH  18  20
ENDBRANCH  17  18
ENDBRANCH  16  17
ENDBRANCH   1  16
TORSDOF 6
ENDMDL
