MODEL 1
REMARK VINA RESULT:      -6.4      0.000      0.000
REMARK  Name = 
REMARK  1 active torsions:
REMARK  status: ('A' for Active; 'I' for Inactive)
REMARK    1  A    between atoms: N_8  and  N_9
REMARK                            x       y       z     vdW  Elec       q    Type
REMARK                         _______ _______ _______ _____ _____    ______ ____
ROOT
ATOM      1 CL   UNL     1      -0.554   8.915  22.499  0.00  0.00    +0.000 Cl
ATOM      2  C   UNL     1       0.506   8.533  21.198  0.00  0.00    +0.000 A 
ATOM      3  C   UNL     1       0.982   9.546  20.380  0.00  0.00    +0.000 A 
ATOM      4  C   UNL     1       1.832   9.218  19.331  0.00  0.00    +0.000 A 
ATOM      5  C   UNL     1       2.222   7.883  19.092  0.00  0.00    +0.000 A 
ATOM      6  C   UNL     1       1.763   6.843  19.916  0.00  0.00    +0.000 A 
ATOM      7  C   UNL     1       0.886   7.209  20.971  0.00  0.00    +0.000 A 
ATOM      8  N   UNL     1       2.159   5.462  19.724  0.00  0.00    +0.000 N 
ATOM      9  C   UNL     1       3.020   5.003  18.655  0.00  0.00    +0.000 A 
ATOM     10  C   UNL     1       3.355   3.643  18.458  0.00  0.00    +0.000 A 
ATOM     11  C   UNL     1       4.231   3.204  17.454  0.00  0.00    +0.000 A 
ATOM     12  C   UNL     1       4.792   4.115  16.581  0.00  0.00    +0.000 A 
ATOM     13  C   UNL     1       4.463   5.457  16.712  0.00  0.00    +0.000 A 
ATOM     14  C   UNL     1       3.592   5.904  17.729  0.00  0.00    +0.000 A 
ATOM     15  S   UNL     1       3.311   7.655  17.720  0.00  0.00    +0.000 S 
ENDROOT
BRANCH   8  16
ATOM     16  N   UNL     1       1.690   4.619  20.764  0.00  0.00    +0.000 NA
ATOM     17  C   UNL     1       0.834   3.484  20.448  0.00  0.00    +0.000 C 
ATOM     18  C   UNL     1       1.529   2.722  21.604  0.00  0.00    +0.000 C 
ATOM     19  C   UNL     1       2.618   3.823  21.556  0.00  0.00    +0.000 C 
ENDBRANCH   8  16
TORSDOF 1
ENDMDL
MODEL 2
REMARK VINA RESULT:      -6.0      2.972      5.226
REMARK  Name = 
REMARK  1 active torsions:
REMARK  status: ('A' for Active; 'I' for Inactive)
REMARK    1  A    between atoms: N_8  and  N_9
REMARK                            x       y       z     vdW  Elec       q    Type
REMARK                         _______ _______ _______ _____ _____    ______ ____
ROOT
ATOM      1 CL   UNL     1       7.673   8.338  17.387  0.00  0.00    +0.000 Cl
ATOM      2  C   UNL     1       6.798   6.856  17.386  0.00  0.00    +0.000 A 
ATOM      3  C   UNL     1       7.371   5.720  16.837  0.00  0.00    +0.000 A 
ATOM      4  C   UNL     1       6.648   4.534  16.840  0.00  0.00    +0.000 A 
ATOM      5  C   UNL     1       5.354   4.465  17.398  0.00  0.00    +0.000 A 
ATOM      6  C   UNL     1       4.759   5.600  17.972  0.00  0.00    +0.000 A 
ATOM      7  C   UNL     1       5.518   6.799  17.941  0.00  0.00    +0.000 A 
ATOM      8  N   UNL     1       3.442   5.569  18.579  0.00  0.00    +0.000 N 
ATOM      9  C   UNL     1       2.593   4.398  18.621  0.00  0.00    +0.000 A 
ATOM     10  C   UNL     1       1.292   4.403  19.176  0.00  0.00    +0.000 A 
ATOM     11  C   UNL     1       0.489   3.257  19.265  0.00  0.00    +0.000 A 
ATOM     12  C   UNL     1       0.949   2.052  18.771  0.00  0.00    +0.000 A 
ATOM     13  C   UNL     1       2.205   2.007  18.182  0.00  0.00    +0.000 A 
ATOM     14  C   UNL     1       3.022   3.156  18.104  0.00  0.00    +0.000 A 
ATOM     15  S   UNL     1       4.587   2.876  17.319  0.00  0.00    +0.000 S 
ENDROOT
BRANCH   8  16
ATOM     16  N   UNL     1       3.118   6.792  19.221  0.00  0.00    +0.000 NA
ATOM     17  C   UNL     1       2.360   7.809  18.506  0.00  0.00    +0.000 C 
ATOM     18  C   UNL     1       1.688   8.163  19.856  0.00  0.00    +0.000 C 
ATOM     19  C   UNL     1       2.240   6.815  20.383  0.00  0.00    +0.000 C 
ENDBRANCH   8  16
TORSDOF 1
ENDMDL
MODEL 3
REMARK VINA RESULT:      -5.9      2.566      5.055
REMARK  Name = 
REMARK  1 active torsions:
REMARK  status: ('A' for Active; 'I' for Inactive)
REMARK    1  A    between atoms: N_8  and  N_9
REMARK                            x       y       z     vdW  Elec       q    Type
REMARK                         _______ _______ _______ _____ _____    ______ ____
ROOT
ATOM      1 CL   UNL     1       5.779   3.366  16.198  0.00  0.00    +0.000 Cl
ATOM      2  C   UNL     1       4.966   4.807  16.671  0.00  0.00    +0.000 A 
ATOM      3  C   UNL     1       5.141   5.968  15.933  0.00  0.00    +0.000 A 
ATOM      4  C   UNL     1       4.482   7.124  16.333  0.00  0.00    +0.000 A 
ATOM      5  C   UNL     1       3.636   7.133  17.463  0.00  0.00    +0.000 A 
ATOM      6  C   UNL     1       3.433   5.965  18.217  0.00  0.00    +0.000 A 
ATOM      7  C   UNL     1       4.131   4.805  17.790  0.00  0.00    +0.000 A 
ATOM      8  N   UNL     1       2.554   5.923  19.369  0.00  0.00    +0.000 N 
ATOM      9  C   UNL     1       1.835   7.066  19.886  0.00  0.00    +0.000 A 
ATOM     10  C   UNL     1       1.019   7.012  21.041  0.00  0.00    +0.000 A 
ATOM     11  C   UNL     1       0.281   8.108  21.513  0.00  0.00    +0.000 A 
ATOM     12  C   UNL     1       0.351   9.321  20.858  0.00  0.00    +0.000 A 
ATOM     13  C   UNL     1       1.168   9.432  19.742  0.00  0.00    +0.000 A 
ATOM     14  C   UNL     1       1.903   8.329  19.256  0.00  0.00    +0.000 A 
ATOM     15  S   UNL     1       2.877   8.687  17.818  0.00  0.00    +0.000 S 
ENDROOT
BRANCH   8  16
ATOM     16  N   UNL     1       2.395   4.607  19.874  0.00  0.00    +0.000 NA
ATOM     17  C   UNL     1       2.449   4.369  21.310  0.00  0.00    +0.000 C 
ATOM     18  C   UNL     1       1.384   3.263  21.100  0.00  0.00    +0.000 C 
ATOM     19  C   UNL     1       1.140   3.887  19.703  0.00  0.00    +0.000 C 
ENDBRANCH   8  16
TORSDOF 1
ENDMDL
MODEL 4
REMARK VINA RESULT:      -5.8      2.947      5.204
REMARK  Name = 
REMARK  1 active torsions:
REMARK  status: ('A' for Active; 'I' for Inactive)
REMARK    1  A    between atoms: N_8  and  N_9
REMARK                            x       y       z     vdW  Elec       q    Type
REMARK                         _______ _______ _______ _____ _____    ______ ____
ROOT
ATOM      1 CL   UNL     1       6.109   3.233  14.901  0.00  0.00    +0.000 Cl
ATOM      2  C   UNL     1       5.351   4.561  15.691  0.00  0.00    +0.000 A 
ATOM      3  C   UNL     1       5.530   5.845  15.200  0.00  0.00    +0.000 A 
ATOM      4  C   UNL     1       4.916   6.906  15.854  0.00  0.00    +0.000 A 
ATOM      5  C   UNL     1       4.111   6.697  16.994  0.00  0.00    +0.000 A 
ATOM      6  C   UNL     1       3.904   5.404  17.500  0.00  0.00    +0.000 A 
ATOM      7  C   UNL     1       4.556   4.343  16.817  0.00  0.00    +0.000 A 
ATOM      8  N   UNL     1       3.064   5.141  18.653  0.00  0.00    +0.000 N 
ATOM      9  C   UNL     1       2.393   6.167  19.422  0.00  0.00    +0.000 A 
ATOM     10  C   UNL     1       1.617   5.891  20.572  0.00  0.00    +0.000 A 
ATOM     11  C   UNL     1       0.924   6.879  21.287  0.00  0.00    +0.000 A 
ATOM     12  C   UNL     1       1.003   8.200  20.892  0.00  0.00    +0.000 A 
ATOM     13  C   UNL     1       1.783   8.523  19.791  0.00  0.00    +0.000 A 
ATOM     14  C   UNL     1       2.472   7.530  19.061  0.00  0.00    +0.000 A 
ATOM     15  S   UNL     1       3.404   8.159  17.690  0.00  0.00    +0.000 S 
ENDROOT
BRANCH   8  16
ATOM     16  N   UNL     1       2.889   3.752  18.883  0.00  0.00    +0.000 NA
ATOM     17  C   UNL     1       3.076   3.209  20.222  0.00  0.00    +0.000 C 
ATOM     18  C   UNL     1       1.939   2.207  19.903  0.00  0.00    +0.000 C 
ATOM     19  C   UNL     1       1.587   3.124  18.705  0.00  0.00    +0.000 C 
ENDBRANCH   8  16
TORSDOF 1
ENDMDL
MODEL 5
REMARK VINA RESULT:      -5.8      3.314      5.467
REMARK  Name = 
REMARK  1 active torsions:
REMARK  status: ('A' for Active; 'I' for Inactive)
REMARK    1  A    between atoms: N_8  and  N_9
REMARK                            x       y       z     vdW  Elec       q    Type
REMARK                         _______ _______ _______ _____ _____    ______ ____
ROOT
ATOM      1 CL   UNL     1       6.715   3.619  13.955  0.00  0.00    +0.000 Cl
ATOM      2  C   UNL     1       5.845   4.681  14.994  0.00  0.00    +0.000 A 
ATOM      3  C   UNL     1       5.828   6.041  14.726  0.00  0.00    +0.000 A 
ATOM      4  C   UNL     1       5.125   6.884  15.578  0.00  0.00    +0.000 A 
ATOM      5  C   UNL     1       4.427   6.381  16.696  0.00  0.00    +0.000 A 
ATOM      6  C   UNL     1       4.419   5.006  16.979  0.00  0.00    +0.000 A 
ATOM      7  C   UNL     1       5.157   4.173  16.096  0.00  0.00    +0.000 A 
ATOM      8  N   UNL     1       3.695   4.443  18.101  0.00  0.00    +0.000 N 
ATOM      9  C   UNL     1       2.948   5.225  19.063  0.00  0.00    +0.000 A 
ATOM     10  C   UNL     1       2.288   4.659  20.179  0.00  0.00    +0.000 A 
ATOM     11  C   UNL     1       1.521   5.410  21.081  0.00  0.00    +0.000 A 
ATOM     12  C   UNL     1       1.406   6.776  20.919  0.00  0.00    +0.000 A 
ATOM     13  C   UNL     1       2.068   7.382  19.860  0.00  0.00    +0.000 A 
ATOM     14  C   UNL     1       2.829   6.627  18.941  0.00  0.00    +0.000 A 
ATOM     15  S   UNL     1       3.586   7.596  17.663  0.00  0.00    +0.000 S 
ENDROOT
BRANCH   8  16
ATOM     16  N   UNL     1       3.713   3.024  18.095  0.00  0.00    +0.000 NA
ATOM     17  C   UNL     1       4.083   2.297  19.301  0.00  0.00    +0.000 C 
ATOM     18  C   UNL     1       3.054   1.216  18.886  0.00  0.00    +0.000 C 
ATOM     19  C   UNL     1       2.487   2.263  17.895  0.00  0.00    +0.000 C 
ENDBRANCH   8  16
TORSDOF 1
ENDMDL
MODEL 6
REMARK VINA RESULT:      -5.6      2.842      5.606
REMARK  Name = 
REMARK  1 active torsions:
REMARK  status: ('A' for Active; 'I' for Inactive)
REMARK    1  A    between atoms: N_8  and  N_9
REMARK                            x       y       z     vdW  Elec       q    Type
REMARK                         _______ _______ _______ _____ _____    ______ ____
ROOT
ATOM      1 CL   UNL     1       4.928   1.049  20.136  0.00  0.00    +0.000 Cl
ATOM      2  C   UNL     1       3.979   2.474  20.311  0.00  0.00    +0.000 A 
ATOM      3  C   UNL     1       3.047   2.556  21.334  0.00  0.00    +0.000 A 
ATOM      4  C   UNL     1       2.286   3.712  21.458  0.00  0.00    +0.000 A 
ATOM      5  C   UNL     1       2.451   4.797  20.572  0.00  0.00    +0.000 A 
ATOM      6  C   UNL     1       3.398   4.742  19.537  0.00  0.00    +0.000 A 
ATOM      7  C   UNL     1       4.151   3.542  19.430  0.00  0.00    +0.000 A 
ATOM      8  N   UNL     1       3.620   5.843  18.620  0.00  0.00    +0.000 N 
ATOM      9  C   UNL     1       2.873   7.082  18.641  0.00  0.00    +0.000 A 
ATOM     10  C   UNL     1       3.073   8.125  17.706  0.00  0.00    +0.000 A 
ATOM     11  C   UNL     1       2.387   9.347  17.759  0.00  0.00    +0.000 A 
ATOM     12  C   UNL     1       1.443   9.567  18.742  0.00  0.00    +0.000 A 
ATOM     13  C   UNL     1       1.185   8.558  19.659  0.00  0.00    +0.000 A 
ATOM     14  C   UNL     1       1.883   7.331  19.618  0.00  0.00    +0.000 A 
ATOM     15  S   UNL     1       1.403   6.185  20.883  0.00  0.00    +0.000 S 
ENDROOT
BRANCH   8  16
ATOM     16  N   UNL     1       4.723   5.611  17.760  0.00  0.00    +0.000 NA
ATOM     17  C   UNL     1       4.498   5.149  16.397  0.00  0.00    +0.000 C 
ATOM     18  C   UNL     1       5.723   5.999  15.977  0.00  0.00    +0.000 C 
ATOM     19  C   UNL     1       5.592   6.706  17.349  0.00  0.00    +0.000 C 
ENDBRANCH   8  16
TORSDOF 1
ENDMDL
MODEL 7
REMARK VINA RESULT:      -5.6      6.134      8.983
REMARK  Name = 
REMARK  1 active torsions:
REMARK  status: ('A' for Active; 'I' for Inactive)
REMARK    1  A    between atoms: N_8  and  N_9
REMARK                            x       y       z     vdW  Elec       q    Type
REMARK                         _______ _______ _______ _____ _____    ______ ____
ROOT
ATOM      1 CL   UNL     1      -2.874  10.169  14.688  0.00  0.00    +0.000 Cl
ATOM      2  C   UNL     1      -3.350  10.862  16.190  0.00  0.00    +0.000 A 
ATOM      3  C   UNL     1      -4.654  11.302  16.360  0.00  0.00    +0.000 A 
ATOM      4  C   UNL     1      -5.020  11.864  17.577  0.00  0.00    +0.000 A 
ATOM      5  C   UNL     1      -4.096  11.983  18.637  0.00  0.00    +0.000 A 
ATOM      6  C   UNL     1      -2.774  11.530  18.492  0.00  0.00    +0.000 A 
ATOM      7  C   UNL     1      -2.429  10.974  17.232  0.00  0.00    +0.000 A 
ATOM      8  N   UNL     1      -1.800  11.609  19.562  0.00  0.00    +0.000 N 
ATOM      9  C   UNL     1      -2.063  12.191  20.861  0.00  0.00    +0.000 A 
ATOM     10  C   UNL     1      -1.082  12.301  21.875  0.00  0.00    +0.000 A 
ATOM     11  C   UNL     1      -1.350  12.816  23.152  0.00  0.00    +0.000 A 
ATOM     12  C   UNL     1      -2.616  13.274  23.459  0.00  0.00    +0.000 A 
ATOM     13  C   UNL     1      -3.601  13.222  22.483  0.00  0.00    +0.000 A 
ATOM     14  C   UNL     1      -3.339  12.691  21.202  0.00  0.00    +0.000 A 
ATOM     15  S   UNL     1      -4.737  12.714  20.111  0.00  0.00    +0.000 S 
ENDROOT
BRANCH   8  16
ATOM     16  N   UNL     1      -0.585  10.957  19.231  0.00  0.00    +0.000 NA
ATOM     17  C   UNL     1       0.663  11.709  19.218  0.00  0.00    +0.000 C 
ATOM     18  C   UNL     1       1.364  10.427  19.733  0.00  0.00    +0.000 C 
ATOM     19  C   UNL     1      -0.051   9.897  20.076  0.00  0.00    +0.000 C 
ENDBRANCH   8  16
TORSDOF 1
ENDMDL
MODEL 8
REMARK VINA RESULT:      -5.5      7.425      9.330
REMARK  Name = 
REMARK  1 active torsions:
REMARK  status: ('A' for Active; 'I' for Inactive)
REMARK    1  A    between atoms: N_8  and  N_9
REMARK                            x       y       z     vdW  Elec       q    Type
REMARK                         _______ _______ _______ _____ _____    ______ ____
ROOT
ATOM      1 CL   UNL     1       2.122  12.312  18.572  0.00  0.00    +0.000 Cl
ATOM      2  C   UNL     1       0.524  12.485  19.187  0.00  0.00    +0.000 A 
ATOM      3  C   UNL     1       0.319  13.147  20.388  0.00  0.00    +0.000 A 
ATOM      4  C   UNL     1      -0.977  13.272  20.873  0.00  0.00    +0.000 A 
ATOM      5  C   UNL     1      -2.079  12.751  20.163  0.00  0.00    +0.000 A 
ATOM      6  C   UNL     1      -1.897  12.089  18.938  0.00  0.00    +0.000 A 
ATOM      7  C   UNL     1      -0.560  11.966  18.477  0.00  0.00    +0.000 A 
ATOM      8  N   UNL     1      -3.002  11.561  18.163  0.00  0.00    +0.000 N 
ATOM      9  C   UNL     1      -4.388  11.616  18.578  0.00  0.00    +0.000 A 
ATOM     10  C   UNL     1      -5.445  11.051  17.829  0.00  0.00    +0.000 A 
ATOM     11  C   UNL     1      -6.793  11.150  18.205  0.00  0.00    +0.000 A 
ATOM     12  C   UNL     1      -7.138  11.801  19.373  0.00  0.00    +0.000 A 
ATOM     13  C   UNL     1      -6.130  12.338  20.161  0.00  0.00    +0.000 A 
ATOM     14  C   UNL     1      -4.773  12.253  19.779  0.00  0.00    +0.000 A 
ATOM     15  S   UNL     1      -3.652  13.009  20.926  0.00  0.00    +0.000 S 
ENDROOT
BRANCH   8  16
ATOM     16  N   UNL     1      -2.586  11.072  16.899  0.00  0.00    +0.000 NA
ATOM     17  C   UNL     1      -2.536   9.637  16.655  0.00  0.00    +0.000 C 
ATOM     18  C   UNL     1      -2.968   9.935  15.198  0.00  0.00    +0.000 C 
ATOM     19  C   UNL     1      -3.365  11.346  15.698  0.00  0.00    +0.000 C 
ENDBRANCH   8  16
TORSDOF 1
ENDMDL
MODEL 9
REMARK VINA RESULT:      -5.5      7.537      9.029
REMARK  Name = 
REMARK  1 active torsions:
REMARK  status: ('A' for Active; 'I' for Inactive)
REMARK    1  A    between atoms: N_8  and  N_9
REMARK                            x       y       z     vdW  Elec       q    Type
REMARK                         _______ _______ _______ _____ _____    ______ ____
ROOT
ATOM      1 CL   UNL     1      -3.575  13.810  24.516  0.00  0.00    +0.000 Cl
ATOM      2  C   UNL     1      -2.916  13.106  23.090  0.00  0.00    +0.000 A 
ATOM      3  C   UNL     1      -1.590  12.703  23.073  0.00  0.00    +0.000 A 
ATOM      4  C   UNL     1      -1.073  12.142  21.912  0.00  0.00    +0.000 A 
ATOM      5  C   UNL     1      -1.873  11.969  20.762  0.00  0.00    +0.000 A 
ATOM      6  C   UNL     1      -3.223  12.357  20.761  0.00  0.00    +0.000 A 
ATOM      7  C   UNL     1      -3.716  12.939  21.959  0.00  0.00    +0.000 A 
ATOM      8  N   UNL     1      -4.087  12.175  19.612  0.00  0.00    +0.000 N 
ATOM      9  C   UNL     1      -3.654  11.622  18.347  0.00  0.00    +0.000 A 
ATOM     10  C   UNL     1      -4.503  11.497  17.223  0.00  0.00    +0.000 A 
ATOM     11  C   UNL     1      -4.098  10.913  16.013  0.00  0.00    +0.000 A 
ATOM     12  C   UNL     1      -2.804  10.452  15.869  0.00  0.00    +0.000 A 
ATOM     13  C   UNL     1      -1.924  10.588  16.932  0.00  0.00    +0.000 A 
ATOM     14  C   UNL     1      -2.331  11.162  18.156  0.00  0.00    +0.000 A 
ATOM     15  S   UNL     1      -1.052  11.234  19.382  0.00  0.00    +0.000 S 
ENDROOT
BRANCH   8  16
ATOM     16  N   UNL     1      -5.437  12.504  19.898  0.00  0.00    +0.000 NA
ATOM     17  C   UNL     1      -6.170  13.396  19.011  0.00  0.00    +0.000 C 
ATOM     18  C   UNL     1      -7.435  12.555  19.318  0.00  0.00    +0.000 C 
ATOM     19  C   UNL     1      -6.474  11.480  19.885  0.00  0.00    +0.000 C 
ENDBRANCH   8  16
TORSDOF 1
ENDMDL
