MODEL 1
REMARK VINA RESULT:      -7.7      0.000      0.000
REMARK  Name = 
REMARK  7 active torsions:
REMARK  status: ('A' for Active; 'I' for Inactive)
REMARK    1  A    between atoms: N_1  and  C_2
REMARK    2  A    between atoms: C_2  and  C_3
REMARK    3  A    between atoms: C_2  and  C_10
REMARK    4  A    between atoms: C_3  and  C_4
REMARK    5  A    between atoms: C_15  and  S_16
REMARK    6  A    between atoms: S_16  and  C_17
REMARK    7  A    between atoms: C_17  and  C_18
REMARK                            x       y       z     vdW  Elec       q    Type
REMARK                         _______ _______ _______ _____ _____    ______ ____
ROOT
ATOM      1  C   UNL     1       5.025   4.870  18.068  0.00  0.00    +0.000 A 
ATOM      2  N   UNL     1       4.858   3.987  19.049  0.00  0.00    +0.000 NA
ATOM      3  N   UNL     1       3.863   4.449  19.905  0.00  0.00    +0.000 NA
ATOM      4  C   UNL     1       3.478   5.586  19.406  0.00  0.00    +0.000 A 
ATOM      5  S   UNL     1       2.294   6.765  19.739  0.00  0.00    +0.000 S 
ATOM      6  C   UNL     1       2.848   7.570  18.251  0.00  0.00    +0.000 A 
ATOM      7  N   UNL     1       3.826   7.027  17.581  0.00  0.00    +0.000 NA
ATOM      8  N   UNL     1       4.151   5.902  18.277  0.00  0.00    +0.000 N 
ENDROOT
BRANCH   1   9
ATOM      9  C   UNL     1       5.958   4.810  16.898  0.00  0.00    +0.000 C 
BRANCH   9  10
ATOM     10  N   UNL     1       7.272   4.287  17.314  0.00  0.00    +0.000 NA
ATOM     11  H   UNL     1       7.911   4.302  16.521  0.00  0.00    +0.000 HD
ATOM     12  H   UNL     1       7.171   3.311  17.589  0.00  0.00    +0.000 HD
ENDBRANCH   9  10
BRANCH   9  13
ATOM     13  C   UNL     1       5.338   3.972  15.749  0.00  0.00    +0.000 C 
BRANCH  13  14
ATOM     14  C   UNL     1       6.024   4.202  14.424  0.00  0.00    +0.000 A 
ATOM     15  C   UNL     1       5.653   3.450  13.301  0.00  0.00    +0.000 A 
ATOM     16  C   UNL     1       6.353   3.585  12.106  0.00  0.00    +0.000 A 
ATOM     17  C   UNL     1       7.412   4.484  12.016  0.00  0.00    +0.000 A 
ATOM     18  C   UNL     1       7.772   5.257  13.119  0.00  0.00    +0.000 A 
ATOM     19  C   UNL     1       7.082   5.115  14.321  0.00  0.00    +0.000 A 
ENDBRANCH  13  14
ENDBRANCH   9  13
ENDBRANCH   1   9
BRANCH   6  20
ATOM     20  S   UNL     1       2.058   9.040  17.811  0.00  0.00    +0.000 S 
BRANCH  20  21
ATOM     21  C   UNL     1       1.121   9.414  19.323  0.00  0.00    +0.000 C 
BRANCH  21  22
ATOM     22  C   UNL     1      -0.165  10.135  18.983  0.00  0.00    +0.000 A 
ATOM     23  C   UNL     1      -0.836   9.865  17.781  0.00  0.00    +0.000 A 
ATOM     24  C   UNL     1      -1.986  10.578  17.431  0.00  0.00    +0.000 A 
ATOM     25  C   UNL     1      -2.479  11.567  18.278  0.00  0.00    +0.000 A 
ATOM     26  C   UNL     1      -1.828  11.841  19.480  0.00  0.00    +0.000 A 
ATOM     27  C   UNL     1      -0.676  11.130  19.830  0.00  0.00    +0.000 A 
ENDBRANCH  21  22
ENDBRANCH  20  21
ENDBRANCH   6  20
TORSDOF 7
ENDMDL
MODEL 2
REMARK VINA RESULT:      -7.7      1.586      2.226
REMARK  Name = 
REMARK  7 active torsions:
REMARK  status: ('A' for Active; 'I' for Inactive)
REMARK    1  A    between atoms: N_1  and  C_2
REMARK    2  A    between atoms: C_2  and  C_3
REMARK    3  A    between atoms: C_2  and  C_10
REMARK    4  A    between atoms: C_3  and  C_4
REMARK    5  A    between atoms: C_15  and  S_16
REMARK    6  A    between atoms: S_16  and  C_17
REMARK    7  A    between atoms: C_17  and  C_18
REMARK                            x       y       z     vdW  Elec       q    Type
REMARK                         _______ _______ _______ _____ _____    ______ ____
ROOT
ATOM      1  C   UNL     1       4.433   4.884  17.454  0.00  0.00    +0.000 A 
ATOM      2  N   UNL     1       4.448   3.692  18.044  0.00  0.00    +0.000 NA
ATOM      3  N   UNL     1       3.668   3.749  19.195  0.00  0.00    +0.000 NA
ATOM      4  C   UNL     1       3.223   4.970  19.250  0.00  0.00    +0.000 A 
ATOM      5  S   UNL     1       2.171   5.877  20.236  0.00  0.00    +0.000 S 
ATOM      6  C   UNL     1       2.426   7.206  19.080  0.00  0.00    +0.000 A 
ATOM      7  N   UNL     1       3.226   7.003  18.070  0.00  0.00    +0.000 NA
ATOM      8  N   UNL     1       3.654   5.718  18.210  0.00  0.00    +0.000 N 
ENDROOT
BRANCH   1   9
ATOM      9  C   UNL     1       5.099   5.312  16.183  0.00  0.00    +0.000 C 
BRANCH   9  10
ATOM     10  N   UNL     1       5.449   6.743  16.243  0.00  0.00    +0.000 NA
ATOM     11  H   UNL     1       5.949   6.935  17.110  0.00  0.00    +0.000 HD
ATOM     12  H   UNL     1       4.593   7.295  16.271  0.00  0.00    +0.000 HD
ENDBRANCH   9  10
BRANCH   9  13
ATOM     13  C   UNL     1       6.336   4.425  15.889  0.00  0.00    +0.000 C 
BRANCH  13  14
ATOM     14  C   UNL     1       6.671   4.357  14.419  0.00  0.00    +0.000 A 
ATOM     15  C   UNL     1       7.609   5.242  13.871  0.00  0.00    +0.000 A 
ATOM     16  C   UNL     1       7.842   5.251  12.499  0.00  0.00    +0.000 A 
ATOM     17  C   UNL     1       7.159   4.368  11.669  0.00  0.00    +0.000 A 
ATOM     18  C   UNL     1       6.243   3.465  12.207  0.00  0.00    +0.000 A 
ATOM     19  C   UNL     1       5.997   3.461  13.578  0.00  0.00    +0.000 A 
ENDBRANCH  13  14
ENDBRANCH   9  13
ENDBRANCH   1   9
BRANCH   6  20
ATOM     20  S   UNL     1       1.607   8.693  19.397  0.00  0.00    +0.000 S 
BRANCH  20  21
ATOM     21  C   UNL     1       0.930   8.386  21.055  0.00  0.00    +0.000 C 
BRANCH  21  22
ATOM     22  C   UNL     1       0.039   9.532  21.482  0.00  0.00    +0.000 A 
ATOM     23  C   UNL     1      -0.346  10.517  20.559  0.00  0.00    +0.000 A 
ATOM     24  C   UNL     1      -1.111  11.613  20.964  0.00  0.00    +0.000 A 
ATOM     25  C   UNL     1      -1.503  11.738  22.295  0.00  0.00    +0.000 A 
ATOM     26  C   UNL     1      -1.136  10.763  23.221  0.00  0.00    +0.000 A 
ATOM     27  C   UNL     1      -0.368   9.667  22.818  0.00  0.00    +0.000 A 
ENDBRANCH  21  22
ENDBRANCH  20  21
ENDBRANCH   6  20
TORSDOF 7
ENDMDL
MODEL 3
REMARK VINA RESULT:      -7.6      1.682      2.259
REMARK  Name = 
REMARK  7 active torsions:
REMARK  status: ('A' for Active; 'I' for Inactive)
REMARK    1  A    between atoms: N_1  and  C_2
REMARK    2  A    between atoms: C_2  and  C_3
REMARK    3  A    between atoms: C_2  and  C_10
REMARK    4  A    between atoms: C_3  and  C_4
REMARK    5  A    between atoms: C_15  and  S_16
REMARK    6  A    between atoms: S_16  and  C_17
REMARK    7  A    between atoms: C_17  and  C_18
REMARK                            x       y       z     vdW  Elec       q    Type
REMARK                         _______ _______ _______ _____ _____    ______ ____
ROOT
ATOM      1  C   UNL     1       5.701   5.398  17.690  0.00  0.00    +0.000 A 
ATOM      2  N   UNL     1       6.001   4.238  18.269  0.00  0.00    +0.000 NA
ATOM      3  N   UNL     1       5.088   3.996  19.291  0.00  0.00    +0.000 NA
ATOM      4  C   UNL     1       4.284   5.018  19.285  0.00  0.00    +0.000 A 
ATOM      5  S   UNL     1       2.875   5.509  20.107  0.00  0.00    +0.000 S 
ATOM      6  C   UNL     1       2.867   6.910  19.009  0.00  0.00    +0.000 A 
ATOM      7  N   UNL     1       3.824   7.014  18.129  0.00  0.00    +0.000 NA
ATOM      8  N   UNL     1       4.605   5.914  18.325  0.00  0.00    +0.000 N 
ENDROOT
BRANCH   1   9
ATOM      9  C   UNL     1       6.373   6.073  16.535  0.00  0.00    +0.000 C 
BRANCH   9  10
ATOM     10  N   UNL     1       7.017   7.325  16.975  0.00  0.00    +0.000 NA
ATOM     11  H   UNL     1       6.317   8.062  17.042  0.00  0.00    +0.000 HD
ATOM     12  H   UNL     1       7.688   7.621  16.267  0.00  0.00    +0.000 HD
ENDBRANCH   9  10
BRANCH   9  13
ATOM     13  C   UNL     1       7.381   5.112  15.852  0.00  0.00    +0.000 C 
BRANCH  13  14
ATOM     14  C   UNL     1       6.940   4.687  14.473  0.00  0.00    +0.000 A 
ATOM     15  C   UNL     1       5.779   3.919  14.312  0.00  0.00    +0.000 A 
ATOM     16  C   UNL     1       5.428   3.438  13.054  0.00  0.00    +0.000 A 
ATOM     17  C   UNL     1       6.217   3.735  11.948  0.00  0.00    +0.000 A 
ATOM     18  C   UNL     1       7.359   4.521  12.092  0.00  0.00    +0.000 A 
ATOM     19  C   UNL     1       7.722   4.994  13.351  0.00  0.00    +0.000 A 
ENDBRANCH  13  14
ENDBRANCH   9  13
ENDBRANCH   1   9
BRANCH   6  20
ATOM     20  S   UNL     1       1.592   8.058  19.207  0.00  0.00    +0.000 S 
BRANCH  20  21
ATOM     21  C   UNL     1       1.309   7.978  21.001  0.00  0.00    +0.000 C 
BRANCH  21  22
ATOM     22  C   UNL     1       0.506   9.174  21.463  0.00  0.00    +0.000 A 
ATOM     23  C   UNL     1       0.435  10.332  20.674  0.00  0.00    +0.000 A 
ATOM     24  C   UNL     1      -0.249  11.463  21.127  0.00  0.00    +0.000 A 
ATOM     25  C   UNL     1      -0.870  11.450  22.373  0.00  0.00    +0.000 A 
ATOM     26  C   UNL     1      -0.816  10.304  23.165  0.00  0.00    +0.000 A 
ATOM     27  C   UNL     1      -0.131   9.172  22.713  0.00  0.00    +0.000 A 
ENDBRANCH  21  22
ENDBRANCH  20  21
ENDBRANCH   6  20
TORSDOF 7
ENDMDL
MODEL 4
REMARK VINA RESULT:      -7.6      1.202      1.537
REMARK  Name = 
REMARK  7 active torsions:
REMARK  status: ('A' for Active; 'I' for Inactive)
REMARK    1  A    between atoms: N_1  and  C_2
REMARK    2  A    between atoms: C_2  and  C_3
REMARK    3  A    between atoms: C_2  and  C_10
REMARK    4  A    between atoms: C_3  and  C_4
REMARK    5  A    between atoms: C_15  and  S_16
REMARK    6  A    between atoms: S_16  and  C_17
REMARK    7  A    between atoms: C_17  and  C_18
REMARK                            x       y       z     vdW  Elec       q    Type
REMARK                         _______ _______ _______ _____ _____    ______ ____
ROOT
ATOM      1  C   UNL     1       4.313   4.678  17.584  0.00  0.00    +0.000 A 
ATOM      2  N   UNL     1       4.220   3.391  17.907  0.00  0.00    +0.000 NA
ATOM      3  N   UNL     1       3.386   3.264  19.014  0.00  0.00    +0.000 NA
ATOM      4  C   UNL     1       3.018   4.475  19.311  0.00  0.00    +0.000 A 
ATOM      5  S   UNL     1       1.977   5.231  20.427  0.00  0.00    +0.000 S 
ATOM      6  C   UNL     1       2.378   6.750  19.591  0.00  0.00    +0.000 A 
ATOM      7  N   UNL     1       3.215   6.705  18.592  0.00  0.00    +0.000 NA
ATOM      8  N   UNL     1       3.551   5.391  18.471  0.00  0.00    +0.000 N 
ENDROOT
BRANCH   1   9
ATOM      9  C   UNL     1       5.070   5.313  16.460  0.00  0.00    +0.000 C 
BRANCH   9  10
ATOM     10  N   UNL     1       5.493   6.677  16.829  0.00  0.00    +0.000 NA
ATOM     11  H   UNL     1       6.465   6.661  17.132  0.00  0.00    +0.000 HD
ATOM     12  H   UNL     1       4.942   6.992  17.627  0.00  0.00    +0.000 HD
ENDBRANCH   9  10
BRANCH   9  13
ATOM     13  C   UNL     1       6.273   4.427  16.042  0.00  0.00    +0.000 C 
BRANCH  13  14
ATOM     14  C   UNL     1       6.497   4.412  14.550  0.00  0.00    +0.000 A 
ATOM     15  C   UNL     1       5.746   3.555  13.735  0.00  0.00    +0.000 A 
ATOM     16  C   UNL     1       6.024   3.463  12.374  0.00  0.00    +0.000 A 
ATOM     17  C   UNL     1       7.034   4.238  11.815  0.00  0.00    +0.000 A 
ATOM     18  C   UNL     1       7.770   5.114  12.611  0.00  0.00    +0.000 A 
ATOM     19  C   UNL     1       7.505   5.200  13.976  0.00  0.00    +0.000 A 
ENDBRANCH  13  14
ENDBRANCH   9  13
ENDBRANCH   1   9
BRANCH   6  20
ATOM     20  S   UNL     1       1.641   8.194  20.186  0.00  0.00    +0.000 S 
BRANCH  20  21
ATOM     21  C   UNL     1       1.471   9.168  18.661  0.00  0.00    +0.000 C 
BRANCH  21  22
ATOM     22  C   UNL     1       0.220  10.017  18.713  0.00  0.00    +0.000 A 
ATOM     23  C   UNL     1       0.000  10.896  19.785  0.00  0.00    +0.000 A 
ATOM     24  C   UNL     1      -1.185  11.631  19.873  0.00  0.00    +0.000 A 
ATOM     25  C   UNL     1      -2.163  11.498  18.890  0.00  0.00    +0.000 A 
ATOM     26  C   UNL     1      -1.955  10.636  17.815  0.00  0.00    +0.000 A 
ATOM     27  C   UNL     1      -0.771   9.898  17.727  0.00  0.00    +0.000 A 
ENDBRANCH  21  22
ENDBRANCH  20  21
ENDBRANCH   6  20
TORSDOF 7
ENDMDL
MODEL 5
REMARK VINA RESULT:      -7.6      1.660      2.193
REMARK  Name = 
REMARK  7 active torsions:
REMARK  status: ('A' for Active; 'I' for Inactive)
REMARK    1  A    between atoms: N_1  and  C_2
REMARK    2  A    between atoms: C_2  and  C_3
REMARK    3  A    between atoms: C_2  and  C_10
REMARK    4  A    between atoms: C_3  and  C_4
REMARK    5  A    between atoms: C_15  and  S_16
REMARK    6  A    between atoms: S_16  and  C_17
REMARK    7  A    between atoms: C_17  and  C_18
REMARK                            x       y       z     vdW  Elec       q    Type
REMARK                         _______ _______ _______ _____ _____    ______ ____
ROOT
ATOM      1  C   UNL     1       4.242   4.769  17.478  0.00  0.00    +0.000 A 
ATOM      2  N   UNL     1       4.209   3.568  18.050  0.00  0.00    +0.000 NA
ATOM      3  N   UNL     1       3.455   3.646  19.217  0.00  0.00    +0.000 NA
ATOM      4  C   UNL     1       3.071   4.886  19.298  0.00  0.00    +0.000 A 
ATOM      5  S   UNL     1       2.084   5.827  20.318  0.00  0.00    +0.000 S 
ATOM      6  C   UNL     1       2.382   7.160  19.176  0.00  0.00    +0.000 A 
ATOM      7  N   UNL     1       3.152   6.935  18.148  0.00  0.00    +0.000 NA
ATOM      8  N   UNL     1       3.519   5.628  18.261  0.00  0.00    +0.000 N 
ENDROOT
BRANCH   1   9
ATOM      9  C   UNL     1       4.903   5.184  16.200  0.00  0.00    +0.000 C 
BRANCH   9  10
ATOM     10  N   UNL     1       5.406   6.566  16.307  0.00  0.00    +0.000 NA
ATOM     11  H   UNL     1       6.334   6.623  15.890  0.00  0.00    +0.000 HD
ATOM     12  H   UNL     1       5.511   6.807  17.291  0.00  0.00    +0.000 HD
ENDBRANCH   9  10
BRANCH   9  13
ATOM     13  C   UNL     1       6.028   4.186  15.819  0.00  0.00    +0.000 C 
BRANCH  13  14
ATOM     14  C   UNL     1       6.421   4.277  14.365  0.00  0.00    +0.000 A 
ATOM     15  C   UNL     1       5.796   3.457  13.415  0.00  0.00    +0.000 A 
ATOM     16  C   UNL     1       6.229   3.464  12.093  0.00  0.00    +0.000 A 
ATOM     17  C   UNL     1       7.270   4.301  11.704  0.00  0.00    +0.000 A 
ATOM     18  C   UNL     1       7.881   5.140  12.634  0.00  0.00    +0.000 A 
ATOM     19  C   UNL     1       7.460   5.127  13.962  0.00  0.00    +0.000 A 
ENDBRANCH  13  14
ENDBRANCH   9  13
ENDBRANCH   1   9
BRANCH   6  20
ATOM     20  S   UNL     1       1.643   8.680  19.530  0.00  0.00    +0.000 S 
BRANCH  20  21
ATOM     21  C   UNL     1       0.799   8.315  21.098  0.00  0.00    +0.000 C 
BRANCH  21  22
ATOM     22  C   UNL     1       0.021   9.522  21.572  0.00  0.00    +0.000 A 
ATOM     23  C   UNL     1      -0.443   9.597  22.895  0.00  0.00    +0.000 A 
ATOM     24  C   UNL     1      -1.220  10.678  23.319  0.00  0.00    +0.000 A 
ATOM     25  C   UNL     1      -1.542  11.697  22.427  0.00  0.00    +0.000 A 
ATOM     26  C   UNL     1      -1.083  11.642  21.112  0.00  0.00    +0.000 A 
ATOM     27  C   UNL     1      -0.306  10.560  20.686  0.00  0.00    +0.000 A 
ENDBRANCH  21  22
ENDBRANCH  20  21
ENDBRANCH   6  20
TORSDOF 7
ENDMDL
MODEL 6
REMARK VINA RESULT:      -7.6      2.688      4.381
REMARK  Name = 
REMARK  7 active torsions:
REMARK  status: ('A' for Active; 'I' for Inactive)
REMARK    1  A    between atoms: N_1  and  C_2
REMARK    2  A    between atoms: C_2  and  C_3
REMARK    3  A    between atoms: C_2  and  C_10
REMARK    4  A    between atoms: C_3  and  C_4
REMARK    5  A    between atoms: C_15  and  S_16
REMARK    6  A    between atoms: S_16  and  C_17
REMARK    7  A    between atoms: C_17  and  C_18
REMARK                            x       y       z     vdW  Elec       q    Type
REMARK                         _______ _______ _______ _____ _____    ______ ____
ROOT
ATOM      1  C   UNL     1       2.691   7.130  18.853  0.00  0.00    +0.000 A 
ATOM      2  N   UNL     1       2.890   7.590  17.620  0.00  0.00    +0.000 NA
ATOM      3  N   UNL     1       2.225   8.805  17.480  0.00  0.00    +0.000 NA
ATOM      4  C   UNL     1       1.655   9.021  18.629  0.00  0.00    +0.000 A 
ATOM      5  S   UNL     1       0.738  10.256  19.359  0.00  0.00    +0.000 S 
ATOM      6  C   UNL     1       0.812   9.271  20.840  0.00  0.00    +0.000 A 
ATOM      7  N   UNL     1       1.441   8.129  20.794  0.00  0.00    +0.000 NA
ATOM      8  N   UNL     1       1.903   8.031  19.516  0.00  0.00    +0.000 N 
ENDROOT
BRANCH   1   9
ATOM      9  C   UNL     1       3.217   5.880  19.486  0.00  0.00    +0.000 C 
BRANCH   9  10
ATOM     10  N   UNL     1       2.379   5.494  20.636  0.00  0.00    +0.000 NA
ATOM     11  H   UNL     1       1.614   6.159  20.738  0.00  0.00    +0.000 HD
ATOM     12  H   UNL     1       2.935   5.555  21.488  0.00  0.00    +0.000 HD
ENDBRANCH   9  10
BRANCH   9  13
ATOM     13  C   UNL     1       3.322   4.741  18.438  0.00  0.00    +0.000 C 
BRANCH  13  14
ATOM     14  C   UNL     1       4.708   4.608  17.856  0.00  0.00    +0.000 A 
ATOM     15  C   UNL     1       5.828   4.963  18.620  0.00  0.00    +0.000 A 
ATOM     16  C   UNL     1       7.098   4.941  18.051  0.00  0.00    +0.000 A 
ATOM     17  C   UNL     1       7.263   4.545  16.728  0.00  0.00    +0.000 A 
ATOM     18  C   UNL     1       6.159   4.164  15.967  0.00  0.00    +0.000 A 
ATOM     19  C   UNL     1       4.884   4.197  16.528  0.00  0.00    +0.000 A 
ENDBRANCH  13  14
ENDBRANCH   9  13
ENDBRANCH   1   9
BRANCH   6  20
ATOM     20  S   UNL     1       0.015   9.893  22.240  0.00  0.00    +0.000 S 
BRANCH  20  21
ATOM     21  C   UNL     1      -0.270  11.621  21.756  0.00  0.00    +0.000 C 
BRANCH  21  22
ATOM     22  C   UNL     1      -1.692  12.029  22.069  0.00  0.00    +0.000 A 
ATOM     23  C   UNL     1      -2.502  12.609  21.080  0.00  0.00    +0.000 A 
ATOM     24  C   UNL     1      -3.793  13.050  21.383  0.00  0.00    +0.000 A 
ATOM     25  C   UNL     1      -4.290  12.917  22.677  0.00  0.00    +0.000 A 
ATOM     26  C   UNL     1      -3.501  12.336  23.668  0.00  0.00    +0.000 A 
ATOM     27  C   UNL     1      -2.209  11.896  23.368  0.00  0.00    +0.000 A 
ENDBRANCH  21  22
ENDBRANCH  20  21
ENDBRANCH   6  20
TORSDOF 7
ENDMDL
MODEL 7
REMARK VINA RESULT:      -7.5      4.936      9.817
REMARK  Name = 
REMARK  7 active torsions:
REMARK  status: ('A' for Active; 'I' for Inactive)
REMARK    1  A    between atoms: N_1  and  C_2
REMARK    2  A    between atoms: C_2  and  C_3
REMARK    3  A    between atoms: C_2  and  C_10
REMARK    4  A    between atoms: C_3  and  C_4
REMARK    5  A    between atoms: C_15  and  S_16
REMARK    6  A    between atoms: S_16  and  C_17
REMARK    7  A    between atoms: C_17  and  C_18
REMARK                            x       y       z     vdW  Elec       q    Type
REMARK                         _______ _______ _______ _____ _____    ______ ____
ROOT
ATOM      1  C   UNL     1       0.471  12.153  20.246  0.00  0.00    +0.000 A 
ATOM      2  N   UNL     1       0.200  12.238  21.545  0.00  0.00    +0.000 NA
ATOM      3  N   UNL     1       0.381  10.987  22.126  0.00  0.00    +0.000 NA
ATOM      4  C   UNL     1       0.750  10.205  21.154  0.00  0.00    +0.000 A 
ATOM      5  S   UNL     1       1.245   8.586  20.968  0.00  0.00    +0.000 S 
ATOM      6  C   UNL     1       1.528   8.995  19.259  0.00  0.00    +0.000 A 
ATOM      7  N   UNL     1       1.265  10.209  18.860  0.00  0.00    +0.000 NA
ATOM      8  N   UNL     1       0.826  10.859  19.974  0.00  0.00    +0.000 N 
ENDROOT
BRANCH   1   9
ATOM      9  C   UNL     1       0.443  13.230  19.207  0.00  0.00    +0.000 C 
BRANCH   9  10
ATOM     10  N   UNL     1      -0.282  12.770  18.008  0.00  0.00    +0.000 NA
ATOM     11  H   UNL     1      -0.897  13.513  17.676  0.00  0.00    +0.000 HD
ATOM     12  H   UNL     1      -0.882  11.986  18.262  0.00  0.00    +0.000 HD
ENDBRANCH   9  10
BRANCH   9  13
ATOM     13  C   UNL     1      -0.166  14.533  19.788  0.00  0.00    +0.000 C 
BRANCH  13  14
ATOM     14  C   UNL     1       0.250  15.765  19.021  0.00  0.00    +0.000 A 
ATOM     15  C   UNL     1      -0.721  16.642  18.521  0.00  0.00    +0.000 A 
ATOM     16  C   UNL     1      -0.345  17.721  17.726  0.00  0.00    +0.000 A 
ATOM     17  C   UNL     1       0.999  17.944  17.443  0.00  0.00    +0.000 A 
ATOM     18  C   UNL     1       1.975  17.094  17.957  0.00  0.00    +0.000 A 
ATOM     19  C   UNL     1       1.603  16.005  18.743  0.00  0.00    +0.000 A 
ENDBRANCH  13  14
ENDBRANCH   9  13
ENDBRANCH   1   9
BRANCH   6  20
ATOM     20  S   UNL     1       2.112   7.734  18.234  0.00  0.00    +0.000 S 
BRANCH  20  21
ATOM     21  C   UNL     1       2.886   6.617  19.441  0.00  0.00    +0.000 C 
BRANCH  21  22
ATOM     22  C   UNL     1       2.211   5.264  19.416  0.00  0.00    +0.000 A 
ATOM     23  C   UNL     1       2.003   4.594  18.201  0.00  0.00    +0.000 A 
ATOM     24  C   UNL     1       1.319   3.376  18.167  0.00  0.00    +0.000 A 
ATOM     25  C   UNL     1       0.837   2.812  19.345  0.00  0.00    +0.000 A 
ATOM     26  C   UNL     1       1.043   3.461  20.561  0.00  0.00    +0.000 A 
ATOM     27  C   UNL     1       1.726   4.681  20.597  0.00  0.00    +0.000 A 
ENDBRANCH  21  22
ENDBRANCH  20  21
ENDBRANCH   6  20
TORSDOF 7
ENDMDL
MODEL 8
REMARK VINA RESULT:      -7.5      1.270      1.432
REMARK  Name = 
REMARK  7 active torsions:
REMARK  status: ('A' for Active; 'I' for Inactive)
REMARK    1  A    between atoms: N_1  and  C_2
REMARK    2  A    between atoms: C_2  and  C_3
REMARK    3  A    between atoms: C_2  and  C_10
REMARK    4  A    between atoms: C_3  and  C_4
REMARK    5  A    between atoms: C_15  and  S_16
REMARK    6  A    between atoms: S_16  and  C_17
REMARK    7  A    between atoms: C_17  and  C_18
REMARK                            x       y       z     vdW  Elec       q    Type
REMARK                         _______ _______ _______ _____ _____    ______ ____
ROOT
ATOM      1  C   UNL     1       4.349   4.599  17.608  0.00  0.00    +0.000 A 
ATOM      2  N   UNL     1       4.343   3.347  18.058  0.00  0.00    +0.000 NA
ATOM      3  N   UNL     1       3.561   3.285  19.208  0.00  0.00    +0.000 NA
ATOM      4  C   UNL     1       3.136   4.499  19.402  0.00  0.00    +0.000 A 
ATOM      5  S   UNL     1       2.097   5.304  20.485  0.00  0.00    +0.000 S 
ATOM      6  C   UNL     1       2.376   6.753  19.488  0.00  0.00    +0.000 A 
ATOM      7  N   UNL     1       3.175   6.654  18.461  0.00  0.00    +0.000 NA
ATOM      8  N   UNL     1       3.582   5.353  18.454  0.00  0.00    +0.000 N 
ENDROOT
BRANCH   1   9
ATOM      9  C   UNL     1       5.023   5.158  16.394  0.00  0.00    +0.000 C 
BRANCH   9  10
ATOM     10  N   UNL     1       5.444   6.551  16.636  0.00  0.00    +0.000 NA
ATOM     11  H   UNL     1       5.142   7.137  15.859  0.00  0.00    +0.000 HD
ATOM     12  H   UNL     1       6.462   6.593  16.656  0.00  0.00    +0.000 HD
ENDBRANCH   9  10
BRANCH   9  13
ATOM     13  C   UNL     1       6.213   4.259  15.968  0.00  0.00    +0.000 C 
BRANCH  13  14
ATOM     14  C   UNL     1       6.494   4.325  14.487  0.00  0.00    +0.000 A 
ATOM     15  C   UNL     1       5.805   3.485  13.603  0.00  0.00    +0.000 A 
ATOM     16  C   UNL     1       6.137   3.471  12.251  0.00  0.00    +0.000 A 
ATOM     17  C   UNL     1       7.140   4.306  11.770  0.00  0.00    +0.000 A 
ATOM     18  C   UNL     1       7.814   5.165  12.635  0.00  0.00    +0.000 A 
ATOM     19  C   UNL     1       7.494   5.174  13.992  0.00  0.00    +0.000 A 
ENDBRANCH  13  14
ENDBRANCH   9  13
ENDBRANCH   1   9
BRANCH   6  20
ATOM     20  S   UNL     1       1.580   8.207  19.972  0.00  0.00    +0.000 S 
BRANCH  20  21
ATOM     21  C   UNL     1       1.763   9.232  18.482  0.00  0.00    +0.000 C 
BRANCH  21  22
ATOM     22  C   UNL     1       0.828  10.419  18.540  0.00  0.00    +0.000 A 
ATOM     23  C   UNL     1      -0.550  10.251  18.331  0.00  0.00    +0.000 A 
ATOM     24  C   UNL     1      -1.408  11.354  18.316  0.00  0.00    +0.000 A 
ATOM     25  C   UNL     1      -0.901  12.636  18.510  0.00  0.00    +0.000 A 
ATOM     26  C   UNL     1       0.464  12.818  18.727  0.00  0.00    +0.000 A 
ATOM     27  C   UNL     1       1.324  11.716  18.741  0.00  0.00    +0.000 A 
ENDBRANCH  21  22
ENDBRANCH  20  21
ENDBRANCH   6  20
TORSDOF 7
ENDMDL
MODEL 9
REMARK VINA RESULT:      -7.4      4.592      6.108
REMARK  Name = 
REMARK  7 active torsions:
REMARK  status: ('A' for Active; 'I' for Inactive)
REMARK    1  A    between atoms: N_1  and  C_2
REMARK    2  A    between atoms: C_2  and  C_3
REMARK    3  A    between atoms: C_2  and  C_10
REMARK    4  A    between atoms: C_3  and  C_4
REMARK    5  A    between atoms: C_15  and  S_16
REMARK    6  A    between atoms: S_16  and  C_17
REMARK    7  A    between atoms: C_17  and  C_18
REMARK                            x       y       z     vdW  Elec       q    Type
REMARK                         _______ _______ _______ _____ _____    ______ ____
ROOT
ATOM      1  C   UNL     1       1.414   8.483  20.158  0.00  0.00    +0.000 A 
ATOM      2  N   UNL     1       1.632   8.203  21.440  0.00  0.00    +0.000 NA
ATOM      3  N   UNL     1       0.964   9.137  22.225  0.00  0.00    +0.000 NA
ATOM      4  C   UNL     1       0.378   9.939  21.385  0.00  0.00    +0.000 A 
ATOM      5  S   UNL     1      -0.679  11.272  21.455  0.00  0.00    +0.000 S 
ATOM      6  C   UNL     1      -0.702  11.195  19.676  0.00  0.00    +0.000 A 
ATOM      7  N   UNL     1       0.017  10.280  19.087  0.00  0.00    +0.000 NA
ATOM      8  N   UNL     1       0.613   9.591  20.100  0.00  0.00    +0.000 N 
ENDROOT
BRANCH   1   9
ATOM      9  C   UNL     1       1.897   7.757  18.941  0.00  0.00    +0.000 C 
BRANCH   9  10
ATOM     10  N   UNL     1       2.492   8.703  17.980  0.00  0.00    +0.000 NA
ATOM     11  H   UNL     1       2.976   8.185  17.248  0.00  0.00    +0.000 HD
ATOM     12  H   UNL     1       3.197   9.264  18.456  0.00  0.00    +0.000 HD
ENDBRANCH   9  10
BRANCH   9  13
ATOM     13  C   UNL     1       2.889   6.631  19.336  0.00  0.00    +0.000 C 
BRANCH  13  14
ATOM     14  C   UNL     1       2.240   5.269  19.376  0.00  0.00    +0.000 A 
ATOM     15  C   UNL     1       2.020   4.560  18.187  0.00  0.00    +0.000 A 
ATOM     16  C   UNL     1       1.329   3.352  18.212  0.00  0.00    +0.000 A 
ATOM     17  C   UNL     1       0.873   2.834  19.419  0.00  0.00    +0.000 A 
ATOM     18  C   UNL     1       1.110   3.516  20.611  0.00  0.00    +0.000 A 
ATOM     19  C   UNL     1       1.791   4.732  20.590  0.00  0.00    +0.000 A 
ENDBRANCH  13  14
ENDBRANCH   9  13
ENDBRANCH   1   9
BRANCH   6  20
ATOM     20  S   UNL     1      -1.666  12.365  18.850  0.00  0.00    +0.000 S 
BRANCH  20  21
ATOM     21  C   UNL     1      -3.014  12.628  20.040  0.00  0.00    +0.000 C 
BRANCH  21  22
ATOM     22  C   UNL     1      -4.331  12.165  19.456  0.00  0.00    +0.000 A 
ATOM     23  C   UNL     1      -4.393  11.666  18.146  0.00  0.00    +0.000 A 
ATOM     24  C   UNL     1      -5.617  11.302  17.579  0.00  0.00    +0.000 A 
ATOM     25  C   UNL     1      -6.792  11.431  18.313  0.00  0.00    +0.000 A 
ATOM     26  C   UNL     1      -6.746  11.918  19.618  0.00  0.00    +0.000 A 
ATOM     27  C   UNL     1      -5.523  12.285  20.187  0.00  0.00    +0.000 A 
ENDBRANCH  21  22
ENDBRANCH  20  21
ENDBRANCH   6  20
TORSDOF 7
ENDMDL
