MODEL 1
REMARK VINA RESULT:      -8.4      0.000      0.000
REMARK  Name = 
REMARK  7 active torsions:
REMARK  status: ('A' for Active; 'I' for Inactive)
REMARK    1  A    between atoms: C_2  and  C_13
REMARK    2  A    between atoms: N_3  and  C_4
REMARK    3  A    between atoms: C_8  and  C_9
REMARK    4  A    between atoms: C_9  and  O_11
REMARK    5  A    between atoms: C_13  and  N_24
REMARK    6  A    between atoms: C_14  and  C_15
REMARK    7  A    between atoms: C_25  and  C_27
REMARK                            x       y       z     vdW  Elec       q    Type
REMARK                         _______ _______ _______ _____ _____    ______ ____
ROOT
ATOM      1  C   UNL     1       5.924   6.974  17.146  0.00  0.00    +0.000 C 
ATOM      2  C   UNL     1       5.147   6.394  18.094  0.00  0.00    +0.000 C 
ENDROOT
BRANCH   2   3
ATOM      3  C   UNL     1       4.634   5.024  18.015  0.00  0.00    +0.000 A 
ATOM      4  C   UNL     1       5.249   3.924  18.647  0.00  0.00    +0.000 A 
ATOM      5  C   UNL     1       4.516   2.758  18.894  0.00  0.00    +0.000 A 
ATOM      6  C   UNL     1       3.191   2.759  18.511  0.00  0.00    +0.000 A 
ATOM      7  C   UNL     1       2.642   3.789  17.778  0.00  0.00    +0.000 A 
ATOM      8  C   UNL     1       3.353   4.912  17.461  0.00  0.00    +0.000 A 
ATOM      9  O   UNL     1       1.299   3.644  17.605  0.00  0.00    +0.000 OA
ATOM     10  C   UNL     1       1.062   2.678  18.644  0.00  0.00    +0.000 C 
ATOM     11  O   UNL     1       2.232   1.876  18.914  0.00  0.00    +0.000 OA
ENDBRANCH   2   3
BRANCH   1  13
ATOM     12  O   UNL     1       4.967   6.797  14.967  0.00  0.00    +0.000 OA
ATOM     13  C   UNL     1       5.884   6.446  15.705  0.00  0.00    +0.000 C 
ATOM     14  N   UNL     1       6.918   5.606  15.292  0.00  0.00    +0.000 N 
ATOM     15  H   UNL     1       7.566   5.265  15.991  0.00  0.00    +0.000 HD
BRANCH  14  16
ATOM     16  C   UNL     1       7.035   5.057  13.970  0.00  0.00    +0.000 A 
ATOM     17  C   UNL     1       8.010   5.479  13.052  0.00  0.00    +0.000 A 
ATOM     18  C   UNL     1       8.100   4.950  11.760  0.00  0.00    +0.000 A 
ATOM     19  C   UNL     1       7.215   3.967  11.349  0.00  0.00    +0.000 A 
ATOM     20  C   UNL     1       6.226   3.528  12.234  0.00  0.00    +0.000 A 
ATOM     21  C   UNL     1       6.152   4.051  13.548  0.00  0.00    +0.000 A 
BRANCH  20  22
ATOM     22  C   UNL     1       5.266   2.470  11.821  0.00  0.00    +0.000 C 
ATOM     23  O   UNL     1       4.099   2.712  11.560  0.00  0.00    +0.000 OA
BRANCH  22  24
ATOM     24  O   UNL     1       5.799   1.233  11.727  0.00  0.00    +0.000 OA
ATOM     25  H   UNL     1       6.387   0.963  12.457  0.00  0.00    +0.000 HD
ENDBRANCH  22  24
ENDBRANCH  20  22
ENDBRANCH  14  16
ENDBRANCH   1  13
BRANCH   1  26
ATOM     26  N   UNL     1       6.709   8.083  17.430  0.00  0.00    +0.000 N 
ATOM     27  C   UNL     1       7.881   8.077  18.192  0.00  0.00    +0.000 C 
ATOM     28  O   UNL     1       8.409   7.058  18.643  0.00  0.00    +0.000 OA
ATOM     29  H   UNL     1       6.466   8.977  17.001  0.00  0.00    +0.000 HD
BRANCH  27  30
ATOM     30  C   UNL     1       8.485   9.368  18.381  0.00  0.00    +0.000 A 
ATOM     31  C   UNL     1       8.531  10.460  17.532  0.00  0.00    +0.000 A 
ATOM     32  C   UNL     1       9.242  11.474  18.214  0.00  0.00    +0.000 A 
ATOM     33  C   UNL     1       9.586  10.941  19.435  0.00  0.00    +0.000 A 
ATOM     34 BR   UNL     1      10.542  11.837  20.761  0.00  0.00    +0.000 Br
ATOM     35  O   UNL     1       9.129   9.663  19.550  0.00  0.00    +0.000 OA
ENDBRANCH  27  30
ENDBRANCH   1  26
TORSDOF 7
ENDMDL
MODEL 2
REMARK VINA RESULT:      -8.3      4.704      7.743
REMARK  Name = 
REMARK  7 active torsions:
REMARK  status: ('A' for Active; 'I' for Inactive)
REMARK    1  A    between atoms: C_2  and  C_13
REMARK    2  A    between atoms: N_3  and  C_4
REMARK    3  A    between atoms: C_8  and  C_9
REMARK    4  A    between atoms: C_9  and  O_11
REMARK    5  A    between atoms: C_13  and  N_24
REMARK    6  A    between atoms: C_14  and  C_15
REMARK    7  A    between atoms: C_25  and  C_27
REMARK                            x       y       z     vdW  Elec       q    Type
REMARK                         _______ _______ _______ _____ _____    ______ ____
ROOT
ATOM      1  C   UNL     1       2.779   7.746  17.816  0.00  0.00    +0.000 C 
ATOM      2  C   UNL     1       4.027   8.149  17.466  0.00  0.00    +0.000 C 
ENDROOT
BRANCH   2   3
ATOM      3  C   UNL     1       5.104   7.242  17.065  0.00  0.00    +0.000 A 
ATOM      4  C   UNL     1       6.029   6.681  17.970  0.00  0.00    +0.000 A 
ATOM      5  C   UNL     1       6.740   5.528  17.620  0.00  0.00    +0.000 A 
ATOM      6  C   UNL     1       6.474   4.979  16.384  0.00  0.00    +0.000 A 
ATOM      7  C   UNL     1       5.668   5.611  15.461  0.00  0.00    +0.000 A 
ATOM      8  C   UNL     1       5.012   6.775  15.748  0.00  0.00    +0.000 A 
ATOM      9  O   UNL     1       5.448   4.845  14.356  0.00  0.00    +0.000 OA
ATOM     10  C   UNL     1       5.846   3.576  14.902  0.00  0.00    +0.000 C 
ATOM     11  O   UNL     1       6.811   3.725  15.966  0.00  0.00    +0.000 OA
ENDBRANCH   2   3
BRANCH   1  13
ATOM     12  O   UNL     1       2.161   5.458  17.538  0.00  0.00    +0.000 OA
ATOM     13  C   UNL     1       2.560   6.314  18.324  0.00  0.00    +0.000 C 
ATOM     14  N   UNL     1       2.853   6.048  19.661  0.00  0.00    +0.000 N 
ATOM     15  H   UNL     1       3.056   6.829  20.272  0.00  0.00    +0.000 HD
BRANCH  14  16
ATOM     16  C   UNL     1       2.726   4.755  20.275  0.00  0.00    +0.000 A 
ATOM     17  C   UNL     1       1.608   4.377  21.034  0.00  0.00    +0.000 A 
ATOM     18  C   UNL     1       1.508   3.122  21.644  0.00  0.00    +0.000 A 
ATOM     19  C   UNL     1       2.529   2.197  21.502  0.00  0.00    +0.000 A 
ATOM     20  C   UNL     1       3.661   2.542  20.759  0.00  0.00    +0.000 A 
ATOM     21  C   UNL     1       3.750   3.805  20.126  0.00  0.00    +0.000 A 
BRANCH  20  22
ATOM     22  C   UNL     1       4.770   1.566  20.585  0.00  0.00    +0.000 C 
ATOM     23  O   UNL     1       5.579   1.333  21.469  0.00  0.00    +0.000 OA
BRANCH  22  24
ATOM     24  O   UNL     1       4.785   0.939  19.390  0.00  0.00    +0.000 OA
ATOM     25  H   UNL     1       5.562   0.377  19.211  0.00  0.00    +0.000 HD
ENDBRANCH  22  24
ENDBRANCH  20  22
ENDBRANCH  14  16
ENDBRANCH   1  13
BRANCH   1  26
ATOM     26  N   UNL     1       1.701   8.619  17.789  0.00  0.00    +0.000 N 
ATOM     27  C   UNL     1       1.083   9.185  18.909  0.00  0.00    +0.000 C 
ATOM     28  O   UNL     1       1.479   9.038  20.067  0.00  0.00    +0.000 OA
ATOM     29  H   UNL     1       1.354   8.940  16.884  0.00  0.00    +0.000 HD
BRANCH  27  30
ATOM     30  C   UNL     1      -0.049  10.021  18.616  0.00  0.00    +0.000 A 
ATOM     31  C   UNL     1      -0.553  11.109  19.307  0.00  0.00    +0.000 A 
ATOM     32  C   UNL     1      -1.674  11.567  18.578  0.00  0.00    +0.000 A 
ATOM     33  C   UNL     1      -1.787  10.734  17.489  0.00  0.00    +0.000 A 
ATOM     34 BR   UNL     1      -3.098  10.869  16.171  0.00  0.00    +0.000 Br
ATOM     35  O   UNL     1      -0.803   9.792  17.498  0.00  0.00    +0.000 OA
ENDBRANCH  27  30
ENDBRANCH   1  26
TORSDOF 7
ENDMDL
MODEL 3
REMARK VINA RESULT:      -8.1      1.235      1.398
REMARK  Name = 
REMARK  7 active torsions:
REMARK  status: ('A' for Active; 'I' for Inactive)
REMARK    1  A    between atoms: C_2  and  C_13
REMARK    2  A    between atoms: N_3  and  C_4
REMARK    3  A    between atoms: C_8  and  C_9
REMARK    4  A    between atoms: C_9  and  O_11
REMARK    5  A    between atoms: C_13  and  N_24
REMARK    6  A    between atoms: C_14  and  C_15
REMARK    7  A    between atoms: C_25  and  C_27
REMARK                            x       y       z     vdW  Elec       q    Type
REMARK                         _______ _______ _______ _____ _____    ______ ____
ROOT
ATOM      1  C   UNL     1       6.710   6.162  17.926  0.00  0.00    +0.000 C 
ATOM      2  C   UNL     1       5.574   5.825  18.586  0.00  0.00    +0.000 C 
ENDROOT
BRANCH   2   3
ATOM      3  C   UNL     1       4.929   4.513  18.502  0.00  0.00    +0.000 A 
ATOM      4  C   UNL     1       5.258   3.428  19.341  0.00  0.00    +0.000 A 
ATOM      5  C   UNL     1       4.353   2.373  19.507  0.00  0.00    +0.000 A 
ATOM      6  C   UNL     1       3.152   2.466  18.837  0.00  0.00    +0.000 A 
ATOM      7  C   UNL     1       2.901   3.465  17.920  0.00  0.00    +0.000 A 
ATOM      8  C   UNL     1       3.794   4.473  17.684  0.00  0.00    +0.000 A 
ATOM      9  O   UNL     1       1.619   3.437  17.461  0.00  0.00    +0.000 OA
ATOM     10  C   UNL     1       1.050   2.612  18.493  0.00  0.00    +0.000 C 
ATOM     11  O   UNL     1       2.030   1.729  19.081  0.00  0.00    +0.000 OA
ENDBRANCH   2   3
BRANCH   1  13
ATOM     12  O   UNL     1       7.835   4.416  16.752  0.00  0.00    +0.000 OA
ATOM     13  C   UNL     1       7.103   5.397  16.654  0.00  0.00    +0.000 C 
ATOM     14  N   UNL     1       6.580   5.844  15.440  0.00  0.00    +0.000 N 
ATOM     15  H   UNL     1       6.087   6.728  15.427  0.00  0.00    +0.000 HD
BRANCH  14  16
ATOM     16  C   UNL     1       6.831   5.217  14.172  0.00  0.00    +0.000 A 
ATOM     17  C   UNL     1       7.951   5.518  13.381  0.00  0.00    +0.000 A 
ATOM     18  C   UNL     1       8.172   4.915  12.138  0.00  0.00    +0.000 A 
ATOM     19  C   UNL     1       7.276   3.979  11.651  0.00  0.00    +0.000 A 
ATOM     20  C   UNL     1       6.144   3.661  12.407  0.00  0.00    +0.000 A 
ATOM     21  C   UNL     1       5.935   4.257  13.675  0.00  0.00    +0.000 A 
BRANCH  20  22
ATOM     22  C   UNL     1       5.169   2.654  11.911  0.00  0.00    +0.000 C 
ATOM     23  O   UNL     1       4.004   2.934  11.677  0.00  0.00    +0.000 OA
BRANCH  22  24
ATOM     24  O   UNL     1       5.683   1.423  11.711  0.00  0.00    +0.000 OA
ATOM     25  H   UNL     1       5.197   0.683  12.120  0.00  0.00    +0.000 HD
ENDBRANCH  22  24
ENDBRANCH  20  22
ENDBRANCH  14  16
ENDBRANCH   1  13
BRANCH   1  26
ATOM     26  N   UNL     1       7.497   7.230  18.333  0.00  0.00    +0.000 N 
ATOM     27  C   UNL     1       7.572   8.475  17.700  0.00  0.00    +0.000 C 
ATOM     28  O   UNL     1       6.877   8.805  16.737  0.00  0.00    +0.000 OA
ATOM     29  H   UNL     1       8.024   7.144  19.204  0.00  0.00    +0.000 HD
BRANCH  27  30
ATOM     30  C   UNL     1       8.502   9.398  18.293  0.00  0.00    +0.000 A 
ATOM     31  C   UNL     1       9.018   9.438  19.576  0.00  0.00    +0.000 A 
ATOM     32  C   UNL     1       9.894  10.546  19.625  0.00  0.00    +0.000 A 
ATOM     33  C   UNL     1       9.860  11.114  18.373  0.00  0.00    +0.000 A 
ATOM     34 BR   UNL     1      10.829  12.620  17.855  0.00  0.00    +0.000 Br
ATOM     35  O   UNL     1       9.020  10.424  17.552  0.00  0.00    +0.000 OA
ENDBRANCH  27  30
ENDBRANCH   1  26
TORSDOF 7
ENDMDL
MODEL 4
REMARK VINA RESULT:      -8.0      4.593      7.645
REMARK  Name = 
REMARK  7 active torsions:
REMARK  status: ('A' for Active; 'I' for Inactive)
REMARK    1  A    between atoms: C_2  and  C_13
REMARK    2  A    between atoms: N_3  and  C_4
REMARK    3  A    between atoms: C_8  and  C_9
REMARK    4  A    between atoms: C_9  and  O_11
REMARK    5  A    between atoms: C_13  and  N_24
REMARK    6  A    between atoms: C_14  and  C_15
REMARK    7  A    between atoms: C_25  and  C_27
REMARK                            x       y       z     vdW  Elec       q    Type
REMARK                         _______ _______ _______ _____ _____    ______ ____
ROOT
ATOM      1  C   UNL     1       2.827   7.726  17.821  0.00  0.00    +0.000 C 
ATOM      2  C   UNL     1       4.060   8.146  17.443  0.00  0.00    +0.000 C 
ENDROOT
BRANCH   2   3
ATOM      3  C   UNL     1       5.133   7.254  16.996  0.00  0.00    +0.000 A 
ATOM      4  C   UNL     1       6.122   6.733  17.856  0.00  0.00    +0.000 A 
ATOM      5  C   UNL     1       6.838   5.589  17.486  0.00  0.00    +0.000 A 
ATOM      6  C   UNL     1       6.514   5.010  16.278  0.00  0.00    +0.000 A 
ATOM      7  C   UNL     1       5.640   5.604  15.393  0.00  0.00    +0.000 A 
ATOM      8  C   UNL     1       4.976   6.759  15.696  0.00  0.00    +0.000 A 
ATOM      9  O   UNL     1       5.374   4.812  14.317  0.00  0.00    +0.000 OA
ATOM     10  C   UNL     1       5.833   3.564  14.863  0.00  0.00    +0.000 C 
ATOM     11  O   UNL     1       6.855   3.755  15.866  0.00  0.00    +0.000 OA
ENDBRANCH   2   3
BRANCH   1  13
ATOM     12  O   UNL     1       2.361   5.408  17.495  0.00  0.00    +0.000 OA
ATOM     13  C   UNL     1       2.634   6.284  18.312  0.00  0.00    +0.000 C 
ATOM     14  N   UNL     1       2.807   6.033  19.673  0.00  0.00    +0.000 N 
ATOM     15  H   UNL     1       2.907   6.823  20.297  0.00  0.00    +0.000 HD
BRANCH  14  16
ATOM     16  C   UNL     1       2.689   4.734  20.278  0.00  0.00    +0.000 A 
ATOM     17  C   UNL     1       1.569   4.340  21.025  0.00  0.00    +0.000 A 
ATOM     18  C   UNL     1       1.476   3.080  21.626  0.00  0.00    +0.000 A 
ATOM     19  C   UNL     1       2.508   2.167  21.486  0.00  0.00    +0.000 A 
ATOM     20  C   UNL     1       3.644   2.529  20.756  0.00  0.00    +0.000 A 
ATOM     21  C   UNL     1       3.724   3.797  20.131  0.00  0.00    +0.000 A 
BRANCH  20  22
ATOM     22  C   UNL     1       4.764   1.565  20.585  0.00  0.00    +0.000 C 
ATOM     23  O   UNL     1       5.576   1.345  21.469  0.00  0.00    +0.000 OA
BRANCH  22  24
ATOM     24  O   UNL     1       4.787   0.935  19.392  0.00  0.00    +0.000 OA
ATOM     25  H   UNL     1       5.381   0.164  19.325  0.00  0.00    +0.000 HD
ENDBRANCH  22  24
ENDBRANCH  20  22
ENDBRANCH  14  16
ENDBRANCH   1  13
BRANCH   1  26
ATOM     26  N   UNL     1       1.740   8.589  17.840  0.00  0.00    +0.000 N 
ATOM     27  C   UNL     1       1.121   9.093  18.988  0.00  0.00    +0.000 C 
ATOM     28  O   UNL     1       1.521   8.893  20.136  0.00  0.00    +0.000 OA
ATOM     29  H   UNL     1       1.389   8.951  16.952  0.00  0.00    +0.000 HD
BRANCH  27  30
ATOM     30  C   UNL     1      -0.020   9.933  18.738  0.00  0.00    +0.000 A 
ATOM     31  C   UNL     1      -0.812  10.042  17.609  0.00  0.00    +0.000 A 
ATOM     32  C   UNL     1      -1.801  11.010  17.900  0.00  0.00    +0.000 A 
ATOM     33  C   UNL     1      -1.553  11.431  19.186  0.00  0.00    +0.000 A 
ATOM     34 BR   UNL     1      -2.551  12.712  20.102  0.00  0.00    +0.000 Br
ATOM     35  O   UNL     1      -0.475  10.782  19.708  0.00  0.00    +0.000 OA
ENDBRANCH  27  30
ENDBRANCH   1  26
TORSDOF 7
ENDMDL
MODEL 5
REMARK VINA RESULT:      -7.9      4.758      7.524
REMARK  Name = 
REMARK  7 active torsions:
REMARK  status: ('A' for Active; 'I' for Inactive)
REMARK    1  A    between atoms: C_2  and  C_13
REMARK    2  A    between atoms: N_3  and  C_4
REMARK    3  A    between atoms: C_8  and  C_9
REMARK    4  A    between atoms: C_9  and  O_11
REMARK    5  A    between atoms: C_13  and  N_24
REMARK    6  A    between atoms: C_14  and  C_15
REMARK    7  A    between atoms: C_25  and  C_27
REMARK                            x       y       z     vdW  Elec       q    Type
REMARK                         _______ _______ _______ _____ _____    ______ ____
ROOT
ATOM      1  C   UNL     1       2.570   7.970  17.807  0.00  0.00    +0.000 C 
ATOM      2  C   UNL     1       3.778   8.387  17.349  0.00  0.00    +0.000 C 
ENDROOT
BRANCH   2   3
ATOM      3  C   UNL     1       4.899   7.492  17.052  0.00  0.00    +0.000 A 
ATOM      4  C   UNL     1       5.818   7.045  18.024  0.00  0.00    +0.000 A 
ATOM      5  C   UNL     1       6.581   5.896  17.790  0.00  0.00    +0.000 A 
ATOM      6  C   UNL     1       6.372   5.238  16.597  0.00  0.00    +0.000 A 
ATOM      7  C   UNL     1       5.570   5.760  15.604  0.00  0.00    +0.000 A 
ATOM      8  C   UNL     1       4.864   6.917  15.777  0.00  0.00    +0.000 A 
ATOM      9  O   UNL     1       5.411   4.898  14.561  0.00  0.00    +0.000 OA
ATOM     10  C   UNL     1       5.840   3.695  15.221  0.00  0.00    +0.000 C 
ATOM     11  O   UNL     1       6.768   3.968  16.294  0.00  0.00    +0.000 OA
ENDBRANCH   2   3
BRANCH   1  13
ATOM     12  O   UNL     1       2.449   6.621  19.771  0.00  0.00    +0.000 OA
ATOM     13  C   UNL     1       2.460   6.627  18.542  0.00  0.00    +0.000 C 
ATOM     14  N   UNL     1       2.347   5.472  17.770  0.00  0.00    +0.000 N 
ATOM     15  H   UNL     1       2.489   5.548  16.771  0.00  0.00    +0.000 HD
BRANCH  14  16
ATOM     16  C   UNL     1       2.207   4.147  18.311  0.00  0.00    +0.000 A 
ATOM     17  C   UNL     1       0.962   3.521  18.479  0.00  0.00    +0.000 A 
ATOM     18  C   UNL     1       0.839   2.239  19.026  0.00  0.00    +0.000 A 
ATOM     19  C   UNL     1       1.968   1.538  19.415  0.00  0.00    +0.000 A 
ATOM     20  C   UNL     1       3.224   2.135  19.270  0.00  0.00    +0.000 A 
ATOM     21  C   UNL     1       3.346   3.423  18.696  0.00  0.00    +0.000 A 
BRANCH  20  22
ATOM     22  C   UNL     1       4.453   1.402  19.674  0.00  0.00    +0.000 C 
ATOM     23  O   UNL     1       5.166   1.779  20.590  0.00  0.00    +0.000 OA
BRANCH  22  24
ATOM     24  O   UNL     1       4.694   0.276  18.971  0.00  0.00    +0.000 OA
ATOM     25  H   UNL     1       5.593  -0.094  19.048  0.00  0.00    +0.000 HD
ENDBRANCH  22  24
ENDBRANCH  20  22
ENDBRANCH  14  16
ENDBRANCH   1  13
BRANCH   1  26
ATOM     26  N   UNL     1       1.437   8.762  17.687  0.00  0.00    +0.000 N 
ATOM     27  C   UNL     1       0.891   9.561  18.696  0.00  0.00    +0.000 C 
ATOM     28  O   UNL     1       1.404   9.724  19.805  0.00  0.00    +0.000 OA
ATOM     29  H   UNL     1       0.984   8.833  16.774  0.00  0.00    +0.000 HD
BRANCH  27  30
ATOM     30  C   UNL     1      -0.319  10.248  18.334  0.00  0.00    +0.000 A 
ATOM     31  C   UNL     1      -0.941  11.329  18.934  0.00  0.00    +0.000 A 
ATOM     32  C   UNL     1      -2.095  11.609  18.168  0.00  0.00    +0.000 A 
ATOM     33  C   UNL     1      -2.108  10.686  17.148  0.00  0.00    +0.000 A 
ATOM     34 BR   UNL     1      -3.411  10.578  15.819  0.00  0.00    +0.000 Br
ATOM     35  O   UNL     1      -1.032   9.855  17.236  0.00  0.00    +0.000 OA
ENDBRANCH  27  30
ENDBRANCH   1  26
TORSDOF 7
ENDMDL
MODEL 6
REMARK VINA RESULT:      -7.8      8.378     10.540
REMARK  Name = 
REMARK  7 active torsions:
REMARK  status: ('A' for Active; 'I' for Inactive)
REMARK    1  A    between atoms: C_2  and  C_13
REMARK    2  A    between atoms: N_3  and  C_4
REMARK    3  A    between atoms: C_8  and  C_9
REMARK    4  A    between atoms: C_9  and  O_11
REMARK    5  A    between atoms: C_13  and  N_24
REMARK    6  A    between atoms: C_14  and  C_15
REMARK    7  A    between atoms: C_25  and  C_27
REMARK                            x       y       z     vdW  Elec       q    Type
REMARK                         _______ _______ _______ _____ _____    ______ ____
ROOT
ATOM      1  C   UNL     1       0.589  10.190  20.129  0.00  0.00    +0.000 C 
ATOM      2  C   UNL     1       0.880  10.893  21.253  0.00  0.00    +0.000 C 
ENDROOT
BRANCH   2   3
ATOM      3  C   UNL     1       0.013  11.925  21.826  0.00  0.00    +0.000 A 
ATOM      4  C   UNL     1       0.030  13.274  21.413  0.00  0.00    +0.000 A 
ATOM      5  C   UNL     1      -1.071  14.098  21.671  0.00  0.00    +0.000 A 
ATOM      6  C   UNL     1      -2.146  13.524  22.316  0.00  0.00    +0.000 A 
ATOM      7  C   UNL     1      -2.094  12.246  22.829  0.00  0.00    +0.000 A 
ATOM      8  C   UNL     1      -1.006  11.438  22.652  0.00  0.00    +0.000 A 
ATOM      9  O   UNL     1      -3.296  11.836  23.323  0.00  0.00    +0.000 OA
ATOM     10  C   UNL     1      -4.127  12.815  22.676  0.00  0.00    +0.000 C 
ATOM     11  O   UNL     1      -3.408  14.037  22.398  0.00  0.00    +0.000 OA
ENDBRANCH   2   3
BRANCH   1  13
ATOM     12  O   UNL     1      -0.022  11.729  18.412  0.00  0.00    +0.000 OA
ATOM     13  C   UNL     1      -0.385  10.777  19.098  0.00  0.00    +0.000 C 
ATOM     14  N   UNL     1      -1.636  10.175  18.971  0.00  0.00    +0.000 N 
ATOM     15  H   UNL     1      -1.904   9.478  19.654  0.00  0.00    +0.000 HD
BRANCH  14  16
ATOM     16  C   UNL     1      -2.642  10.590  18.032  0.00  0.00    +0.000 A 
ATOM     17  C   UNL     1      -3.714  11.426  18.383  0.00  0.00    +0.000 A 
ATOM     18  C   UNL     1      -4.697  11.805  17.464  0.00  0.00    +0.000 A 
ATOM     19  C   UNL     1      -4.631  11.363  16.153  0.00  0.00    +0.000 A 
ATOM     20  C   UNL     1      -3.583  10.522  15.770  0.00  0.00    +0.000 A 
ATOM     21  C   UNL     1      -2.577  10.158  16.698  0.00  0.00    +0.000 A 
BRANCH  20  22
ATOM     22  C   UNL     1      -3.484  10.038  14.368  0.00  0.00    +0.000 C 
ATOM     23  O   UNL     1      -2.413   9.897  13.800  0.00  0.00    +0.000 OA
BRANCH  22  24
ATOM     24  O   UNL     1      -4.667   9.737  13.792  0.00  0.00    +0.000 OA
ATOM     25  H   UNL     1      -4.814  10.102  12.899  0.00  0.00    +0.000 HD
ENDBRANCH  22  24
ENDBRANCH  20  22
ENDBRANCH  14  16
ENDBRANCH   1  13
BRANCH   1  26
ATOM     26  N   UNL     1       1.204   8.976  19.853  0.00  0.00    +0.000 N 
ATOM     27  C   UNL     1       1.999   8.702  18.736  0.00  0.00    +0.000 C 
ATOM     28  O   UNL     1       2.320   9.540  17.891  0.00  0.00    +0.000 OA
ATOM     29  H   UNL     1       1.138   8.227  20.544  0.00  0.00    +0.000 HD
BRANCH  27  30
ATOM     30  C   UNL     1       2.480   7.349  18.656  0.00  0.00    +0.000 A 
ATOM     31  C   UNL     1       2.246   6.272  19.492  0.00  0.00    +0.000 A 
ATOM     32  C   UNL     1       2.955   5.176  18.949  0.00  0.00    +0.000 A 
ATOM     33  C   UNL     1       3.578   5.649  17.817  0.00  0.00    +0.000 A 
ATOM     34 BR   UNL     1       4.659   4.634  16.688  0.00  0.00    +0.000 Br
ATOM     35  O   UNL     1       3.294   6.968  17.626  0.00  0.00    +0.000 OA
ENDBRANCH  27  30
ENDBRANCH   1  26
TORSDOF 7
ENDMDL
MODEL 7
REMARK VINA RESULT:      -7.7      8.398     10.616
REMARK  Name = 
REMARK  7 active torsions:
REMARK  status: ('A' for Active; 'I' for Inactive)
REMARK    1  A    between atoms: C_2  and  C_13
REMARK    2  A    between atoms: N_3  and  C_4
REMARK    3  A    between atoms: C_8  and  C_9
REMARK    4  A    between atoms: C_9  and  O_11
REMARK    5  A    between atoms: C_13  and  N_24
REMARK    6  A    between atoms: C_14  and  C_15
REMARK    7  A    between atoms: C_25  and  C_27
REMARK                            x       y       z     vdW  Elec       q    Type
REMARK                         _______ _______ _______ _____ _____    ______ ____
ROOT
ATOM      1  C   UNL     1       0.581  10.137  19.821  0.00  0.00    +0.000 C 
ATOM      2  C   UNL     1       0.781  10.760  21.009  0.00  0.00    +0.000 C 
ENDROOT
BRANCH   2   3
ATOM      3  C   UNL     1      -0.186  11.663  21.639  0.00  0.00    +0.000 A 
ATOM      4  C   UNL     1      -1.145  11.241  22.584  0.00  0.00    +0.000 A 
ATOM      5  C   UNL     1      -1.734  12.173  23.446  0.00  0.00    +0.000 A 
ATOM      6  C   UNL     1      -1.318  13.482  23.333  0.00  0.00    +0.000 A 
ATOM      7  C   UNL     1      -0.480  13.899  22.320  0.00  0.00    +0.000 A 
ATOM      8  C   UNL     1       0.059  13.023  21.420  0.00  0.00    +0.000 A 
ATOM      9  O   UNL     1      -0.105  15.201  22.461  0.00  0.00    +0.000 OA
ATOM     10  C   UNL     1      -0.456  15.367  23.846  0.00  0.00    +0.000 C 
ATOM     11  O   UNL     1      -1.522  14.477  24.244  0.00  0.00    +0.000 OA
ENDBRANCH   2   3
BRANCH   1  13
ATOM     12  O   UNL     1      -0.082  11.719  18.162  0.00  0.00    +0.000 OA
ATOM     13  C   UNL     1      -0.412  10.730  18.811  0.00  0.00    +0.000 C 
ATOM     14  N   UNL     1      -1.643  10.092  18.661  0.00  0.00    +0.000 N 
ATOM     15  H   UNL     1      -1.888   9.362  19.318  0.00  0.00    +0.000 HD
BRANCH  14  16
ATOM     16  C   UNL     1      -2.663  10.509  17.738  0.00  0.00    +0.000 A 
ATOM     17  C   UNL     1      -3.736  11.334  18.109  0.00  0.00    +0.000 A 
ATOM     18  C   UNL     1      -4.733  11.716  17.204  0.00  0.00    +0.000 A 
ATOM     19  C   UNL     1      -4.679  11.285  15.889  0.00  0.00    +0.000 A 
ATOM     20  C   UNL     1      -3.629  10.455  15.486  0.00  0.00    +0.000 A 
ATOM     21  C   UNL     1      -2.610  10.090  16.399  0.00  0.00    +0.000 A 
BRANCH  20  22
ATOM     22  C   UNL     1      -3.543   9.984  14.079  0.00  0.00    +0.000 C 
ATOM     23  O   UNL     1      -2.477   9.829  13.506  0.00  0.00    +0.000 OA
BRANCH  22  24
ATOM     24  O   UNL     1      -4.733   9.712  13.503  0.00  0.00    +0.000 OA
ATOM     25  H   UNL     1      -5.181  10.462  13.069  0.00  0.00    +0.000 HD
ENDBRANCH  22  24
ENDBRANCH  20  22
ENDBRANCH  14  16
ENDBRANCH   1  13
BRANCH   1  26
ATOM     26  N   UNL     1       1.304   9.008  19.463  0.00  0.00    +0.000 N 
ATOM     27  C   UNL     1       2.057   8.860  18.294  0.00  0.00    +0.000 C 
ATOM     28  O   UNL     1       2.238   9.757  17.468  0.00  0.00    +0.000 OA
ATOM     29  H   UNL     1       1.358   8.232  20.125  0.00  0.00    +0.000 HD
BRANCH  27  30
ATOM     30  C   UNL     1       2.675   7.572  18.133  0.00  0.00    +0.000 A 
ATOM     31  C   UNL     1       3.859   7.226  17.507  0.00  0.00    +0.000 A 
ATOM     32  C   UNL     1       3.998   5.826  17.646  0.00  0.00    +0.000 A 
ATOM     33  C   UNL     1       2.892   5.403  18.347  0.00  0.00    +0.000 A 
ATOM     34 BR   UNL     1       2.542   3.635  18.824  0.00  0.00    +0.000 Br
ATOM     35  O   UNL     1       2.082   6.454  18.652  0.00  0.00    +0.000 OA
ENDBRANCH  27  30
ENDBRANCH   1  26
TORSDOF 7
ENDMDL
MODEL 8
REMARK VINA RESULT:      -7.7      8.653     11.048
REMARK  Name = 
REMARK  7 active torsions:
REMARK  status: ('A' for Active; 'I' for Inactive)
REMARK    1  A    between atoms: C_2  and  C_13
REMARK    2  A    between atoms: N_3  and  C_4
REMARK    3  A    between atoms: C_8  and  C_9
REMARK    4  A    between atoms: C_9  and  O_11
REMARK    5  A    between atoms: C_13  and  N_24
REMARK    6  A    between atoms: C_14  and  C_15
REMARK    7  A    between atoms: C_25  and  C_27
REMARK                            x       y       z     vdW  Elec       q    Type
REMARK                         _______ _______ _______ _____ _____    ______ ____
ROOT
ATOM      1  C   UNL     1       0.561   9.830  20.421  0.00  0.00    +0.000 C 
ATOM      2  C   UNL     1       0.791  10.605  21.510  0.00  0.00    +0.000 C 
ENDROOT
BRANCH   2   3
ATOM      3  C   UNL     1      -0.052  11.734  21.910  0.00  0.00    +0.000 A 
ATOM      4  C   UNL     1       0.066  13.028  21.360  0.00  0.00    +0.000 A 
ATOM      5  C   UNL     1      -1.002  13.928  21.453  0.00  0.00    +0.000 A 
ATOM      6  C   UNL     1      -2.146  13.479  22.078  0.00  0.00    +0.000 A 
ATOM      7  C   UNL     1      -2.199  12.262  22.723  0.00  0.00    +0.000 A 
ATOM      8  C   UNL     1      -1.148  11.389  22.709  0.00  0.00    +0.000 A 
ATOM      9  O   UNL     1      -3.451  11.967  23.171  0.00  0.00    +0.000 OA
ATOM     10  C   UNL     1      -4.184  12.910  22.370  0.00  0.00    +0.000 C 
ATOM     11  O   UNL     1      -3.381  14.058  22.016  0.00  0.00    +0.000 OA
ENDBRANCH   2   3
BRANCH   1  13
ATOM     12  O   UNL     1       0.241  11.228  18.514  0.00  0.00    +0.000 OA
ATOM     13  C   UNL     1      -0.265  10.387  19.253  0.00  0.00    +0.000 C 
ATOM     14  N   UNL     1      -1.553   9.884  19.070  0.00  0.00    +0.000 N 
ATOM     15  H   UNL     1      -1.941   9.288  19.791  0.00  0.00    +0.000 HD
BRANCH  14  16
ATOM     16  C   UNL     1      -2.435  10.284  18.008  0.00  0.00    +0.000 A 
ATOM     17  C   UNL     1      -2.205   9.957  16.663  0.00  0.00    +0.000 A 
ATOM     18  C   UNL     1      -3.061  10.370  15.637  0.00  0.00    +0.000 A 
ATOM     19  C   UNL     1      -4.186  11.122  15.931  0.00  0.00    +0.000 A 
ATOM     20  C   UNL     1      -4.442  11.473  17.260  0.00  0.00    +0.000 A 
ATOM     21  C   UNL     1      -3.585  11.034  18.298  0.00  0.00    +0.000 A 
BRANCH  20  22
ATOM     22  C   UNL     1      -5.647  12.274  17.605  0.00  0.00    +0.000 C 
ATOM     23  O   UNL     1      -5.706  12.964  18.610  0.00  0.00    +0.000 OA
BRANCH  22  24
ATOM     24  O   UNL     1      -6.648  12.201  16.703  0.00  0.00    +0.000 OA
ATOM     25  H   UNL     1      -6.507  11.593  15.953  0.00  0.00    +0.000 HD
ENDBRANCH  22  24
ENDBRANCH  20  22
ENDBRANCH  14  16
ENDBRANCH   1  13
BRANCH   1  26
ATOM     26  N   UNL     1       1.113   8.562  20.303  0.00  0.00    +0.000 N 
ATOM     27  C   UNL     1       1.990   8.145  19.297  0.00  0.00    +0.000 C 
ATOM     28  O   UNL     1       2.449   8.887  18.427  0.00  0.00    +0.000 OA
ATOM     29  H   UNL     1       0.929   7.878  21.040  0.00  0.00    +0.000 HD
BRANCH  27  30
ATOM     30  C   UNL     1       2.381   6.763  19.372  0.00  0.00    +0.000 A 
ATOM     31  C   UNL     1       3.203   6.026  18.538  0.00  0.00    +0.000 A 
ATOM     32  C   UNL     1       3.257   4.719  19.074  0.00  0.00    +0.000 A 
ATOM     33  C   UNL     1       2.467   4.737  20.200  0.00  0.00    +0.000 A 
ATOM     34 BR   UNL     1       2.167   3.276  21.319  0.00  0.00    +0.000 Br
ATOM     35  O   UNL     1       1.932   5.975  20.395  0.00  0.00    +0.000 OA
ENDBRANCH  27  30
ENDBRANCH   1  26
TORSDOF 7
ENDMDL
MODEL 9
REMARK VINA RESULT:      -7.7      8.300     10.434
REMARK  Name = 
REMARK  7 active torsions:
REMARK  status: ('A' for Active; 'I' for Inactive)
REMARK    1  A    between atoms: C_2  and  C_13
REMARK    2  A    between atoms: N_3  and  C_4
REMARK    3  A    between atoms: C_8  and  C_9
REMARK    4  A    between atoms: C_9  and  O_11
REMARK    5  A    between atoms: C_13  and  N_24
REMARK    6  A    between atoms: C_14  and  C_15
REMARK    7  A    between atoms: C_25  and  C_27
REMARK                            x       y       z     vdW  Elec       q    Type
REMARK                         _______ _______ _______ _____ _____    ______ ____
ROOT
ATOM      1  C   UNL     1       0.776  10.193  19.865  0.00  0.00    +0.000 C 
ATOM      2  C   UNL     1       1.127  10.840  21.005  0.00  0.00    +0.000 C 
ENDROOT
BRANCH   2   3
ATOM      3  C   UNL     1       0.276  11.812  21.696  0.00  0.00    +0.000 A 
ATOM      4  C   UNL     1       0.226  13.181  21.361  0.00  0.00    +0.000 A 
ATOM      5  C   UNL     1      -0.875  13.955  21.743  0.00  0.00    +0.000 A 
ATOM      6  C   UNL     1      -1.885  13.313  22.427  0.00  0.00    +0.000 A 
ATOM      7  C   UNL     1      -1.762  12.010  22.860  0.00  0.00    +0.000 A 
ATOM      8  C   UNL     1      -0.668  11.247  22.561  0.00  0.00    +0.000 A 
ATOM      9  O   UNL     1      -2.915  11.536  23.412  0.00  0.00    +0.000 OA
ATOM     10  C   UNL     1      -3.816  12.524  22.883  0.00  0.00    +0.000 C 
ATOM     11  O   UNL     1      -3.152  13.780  22.626  0.00  0.00    +0.000 OA
ENDBRANCH   2   3
BRANCH   1  13
ATOM     12  O   UNL     1      -0.059  11.895  18.416  0.00  0.00    +0.000 OA
ATOM     13  C   UNL     1      -0.284  10.806  18.940  0.00  0.00    +0.000 C 
ATOM     14  N   UNL     1      -1.451  10.076  18.715  0.00  0.00    +0.000 N 
ATOM     15  H   UNL     1      -1.615   9.251  19.278  0.00  0.00    +0.000 HD
BRANCH  14  16
ATOM     16  C   UNL     1      -2.519  10.503  17.854  0.00  0.00    +0.000 A 
ATOM     17  C   UNL     1      -3.566  11.330  18.290  0.00  0.00    +0.000 A 
ATOM     18  C   UNL     1      -4.611  11.721  17.446  0.00  0.00    +0.000 A 
ATOM     19  C   UNL     1      -4.634  11.299  16.127  0.00  0.00    +0.000 A 
ATOM     20  C   UNL     1      -3.612  10.466  15.661  0.00  0.00    +0.000 A 
ATOM     21  C   UNL     1      -2.545  10.091  16.512  0.00  0.00    +0.000 A 
BRANCH  20  22
ATOM     22  C   UNL     1      -3.609  10.003  14.248  0.00  0.00    +0.000 C 
ATOM     23  O   UNL     1      -4.636   9.731  13.648  0.00  0.00    +0.000 OA
BRANCH  22  24
ATOM     24  O   UNL     1      -2.386   9.941  13.679  0.00  0.00    +0.000 OA
ATOM     25  H   UNL     1      -1.709   9.442  14.171  0.00  0.00    +0.000 HD
ENDBRANCH  22  24
ENDBRANCH  20  22
ENDBRANCH  14  16
ENDBRANCH   1  13
BRANCH   1  26
ATOM     26  N   UNL     1       1.402   9.016  19.477  0.00  0.00    +0.000 N 
ATOM     27  C   UNL     1       2.108   8.825  18.285  0.00  0.00    +0.000 C 
ATOM     28  O   UNL     1       2.331   9.714  17.461  0.00  0.00    +0.000 OA
ATOM     29  H   UNL     1       1.417   8.232  20.131  0.00  0.00    +0.000 HD
BRANCH  27  30
ATOM     30  C   UNL     1       2.622   7.495  18.096  0.00  0.00    +0.000 A 
ATOM     31  C   UNL     1       3.773   7.071  17.456  0.00  0.00    +0.000 A 
ATOM     32  C   UNL     1       3.803   5.662  17.567  0.00  0.00    +0.000 A 
ATOM     33  C   UNL     1       2.671   5.312  18.266  0.00  0.00    +0.000 A 
ATOM     34 BR   UNL     1       2.186   3.568  18.713  0.00  0.00    +0.000 Br
ATOM     35  O   UNL     1       1.946   6.418  18.597  0.00  0.00    +0.000 OA
ENDBRANCH  27  30
ENDBRANCH   1  26
TORSDOF 7
ENDMDL
