MODEL 1
REMARK VINA RESULT:      -7.4      0.000      0.000
REMARK  Name = 
REMARK  7 active torsions:
REMARK  status: ('A' for Active; 'I' for Inactive)
REMARK    1  A    between atoms: C_1  and  C_2
REMARK    2  A    between atoms: C_2  and  C_8
REMARK    3  A    between atoms: N_3  and  N_4
REMARK    4  A    between atoms: C_10  and  O_11
REMARK    5  A    between atoms: C_13  and  C_14
REMARK    6  A    between atoms: C_14  and  C_15
REMARK    7  A    between atoms: N_16  and  N_17
REMARK                            x       y       z     vdW  Elec       q    Type
REMARK                         _______ _______ _______ _____ _____    ______ ____
ROOT
ATOM      1  C   UNL     1       3.004   4.582  18.952  0.00  0.00    +0.000 A 
ATOM      2  C   UNL     1       2.946   3.181  18.973  0.00  0.00    +0.000 A 
ATOM      3  C   UNL     1       3.724   2.444  18.083  0.00  0.00    +0.000 A 
ATOM      4  C   UNL     1       4.562   3.068  17.164  0.00  0.00    +0.000 A 
ATOM      5  C   UNL     1       4.619   4.462  17.124  0.00  0.00    +0.000 A 
ATOM      6  C   UNL     1       3.848   5.212  18.027  0.00  0.00    +0.000 A 
ENDROOT
BRANCH   1   8
ATOM      7  C   UNL     1       1.078   4.623  20.672  0.00  0.00    +0.000 C 
ATOM      8  C   UNL     1       2.164   5.374  19.922  0.00  0.00    +0.000 C 
ATOM      9  N   UNL     1       2.421   6.644  20.061  0.00  0.00    +0.000 NA
BRANCH   9  10
ATOM     10  N   UNL     1       1.662   7.392  20.913  0.00  0.00    +0.000 N 
ATOM     11  C   UNL     1       1.126   8.593  20.557  0.00  0.00    +0.000 C 
ATOM     12  N   UNL     1       1.322   9.182  19.429  0.00  0.00    +0.000 NA
ATOM     13  N   UNL     1       0.344   9.165  21.499  0.00  0.00    +0.000 N 
ATOM     14  H   UNL     1       1.105   6.922  21.620  0.00  0.00    +0.000 HD
ATOM     15  H   UNL     1       1.934   8.526  18.920  0.00  0.00    +0.000 HD
ATOM     16  H   UNL     1       0.770   9.188  22.416  0.00  0.00    +0.000 HD
ATOM     17  H   UNL     1       0.107  10.106  21.198  0.00  0.00    +0.000 HD
ENDBRANCH   9  10
ENDBRANCH   1   8
BRANCH   5  18
ATOM     18  C   UNL     1       5.500   5.195  16.162  0.00  0.00    +0.000 C 
ATOM     19  C   UNL     1       5.141   6.620  15.783  0.00  0.00    +0.000 C 
ATOM     20  N   UNL     1       6.561   4.581  15.716  0.00  0.00    +0.000 NA
BRANCH  20  21
ATOM     21  N   UNL     1       7.371   5.232  14.832  0.00  0.00    +0.000 N 
ATOM     22  C   UNL     1       7.379   4.947  13.499  0.00  0.00    +0.000 C 
ATOM     23  N   UNL     1       6.695   4.003  12.948  0.00  0.00    +0.000 NA
ATOM     24  N   UNL     1       8.176   5.738  12.749  0.00  0.00    +0.000 N 
ATOM     25  H   UNL     1       7.692   6.171  15.042  0.00  0.00    +0.000 HD
ATOM     26  H   UNL     1       6.178   3.588  13.738  0.00  0.00    +0.000 HD
ATOM     27  H   UNL     1       9.110   5.839  13.119  0.00  0.00    +0.000 HD
ATOM     28  H   UNL     1       8.208   5.366  11.804  0.00  0.00    +0.000 HD
ENDBRANCH  20  21
ENDBRANCH   5  18
BRANCH   3  29
ATOM     29  O   UNL     1       3.698   1.080  18.080  0.00  0.00    +0.000 OA
ATOM     30  H   UNL     1       4.566   0.747  17.794  0.00  0.00    +0.000 HD
ENDBRANCH   3  29
TORSDOF 5
ENDMDL
MODEL 2
REMARK VINA RESULT:      -7.3      1.567      2.059
REMARK  Name = 
REMARK  7 active torsions:
REMARK  status: ('A' for Active; 'I' for Inactive)
REMARK    1  A    between atoms: C_1  and  C_2
REMARK    2  A    between atoms: C_2  and  C_8
REMARK    3  A    between atoms: N_3  and  N_4
REMARK    4  A    between atoms: C_10  and  O_11
REMARK    5  A    between atoms: C_13  and  C_14
REMARK    6  A    between atoms: C_14  and  C_15
REMARK    7  A    between atoms: N_16  and  N_17
REMARK                            x       y       z     vdW  Elec       q    Type
REMARK                         _______ _______ _______ _____ _____    ______ ____
ROOT
ATOM      1  C   UNL     1       3.124   6.056  19.375  0.00  0.00    +0.000 A 
ATOM      2  C   UNL     1       2.854   4.852  20.042  0.00  0.00    +0.000 A 
ATOM      3  C   UNL     1       3.687   3.753  19.848  0.00  0.00    +0.000 A 
ATOM      4  C   UNL     1       4.788   3.818  18.999  0.00  0.00    +0.000 A 
ATOM      5  C   UNL     1       5.059   5.006  18.319  0.00  0.00    +0.000 A 
ATOM      6  C   UNL     1       4.232   6.123  18.520  0.00  0.00    +0.000 A 
ENDROOT
BRANCH   1   8
ATOM      7  C   UNL     1       2.104   8.243  18.456  0.00  0.00    +0.000 C 
ATOM      8  C   UNL     1       2.222   7.244  19.594  0.00  0.00    +0.000 C 
ATOM      9  N   UNL     1       1.600   7.340  20.735  0.00  0.00    +0.000 NA
BRANCH   9  10
ATOM     10  N   UNL     1       0.795   8.417  20.971  0.00  0.00    +0.000 N 
ATOM     11  C   UNL     1       1.054   9.325  21.954  0.00  0.00    +0.000 C 
ATOM     12  N   UNL     1       2.022   9.240  22.799  0.00  0.00    +0.000 NA
ATOM     13  N   UNL     1       0.194  10.366  22.002  0.00  0.00    +0.000 N 
ATOM     14  H   UNL     1       0.284   8.831  20.197  0.00  0.00    +0.000 HD
ATOM     15  H   UNL     1       2.505   8.372  22.522  0.00  0.00    +0.000 HD
ATOM     16  H   UNL     1      -0.778  10.087  21.979  0.00  0.00    +0.000 HD
ATOM     17  H   UNL     1       0.384  10.907  22.842  0.00  0.00    +0.000 HD
ENDBRANCH   9  10
ENDBRANCH   1   8
BRANCH   5  18
ATOM     18  C   UNL     1       6.226   5.143  17.392  0.00  0.00    +0.000 C 
ATOM     19  C   UNL     1       7.588   4.659  17.855  0.00  0.00    +0.000 C 
ATOM     20  N   UNL     1       6.010   5.645  16.209  0.00  0.00    +0.000 NA
BRANCH  20  21
ATOM     21  N   UNL     1       7.064   5.784  15.353  0.00  0.00    +0.000 N 
ATOM     22  C   UNL     1       7.163   5.075  14.193  0.00  0.00    +0.000 C 
ATOM     23  N   UNL     1       6.334   4.162  13.819  0.00  0.00    +0.000 NA
ATOM     24  N   UNL     1       8.223   5.391  13.418  0.00  0.00    +0.000 N 
ATOM     25  H   UNL     1       7.587   6.652  15.337  0.00  0.00    +0.000 HD
ATOM     26  H   UNL     1       5.634   4.148  14.577  0.00  0.00    +0.000 HD
ATOM     27  H   UNL     1       9.099   5.417  13.921  0.00  0.00    +0.000 HD
ATOM     28  H   UNL     1       8.276   4.726  12.651  0.00  0.00    +0.000 HD
ENDBRANCH  20  21
ENDBRANCH   5  18
BRANCH   3  29
ATOM     29  O   UNL     1       3.459   2.569  20.487  0.00  0.00    +0.000 OA
ATOM     30  H   UNL     1       4.313   2.152  20.697  0.00  0.00    +0.000 HD
ENDBRANCH   3  29
TORSDOF 5
ENDMDL
MODEL 3
REMARK VINA RESULT:      -7.3      0.061      7.194
REMARK  Name = 
REMARK  7 active torsions:
REMARK  status: ('A' for Active; 'I' for Inactive)
REMARK    1  A    between atoms: C_1  and  C_2
REMARK    2  A    between atoms: C_2  and  C_8
REMARK    3  A    between atoms: N_3  and  N_4
REMARK    4  A    between atoms: C_10  and  O_11
REMARK    5  A    between atoms: C_13  and  C_14
REMARK    6  A    between atoms: C_14  and  C_15
REMARK    7  A    between atoms: N_16  and  N_17
REMARK                            x       y       z     vdW  Elec       q    Type
REMARK                         _______ _______ _______ _____ _____    ______ ____
ROOT
ATOM      1  C   UNL     1       4.633   4.527  17.173  0.00  0.00    +0.000 A 
ATOM      2  C   UNL     1       4.611   3.126  17.177  0.00  0.00    +0.000 A 
ATOM      3  C   UNL     1       3.784   2.450  18.070  0.00  0.00    +0.000 A 
ATOM      4  C   UNL     1       2.972   3.136  18.968  0.00  0.00    +0.000 A 
ATOM      5  C   UNL     1       2.994   4.531  18.984  0.00  0.00    +0.000 A 
ATOM      6  C   UNL     1       3.816   5.221  18.077  0.00  0.00    +0.000 A 
ENDROOT
BRANCH   1   8
ATOM      7  C   UNL     1       5.107   6.654  15.786  0.00  0.00    +0.000 C 
ATOM      8  C   UNL     1       5.526   5.254  16.199  0.00  0.00    +0.000 C 
ATOM      9  N   UNL     1       6.598   4.644  15.779  0.00  0.00    +0.000 NA
BRANCH   9  10
ATOM     10  N   UNL     1       7.414   5.267  14.879  0.00  0.00    +0.000 N 
ATOM     11  C   UNL     1       7.397   4.975  13.548  0.00  0.00    +0.000 C 
ATOM     12  N   UNL     1       6.678   4.055  13.004  0.00  0.00    +0.000 NA
ATOM     13  N   UNL     1       8.219   5.735  12.792  0.00  0.00    +0.000 N 
ATOM     14  H   UNL     1       7.702   6.224  15.054  0.00  0.00    +0.000 HD
ATOM     15  H   UNL     1       6.158   3.657  13.801  0.00  0.00    +0.000 HD
ATOM     16  H   UNL     1       9.158   5.802  13.161  0.00  0.00    +0.000 HD
ATOM     17  H   UNL     1       8.238   5.356  11.849  0.00  0.00    +0.000 HD
ENDBRANCH   9  10
ENDBRANCH   1   8
BRANCH   5  18
ATOM     18  C   UNL     1       2.146   5.330  19.923  0.00  0.00    +0.000 C 
ATOM     19  C   UNL     1       1.056   4.622  20.705  0.00  0.00    +0.000 C 
ATOM     20  N   UNL     1       2.408   6.601  20.051  0.00  0.00    +0.000 NA
BRANCH  20  21
ATOM     21  N   UNL     1       1.641   7.347  20.898  0.00  0.00    +0.000 N 
ATOM     22  C   UNL     1       1.123   8.557  20.543  0.00  0.00    +0.000 C 
ATOM     23  N   UNL     1       1.356   9.154  19.425  0.00  0.00    +0.000 NA
ATOM     24  N   UNL     1       0.317   9.127  21.465  0.00  0.00    +0.000 N 
ATOM     25  H   UNL     1       1.118   6.889  21.636  0.00  0.00    +0.000 HD
ATOM     26  H   UNL     1       1.972   8.495  18.924  0.00  0.00    +0.000 HD
ATOM     27  H   UNL     1       0.713   9.143  22.394  0.00  0.00    +0.000 HD
ATOM     28  H   UNL     1       0.090  10.070  21.160  0.00  0.00    +0.000 HD
ENDBRANCH  20  21
ENDBRANCH   5  18
BRANCH   3  29
ATOM     29  O   UNL     1       3.732   1.086  18.097  0.00  0.00    +0.000 OA
ATOM     30  H   UNL     1       4.399   0.732  17.483  0.00  0.00    +0.000 HD
ENDBRANCH   3  29
TORSDOF 5
ENDMDL
MODEL 4
REMARK VINA RESULT:      -7.3      1.897      7.800
REMARK  Name = 
REMARK  7 active torsions:
REMARK  status: ('A' for Active; 'I' for Inactive)
REMARK    1  A    between atoms: C_1  and  C_2
REMARK    2  A    between atoms: C_2  and  C_8
REMARK    3  A    between atoms: N_3  and  N_4
REMARK    4  A    between atoms: C_10  and  O_11
REMARK    5  A    between atoms: C_13  and  C_14
REMARK    6  A    between atoms: C_14  and  C_15
REMARK    7  A    between atoms: N_16  and  N_17
REMARK                            x       y       z     vdW  Elec       q    Type
REMARK                         _______ _______ _______ _____ _____    ______ ____
ROOT
ATOM      1  C   UNL     1       3.326   5.499  18.617  0.00  0.00    +0.000 A 
ATOM      2  C   UNL     1       3.167   4.473  19.559  0.00  0.00    +0.000 A 
ATOM      3  C   UNL     1       2.386   4.690  20.693  0.00  0.00    +0.000 A 
ATOM      4  C   UNL     1       1.758   5.911  20.917  0.00  0.00    +0.000 A 
ATOM      5  C   UNL     1       1.920   6.945  19.994  0.00  0.00    +0.000 A 
ATOM      6  C   UNL     1       2.694   6.730  18.842  0.00  0.00    +0.000 A 
ENDROOT
BRANCH   1   8
ATOM      7  C   UNL     1       4.058   3.889  16.735  0.00  0.00    +0.000 C 
ATOM      8  C   UNL     1       4.167   5.255  17.390  0.00  0.00    +0.000 C 
ATOM      9  N   UNL     1       4.926   6.225  16.964  0.00  0.00    +0.000 NA
BRANCH   9  10
ATOM     10  N   UNL     1       5.716   6.026  15.869  0.00  0.00    +0.000 N 
ATOM     11  C   UNL     1       6.969   5.495  15.954  0.00  0.00    +0.000 C 
ATOM     12  N   UNL     1       7.566   5.190  17.054  0.00  0.00    +0.000 NA
ATOM     13  N   UNL     1       7.583   5.303  14.767  0.00  0.00    +0.000 N 
ATOM     14  H   UNL     1       5.280   5.827  14.975  0.00  0.00    +0.000 HD
ATOM     15  H   UNL     1       6.872   5.429  17.777  0.00  0.00    +0.000 HD
ATOM     16  H   UNL     1       7.546   6.110  14.159  0.00  0.00    +0.000 HD
ATOM     17  H   UNL     1       8.549   5.037  14.939  0.00  0.00    +0.000 HD
ENDBRANCH   9  10
ENDBRANCH   1   8
BRANCH   5  18
ATOM     18  C   UNL     1       1.272   8.282  20.175  0.00  0.00    +0.000 C 
ATOM     19  C   UNL     1       1.436   9.326  19.086  0.00  0.00    +0.000 C 
ATOM     20  N   UNL     1       0.565   8.477  21.253  0.00  0.00    +0.000 NA
BRANCH  20  21
ATOM     21  N   UNL     1      -0.027   9.692  21.438  0.00  0.00    +0.000 N 
ATOM     22  C   UNL     1      -0.221  10.231  22.675  0.00  0.00    +0.000 C 
ATOM     23  N   UNL     1       0.056   9.637  23.785  0.00  0.00    +0.000 NA
ATOM     24  N   UNL     1      -0.743  11.477  22.681  0.00  0.00    +0.000 N 
ATOM     25  H   UNL     1       0.011  10.387  20.700  0.00  0.00    +0.000 HD
ATOM     26  H   UNL     1       0.449   8.733  23.481  0.00  0.00    +0.000 HD
ATOM     27  H   UNL     1      -1.558  11.577  22.093  0.00  0.00    +0.000 HD
ATOM     28  H   UNL     1      -0.964  11.733  23.639  0.00  0.00    +0.000 HD
ENDBRANCH  20  21
ENDBRANCH   5  18
BRANCH   3  29
ATOM     29  O   UNL     1       2.203   3.712  21.626  0.00  0.00    +0.000 OA
ATOM     30  H   UNL     1       2.225   4.112  22.513  0.00  0.00    +0.000 HD
ENDBRANCH   3  29
TORSDOF 5
ENDMDL
MODEL 5
REMARK VINA RESULT:      -7.2      1.861      3.185
REMARK  Name = 
REMARK  7 active torsions:
REMARK  status: ('A' for Active; 'I' for Inactive)
REMARK    1  A    between atoms: C_1  and  C_2
REMARK    2  A    between atoms: C_2  and  C_8
REMARK    3  A    between atoms: N_3  and  N_4
REMARK    4  A    between atoms: C_10  and  O_11
REMARK    5  A    between atoms: C_13  and  C_14
REMARK    6  A    between atoms: C_14  and  C_15
REMARK    7  A    between atoms: N_16  and  N_17
REMARK                            x       y       z     vdW  Elec       q    Type
REMARK                         _______ _______ _______ _____ _____    ______ ____
ROOT
ATOM      1  C   UNL     1       2.038   6.864  19.881  0.00  0.00    +0.000 A 
ATOM      2  C   UNL     1       1.766   5.917  20.879  0.00  0.00    +0.000 A 
ATOM      3  C   UNL     1       2.271   4.625  20.761  0.00  0.00    +0.000 A 
ATOM      4  C   UNL     1       3.045   4.245  19.669  0.00  0.00    +0.000 A 
ATOM      5  C   UNL     1       3.312   5.174  18.662  0.00  0.00    +0.000 A 
ATOM      6  C   UNL     1       2.817   6.483  18.779  0.00  0.00    +0.000 A 
ENDROOT
BRANCH   1   8
ATOM      7  C   UNL     1       1.572   9.159  18.793  0.00  0.00    +0.000 C 
ATOM      8  C   UNL     1       1.492   8.263  20.017  0.00  0.00    +0.000 C 
ATOM      9  N   UNL     1       0.985   8.615  21.164  0.00  0.00    +0.000 NA
BRANCH   9  10
ATOM     10  N   UNL     1       0.505   9.883  21.323  0.00  0.00    +0.000 N 
ATOM     11  C   UNL     1      -0.241  10.255  22.401  0.00  0.00    +0.000 C 
ATOM     12  N   UNL     1      -0.629   9.461  23.338  0.00  0.00    +0.000 NA
ATOM     13  N   UNL     1      -0.573  11.564  22.434  0.00  0.00    +0.000 N 
ATOM     14  H   UNL     1       1.030  10.662  20.938  0.00  0.00    +0.000 HD
ATOM     15  H   UNL     1      -0.230   8.552  23.061  0.00  0.00    +0.000 HD
ATOM     16  H   UNL     1      -0.957  11.904  21.562  0.00  0.00    +0.000 HD
ATOM     17  H   UNL     1      -1.235  11.713  23.191  0.00  0.00    +0.000 HD
ENDBRANCH   9  10
ENDBRANCH   1   8
BRANCH   5  18
ATOM     18  C   UNL     1       4.136   4.831  17.461  0.00  0.00    +0.000 C 
ATOM     19  C   UNL     1       4.278   3.373  17.065  0.00  0.00    +0.000 C 
ATOM     20  N   UNL     1       4.670   5.811  16.787  0.00  0.00    +0.000 NA
BRANCH  20  21
ATOM     21  N   UNL     1       5.431   5.516  15.693  0.00  0.00    +0.000 N 
ATOM     22  C   UNL     1       6.782   5.694  15.673  0.00  0.00    +0.000 C 
ATOM     23  N   UNL     1       7.467   6.216  16.631  0.00  0.00    +0.000 NA
ATOM     24  N   UNL     1       7.397   5.275  14.545  0.00  0.00    +0.000 N 
ATOM     25  H   UNL     1       5.108   4.821  15.029  0.00  0.00    +0.000 HD
ATOM     26  H   UNL     1       6.757   6.419  17.351  0.00  0.00    +0.000 HD
ATOM     27  H   UNL     1       6.959   5.608  13.698  0.00  0.00    +0.000 HD
ATOM     28  H   UNL     1       8.370   5.565  14.578  0.00  0.00    +0.000 HD
ENDBRANCH  20  21
ENDBRANCH   5  18
BRANCH   3  29
ATOM     29  O   UNL     1       2.032   3.680  21.717  0.00  0.00    +0.000 OA
ATOM     30  H   UNL     1       2.494   3.933  22.535  0.00  0.00    +0.000 HD
ENDBRANCH   3  29
TORSDOF 5
ENDMDL
MODEL 6
REMARK VINA RESULT:      -7.2      1.146      7.063
REMARK  Name = 
REMARK  7 active torsions:
REMARK  status: ('A' for Active; 'I' for Inactive)
REMARK    1  A    between atoms: C_1  and  C_2
REMARK    2  A    between atoms: C_2  and  C_8
REMARK    3  A    between atoms: N_3  and  N_4
REMARK    4  A    between atoms: C_10  and  O_11
REMARK    5  A    between atoms: C_13  and  C_14
REMARK    6  A    between atoms: C_14  and  C_15
REMARK    7  A    between atoms: N_16  and  N_17
REMARK                            x       y       z     vdW  Elec       q    Type
REMARK                         _______ _______ _______ _____ _____    ______ ____
ROOT
ATOM      1  C   UNL     1       4.814   4.534  17.339  0.00  0.00    +0.000 A 
ATOM      2  C   UNL     1       4.248   3.258  17.208  0.00  0.00    +0.000 A 
ATOM      3  C   UNL     1       3.026   2.979  17.815  0.00  0.00    +0.000 A 
ATOM      4  C   UNL     1       2.347   3.941  18.556  0.00  0.00    +0.000 A 
ATOM      5  C   UNL     1       2.905   5.211  18.705  0.00  0.00    +0.000 A 
ATOM      6  C   UNL     1       4.131   5.505  18.085  0.00  0.00    +0.000 A 
ENDROOT
BRANCH   1   8
ATOM      7  C   UNL     1       7.391   4.586  17.491  0.00  0.00    +0.000 C 
ATOM      8  C   UNL     1       6.134   4.833  16.675  0.00  0.00    +0.000 C 
ATOM      9  N   UNL     1       6.118   5.276  15.450  0.00  0.00    +0.000 NA
BRANCH   9  10
ATOM     10  N   UNL     1       7.297   5.577  14.831  0.00  0.00    +0.000 N 
ATOM     11  C   UNL     1       7.597   5.147  13.574  0.00  0.00    +0.000 C 
ATOM     12  N   UNL     1       6.855   4.369  12.864  0.00  0.00    +0.000 NA
ATOM     13  N   UNL     1       8.775   5.595  13.088  0.00  0.00    +0.000 N 
ATOM     14  H   UNL     1       7.762   6.452  15.054  0.00  0.00    +0.000 HD
ATOM     15  H   UNL     1       6.037   4.201  13.470  0.00  0.00    +0.000 HD
ATOM     16  H   UNL     1       9.547   5.478  13.731  0.00  0.00    +0.000 HD
ATOM     17  H   UNL     1       8.971   5.116  12.214  0.00  0.00    +0.000 HD
ENDBRANCH   9  10
ENDBRANCH   1   8
BRANCH   5  18
ATOM     18  C   UNL     1       2.228   6.292  19.488  0.00  0.00    +0.000 C 
ATOM     19  C   UNL     1       1.533   5.926  20.786  0.00  0.00    +0.000 C 
ATOM     20  N   UNL     1       2.296   7.511  19.031  0.00  0.00    +0.000 NA
BRANCH  20  21
ATOM     21  N   UNL     1       1.678   8.508  19.728  0.00  0.00    +0.000 N 
ATOM     22  C   UNL     1       1.097   9.578  19.115  0.00  0.00    +0.000 C 
ATOM     23  N   UNL     1       1.130   9.803  17.847  0.00  0.00    +0.000 NA
ATOM     24  N   UNL     1       0.454  10.431  19.942  0.00  0.00    +0.000 N 
ATOM     25  H   UNL     1       1.293   8.315  20.646  0.00  0.00    +0.000 HD
ATOM     26  H   UNL     1       1.657   8.998  17.474  0.00  0.00    +0.000 HD
ATOM     27  H   UNL     1       1.003  10.707  20.744  0.00  0.00    +0.000 HD
ATOM     28  H   UNL     1       0.170  11.249  19.409  0.00  0.00    +0.000 HD
ENDBRANCH  20  21
ENDBRANCH   5  18
BRANCH   3  29
ATOM     29  O   UNL     1       2.443   1.750  17.703  0.00  0.00    +0.000 OA
ATOM     30  H   UNL     1       2.187   1.604  16.775  0.00  0.00    +0.000 HD
ENDBRANCH   3  29
TORSDOF 5
ENDMDL
MODEL 7
REMARK VINA RESULT:      -7.2      1.965      3.107
REMARK  Name = 
REMARK  7 active torsions:
REMARK  status: ('A' for Active; 'I' for Inactive)
REMARK    1  A    between atoms: C_1  and  C_2
REMARK    2  A    between atoms: C_2  and  C_8
REMARK    3  A    between atoms: N_3  and  N_4
REMARK    4  A    between atoms: C_10  and  O_11
REMARK    5  A    between atoms: C_13  and  C_14
REMARK    6  A    between atoms: C_14  and  C_15
REMARK    7  A    between atoms: N_16  and  N_17
REMARK                            x       y       z     vdW  Elec       q    Type
REMARK                         _______ _______ _______ _____ _____    ______ ____
ROOT
ATOM      1  C   UNL     1       2.082   6.601  20.154  0.00  0.00    +0.000 A 
ATOM      2  C   UNL     1       1.502   5.534  20.854  0.00  0.00    +0.000 A 
ATOM      3  C   UNL     1       2.094   4.274  20.807  0.00  0.00    +0.000 A 
ATOM      4  C   UNL     1       3.255   4.044  20.075  0.00  0.00    +0.000 A 
ATOM      5  C   UNL     1       3.835   5.095  19.362  0.00  0.00    +0.000 A 
ATOM      6  C   UNL     1       3.252   6.372  19.415  0.00  0.00    +0.000 A 
ENDROOT
BRANCH   1   8
ATOM      7  C   UNL     1       1.625   8.870  19.007  0.00  0.00    +0.000 C 
ATOM      8  C   UNL     1       1.441   7.964  20.213  0.00  0.00    +0.000 C 
ATOM      9  N   UNL     1       0.767   8.279  21.283  0.00  0.00    +0.000 NA
BRANCH   9  10
ATOM     10  N   UNL     1       0.195   9.515  21.375  0.00  0.00    +0.000 N 
ATOM     11  C   UNL     1      -0.081  10.109  22.570  0.00  0.00    +0.000 C 
ATOM     12  N   UNL     1       0.096   9.562  23.723  0.00  0.00    +0.000 NA
ATOM     13  N   UNL     1      -0.582  11.360  22.477  0.00  0.00    +0.000 N 
ATOM     14  H   UNL     1       0.373  10.197  20.644  0.00  0.00    +0.000 HD
ATOM     15  H   UNL     1       0.488   8.637  23.490  0.00  0.00    +0.000 HD
ATOM     16  H   UNL     1      -1.346  11.440  21.820  0.00  0.00    +0.000 HD
ATOM     17  H   UNL     1      -0.880  11.661  23.401  0.00  0.00    +0.000 HD
ENDBRANCH   9  10
ENDBRANCH   1   8
BRANCH   5  18
ATOM     18  C   UNL     1       5.082   4.916  18.555  0.00  0.00    +0.000 C 
ATOM     19  C   UNL     1       6.408   5.347  19.155  0.00  0.00    +0.000 C 
ATOM     20  N   UNL     1       4.974   4.364  17.379  0.00  0.00    +0.000 NA
BRANCH  20  21
ATOM     21  N   UNL     1       6.101   4.199  16.627  0.00  0.00    +0.000 N 
ATOM     22  C   UNL     1       6.426   5.040  15.604  0.00  0.00    +0.000 C 
ATOM     23  N   UNL     1       5.689   6.014  15.192  0.00  0.00    +0.000 NA
ATOM     24  N   UNL     1       7.616   4.789  15.014  0.00  0.00    +0.000 N 
ATOM     25  H   UNL     1       6.902   3.719  17.020  0.00  0.00    +0.000 HD
ATOM     26  H   UNL     1       4.873   5.980  15.822  0.00  0.00    +0.000 HD
ATOM     27  H   UNL     1       7.746   3.819  14.763  0.00  0.00    +0.000 HD
ATOM     28  H   UNL     1       7.704   5.382  14.193  0.00  0.00    +0.000 HD
ENDBRANCH  20  21
ENDBRANCH   5  18
BRANCH   3  29
ATOM     29  O   UNL     1       1.561   3.214  21.482  0.00  0.00    +0.000 OA
ATOM     30  H   UNL     1       2.118   3.019  22.255  0.00  0.00    +0.000 HD
ENDBRANCH   3  29
TORSDOF 5
ENDMDL
MODEL 8
REMARK VINA RESULT:      -7.2      1.425      7.125
REMARK  Name = 
REMARK  7 active torsions:
REMARK  status: ('A' for Active; 'I' for Inactive)
REMARK    1  A    between atoms: C_1  and  C_2
REMARK    2  A    between atoms: C_2  and  C_8
REMARK    3  A    between atoms: N_3  and  N_4
REMARK    4  A    between atoms: C_10  and  O_11
REMARK    5  A    between atoms: C_13  and  C_14
REMARK    6  A    between atoms: C_14  and  C_15
REMARK    7  A    between atoms: N_16  and  N_17
REMARK                            x       y       z     vdW  Elec       q    Type
REMARK                         _______ _______ _______ _____ _____    ______ ____
ROOT
ATOM      1  C   UNL     1       4.550   4.204  16.943  0.00  0.00    +0.000 A 
ATOM      2  C   UNL     1       4.118   2.891  17.177  0.00  0.00    +0.000 A 
ATOM      3  C   UNL     1       3.094   2.653  18.091  0.00  0.00    +0.000 A 
ATOM      4  C   UNL     1       2.485   3.694  18.785  0.00  0.00    +0.000 A 
ATOM      5  C   UNL     1       2.915   5.005  18.571  0.00  0.00    +0.000 A 
ATOM      6  C   UNL     1       3.938   5.254  17.641  0.00  0.00    +0.000 A 
ENDROOT
BRANCH   1   8
ATOM      7  C   UNL     1       6.944   5.057  16.482  0.00  0.00    +0.000 C 
ATOM      8  C   UNL     1       5.655   4.456  15.948  0.00  0.00    +0.000 C 
ATOM      9  N   UNL     1       5.442   4.141  14.702  0.00  0.00    +0.000 NA
BRANCH   9  10
ATOM     10  N   UNL     1       6.415   4.380  13.775  0.00  0.00    +0.000 N 
ATOM     11  C   UNL     1       6.473   3.719  12.585  0.00  0.00    +0.000 C 
ATOM     12  N   UNL     1       5.679   2.769  12.230  0.00  0.00    +0.000 NA
ATOM     13  N   UNL     1       7.459   4.129  11.758  0.00  0.00    +0.000 N 
ATOM     14  H   UNL     1       6.823   5.308  13.714  0.00  0.00    +0.000 HD
ATOM     15  H   UNL     1       5.039   2.680  13.034  0.00  0.00    +0.000 HD
ATOM     16  H   UNL     1       8.363   4.192  12.209  0.00  0.00    +0.000 HD
ATOM     17  H   UNL     1       7.506   3.493  10.966  0.00  0.00    +0.000 HD
ENDBRANCH   9  10
ENDBRANCH   1   8
BRANCH   5  18
ATOM     18  C   UNL     1       2.303   6.169  19.284  0.00  0.00    +0.000 C 
ATOM     19  C   UNL     1       1.655   5.939  20.636  0.00  0.00    +0.000 C 
ATOM     20  N   UNL     1       2.386   7.342  18.721  0.00  0.00    +0.000 NA
BRANCH  20  21
ATOM     21  N   UNL     1       1.828   8.414  19.354  0.00  0.00    +0.000 N 
ATOM     22  C   UNL     1       1.524   9.572  18.701  0.00  0.00    +0.000 C 
ATOM     23  N   UNL     1       1.792   9.808  17.463  0.00  0.00    +0.000 NA
ATOM     24  N   UNL     1       0.899  10.505  19.453  0.00  0.00    +0.000 N 
ATOM     25  H   UNL     1       1.277   8.272  20.193  0.00  0.00    +0.000 HD
ATOM     26  H   UNL     1       2.240   8.935  17.144  0.00  0.00    +0.000 HD
ATOM     27  H   UNL     1       1.350  10.678  20.340  0.00  0.00    +0.000 HD
ATOM     28  H   UNL     1       0.833  11.365  18.915  0.00  0.00    +0.000 HD
ENDBRANCH  20  21
ENDBRANCH   5  18
BRANCH   3  29
ATOM     29  O   UNL     1       2.643   1.389  18.338  0.00  0.00    +0.000 OA
ATOM     30  H   UNL     1       1.828   1.441  18.867  0.00  0.00    +0.000 HD
ENDBRANCH   3  29
TORSDOF 5
ENDMDL
MODEL 9
REMARK VINA RESULT:      -7.2      1.948      7.706
REMARK  Name = 
REMARK  7 active torsions:
REMARK  status: ('A' for Active; 'I' for Inactive)
REMARK    1  A    between atoms: C_1  and  C_2
REMARK    2  A    between atoms: C_2  and  C_8
REMARK    3  A    between atoms: N_3  and  N_4
REMARK    4  A    between atoms: C_10  and  O_11
REMARK    5  A    between atoms: C_13  and  C_14
REMARK    6  A    between atoms: C_14  and  C_15
REMARK    7  A    between atoms: N_16  and  N_17
REMARK                            x       y       z     vdW  Elec       q    Type
REMARK                         _______ _______ _______ _____ _____    ______ ____
ROOT
ATOM      1  C   UNL     1       3.826   5.129  19.328  0.00  0.00    +0.000 A 
ATOM      2  C   UNL     1       3.250   4.048  20.009  0.00  0.00    +0.000 A 
ATOM      3  C   UNL     1       2.091   4.241  20.758  0.00  0.00    +0.000 A 
ATOM      4  C   UNL     1       1.487   5.491  20.850  0.00  0.00    +0.000 A 
ATOM      5  C   UNL     1       2.059   6.579  20.188  0.00  0.00    +0.000 A 
ATOM      6  C   UNL     1       3.220   6.389  19.420  0.00  0.00    +0.000 A 
ENDROOT
BRANCH   1   8
ATOM      7  C   UNL     1       6.392   5.352  19.136  0.00  0.00    +0.000 C 
ATOM      8  C   UNL     1       5.078   4.912  18.515  0.00  0.00    +0.000 C 
ATOM      9  N   UNL     1       4.958   4.360  17.341  0.00  0.00    +0.000 NA
BRANCH   9  10
ATOM     10  N   UNL     1       6.070   4.173  16.572  0.00  0.00    +0.000 N 
ATOM     11  C   UNL     1       6.425   5.030  15.574  0.00  0.00    +0.000 C 
ATOM     12  N   UNL     1       5.736   6.053  15.202  0.00  0.00    +0.000 NA
ATOM     13  N   UNL     1       7.591   4.732  14.961  0.00  0.00    +0.000 N 
ATOM     14  H   UNL     1       6.876   3.705  16.975  0.00  0.00    +0.000 HD
ATOM     15  H   UNL     1       4.924   6.038  15.837  0.00  0.00    +0.000 HD
ATOM     16  H   UNL     1       7.663   3.762  14.682  0.00  0.00    +0.000 HD
ATOM     17  H   UNL     1       7.699   5.338  14.152  0.00  0.00    +0.000 HD
ENDBRANCH   9  10
ENDBRANCH   1   8
BRANCH   5  18
ATOM     18  C   UNL     1       1.461   7.950  20.245  0.00  0.00    +0.000 C 
ATOM     19  C   UNL     1       1.598   8.858  19.038  0.00  0.00    +0.000 C 
ATOM     20  N   UNL     1       0.816   8.289  21.327  0.00  0.00    +0.000 NA
BRANCH  20  21
ATOM     21  N   UNL     1       0.270   9.538  21.399  0.00  0.00    +0.000 N 
ATOM     22  C   UNL     1      -0.146  10.087  22.576  0.00  0.00    +0.000 C 
ATOM     23  N   UNL     1      -0.143   9.477  23.711  0.00  0.00    +0.000 NA
ATOM     24  N   UNL     1      -0.584  11.361  22.488  0.00  0.00    +0.000 N 
ATOM     25  H   UNL     1       0.502  10.229  20.696  0.00  0.00    +0.000 HD
ATOM     26  H   UNL     1       0.251   8.550  23.485  0.00  0.00    +0.000 HD
ATOM     27  H   UNL     1      -1.251  11.510  21.744  0.00  0.00    +0.000 HD
ATOM     28  H   UNL     1      -0.986  11.630  23.383  0.00  0.00    +0.000 HD
ENDBRANCH  20  21
ENDBRANCH   5  18
BRANCH   3  29
ATOM     29  O   UNL     1       1.498   3.210  21.427  0.00  0.00    +0.000 OA
ATOM     30  H   UNL     1       0.600   3.080  21.077  0.00  0.00    +0.000 HD
ENDBRANCH   3  29
TORSDOF 5
ENDMDL
