MODEL 1
REMARK VINA RESULT:      -7.8      0.000      0.000
REMARK  Name = 
REMARK  11 active torsions:
REMARK  status: ('A' for Active; 'I' for Inactive)
REMARK    1  A    between atoms: C_1  and  O_2
REMARK    2  A    between atoms: O_2  and  C_3
REMARK    3  A    between atoms: C_6  and  C_7
REMARK    4  A    between atoms: C_10  and  C_11
REMARK    5  A    between atoms: C_11  and  C_12
REMARK    6  A    between atoms: C_12  and  C_13
REMARK    7  A    between atoms: N_15  and  C_16
REMARK    8  A    between atoms: C_16  and  C_17
REMARK    9  A    between atoms: C_17  and  C_18
REMARK   10  A    between atoms: C_26  and  O_27
REMARK   11  A    between atoms: O_27  and  C_28
REMARK                            x       y       z     vdW  Elec       q    Type
REMARK                         _______ _______ _______ _____ _____    ______ ____
ROOT
ATOM      1  C   UNL     1       8.145   8.766  18.073  0.00  0.00    +0.000 A 
ATOM      2  N   UNL     1       7.250   8.586  17.089  0.00  0.00    +0.000 NA
ATOM      3  O   UNL     1       6.998   7.215  17.117  0.00  0.00    +0.000 OA
ATOM      4  C   UNL     1       7.764   6.704  18.117  0.00  0.00    +0.000 A 
ATOM      5  N   UNL     1       8.490   7.604  18.733  0.00  0.00    +0.000 NA
ENDROOT
BRANCH   1   9
ATOM      6  C   UNL     1       9.839  12.553  19.070  0.00  0.00    +0.000 A 
ATOM      7  C   UNL     1      10.120  11.424  19.857  0.00  0.00    +0.000 A 
ATOM      8  C   UNL     1       9.553  10.183  19.561  0.00  0.00    +0.000 A 
ATOM      9  C   UNL     1       8.651  10.063  18.502  0.00  0.00    +0.000 A 
ATOM     10  C   UNL     1       8.273  11.220  17.810  0.00  0.00    +0.000 A 
ATOM     11  C   UNL     1       8.852  12.468  18.079  0.00  0.00    +0.000 A 
BRANCH   6  13
ATOM     12  C   UNL     1       9.968  14.562  20.293  0.00  0.00    +0.000 C 
ATOM     13  O   UNL     1      10.517  13.727  19.271  0.00  0.00    +0.000 OA
ENDBRANCH   6  13
BRANCH  11  14
ATOM     14  O   UNL     1       8.355  13.440  17.255  0.00  0.00    +0.000 OA
ATOM     15  C   UNL     1       7.248  14.216  17.678  0.00  0.00    +0.000 C 
ENDBRANCH  11  14
ENDBRANCH   1   9
BRANCH   4  16
ATOM     16  C   UNL     1       7.659   5.253  18.383  0.00  0.00    +0.000 C 
BRANCH  16  17
ATOM     17  C   UNL     1       6.713   4.579  17.391  0.00  0.00    +0.000 C 
BRANCH  17  18
ATOM     18  C   UNL     1       5.544   3.945  18.107  0.00  0.00    +0.000 C 
ATOM     19  O   UNL     1       5.429   3.953  19.325  0.00  0.00    +0.000 OA
ATOM     20  N   UNL     1       4.632   3.339  17.270  0.00  0.00    +0.000 N 
ATOM     21  H   UNL     1       4.693   3.512  16.274  0.00  0.00    +0.000 HD
BRANCH  20  22
ATOM     22  C   UNL     1       3.434   2.730  17.823  0.00  0.00    +0.000 C 
BRANCH  22  23
ATOM     23  C   UNL     1       2.172   3.559  17.582  0.00  0.00    +0.000 C 
BRANCH  23  24
ATOM     24  C   UNL     1       2.126   4.781  18.471  0.00  0.00    +0.000 A 
ATOM     25  C   UNL     1       2.484   6.039  17.965  0.00  0.00    +0.000 A 
ATOM     26  C   UNL     1       2.468   7.166  18.791  0.00  0.00    +0.000 A 
ATOM     27  C   UNL     1       2.097   7.047  20.129  0.00  0.00    +0.000 A 
ATOM     28  C   UNL     1       1.741   5.800  20.641  0.00  0.00    +0.000 A 
ATOM     29  C   UNL     1       1.757   4.673  19.818  0.00  0.00    +0.000 A 
ENDBRANCH  23  24
ENDBRANCH  22  23
ENDBRANCH  20  22
ENDBRANCH  17  18
ENDBRANCH  16  17
ENDBRANCH   4  16
TORSDOF 9
ENDMDL
MODEL 2
REMARK VINA RESULT:      -7.6      4.297      6.777
REMARK  Name = 
REMARK  11 active torsions:
REMARK  status: ('A' for Active; 'I' for Inactive)
REMARK    1  A    between atoms: C_1  and  O_2
REMARK    2  A    between atoms: O_2  and  C_3
REMARK    3  A    between atoms: C_6  and  C_7
REMARK    4  A    between atoms: C_10  and  C_11
REMARK    5  A    between atoms: C_11  and  C_12
REMARK    6  A    between atoms: C_12  and  C_13
REMARK    7  A    between atoms: N_15  and  C_16
REMARK    8  A    between atoms: C_16  and  C_17
REMARK    9  A    between atoms: C_17  and  C_18
REMARK   10  A    between atoms: C_26  and  O_27
REMARK   11  A    between atoms: O_27  and  C_28
REMARK                            x       y       z     vdW  Elec       q    Type
REMARK                         _______ _______ _______ _____ _____    ______ ____
ROOT
ATOM      1  C   UNL     1       2.261   6.041  19.912  0.00  0.00    +0.000 A 
ATOM      2  N   UNL     1       3.467   5.563  20.253  0.00  0.00    +0.000 NA
ATOM      3  O   UNL     1       3.292   4.179  20.236  0.00  0.00    +0.000 OA
ATOM      4  C   UNL     1       1.998   3.961  19.882  0.00  0.00    +0.000 A 
ATOM      5  N   UNL     1       1.318   5.062  19.677  0.00  0.00    +0.000 NA
ENDROOT
BRANCH   1   9
ATOM      6  C   UNL     1       1.061  10.091  19.302  0.00  0.00    +0.000 A 
ATOM      7  C   UNL     1       1.597   9.345  18.240  0.00  0.00    +0.000 A 
ATOM      8  C   UNL     1       2.020   8.027  18.428  0.00  0.00    +0.000 A 
ATOM      9  C   UNL     1       1.962   7.451  19.698  0.00  0.00    +0.000 A 
ATOM     10  C   UNL     1       1.554   8.246  20.776  0.00  0.00    +0.000 A 
ATOM     11  C   UNL     1       1.103   9.562  20.599  0.00  0.00    +0.000 A 
BRANCH   6  13
ATOM     12  C   UNL     1       1.367  12.424  19.375  0.00  0.00    +0.000 C 
ATOM     13  O   UNL     1       0.506  11.323  19.077  0.00  0.00    +0.000 OA
ENDBRANCH   6  13
BRANCH  11  14
ATOM     14  O   UNL     1       0.723  10.126  21.786  0.00  0.00    +0.000 OA
ATOM     15  C   UNL     1      -0.071   9.379  22.691  0.00  0.00    +0.000 C 
ENDBRANCH  11  14
ENDBRANCH   1   9
BRANCH   4  16
ATOM     16  C   UNL     1       1.552   2.556  19.757  0.00  0.00    +0.000 C 
BRANCH  16  17
ATOM     17  C   UNL     1       2.424   1.789  18.764  0.00  0.00    +0.000 C 
BRANCH  17  18
ATOM     18  C   UNL     1       2.871   2.688  17.635  0.00  0.00    +0.000 C 
ATOM     19  O   UNL     1       2.101   3.124  16.789  0.00  0.00    +0.000 OA
ATOM     20  N   UNL     1       4.223   2.955  17.630  0.00  0.00    +0.000 N 
ATOM     21  H   UNL     1       4.773   2.708  18.444  0.00  0.00    +0.000 HD
BRANCH  20  22
ATOM     22  C   UNL     1       4.782   3.846  16.626  0.00  0.00    +0.000 C 
BRANCH  22  23
ATOM     23  C   UNL     1       4.602   5.324  16.967  0.00  0.00    +0.000 C 
BRANCH  23  24
ATOM     24  C   UNL     1       5.854   5.918  17.569  0.00  0.00    +0.000 A 
ATOM     25  C   UNL     1       6.425   7.075  17.020  0.00  0.00    +0.000 A 
ATOM     26  C   UNL     1       7.598   7.611  17.558  0.00  0.00    +0.000 A 
ATOM     27  C   UNL     1       8.212   6.996  18.647  0.00  0.00    +0.000 A 
ATOM     28  C   UNL     1       7.653   5.844  19.199  0.00  0.00    +0.000 A 
ATOM     29  C   UNL     1       6.482   5.307  18.662  0.00  0.00    +0.000 A 
ENDBRANCH  23  24
ENDBRANCH  22  23
ENDBRANCH  20  22
ENDBRANCH  17  18
ENDBRANCH  16  17
ENDBRANCH   4  16
TORSDOF 9
ENDMDL
MODEL 3
REMARK VINA RESULT:      -7.6      1.185      1.874
REMARK  Name = 
REMARK  11 active torsions:
REMARK  status: ('A' for Active; 'I' for Inactive)
REMARK    1  A    between atoms: C_1  and  O_2
REMARK    2  A    between atoms: O_2  and  C_3
REMARK    3  A    between atoms: C_6  and  C_7
REMARK    4  A    between atoms: C_10  and  C_11
REMARK    5  A    between atoms: C_11  and  C_12
REMARK    6  A    between atoms: C_12  and  C_13
REMARK    7  A    between atoms: N_15  and  C_16
REMARK    8  A    between atoms: C_16  and  C_17
REMARK    9  A    between atoms: C_17  and  C_18
REMARK   10  A    between atoms: C_26  and  O_27
REMARK   11  A    between atoms: O_27  and  C_28
REMARK                            x       y       z     vdW  Elec       q    Type
REMARK                         _______ _______ _______ _____ _____    ______ ____
ROOT
ATOM      1  C   UNL     1       8.567   9.439  18.385  0.00  0.00    +0.000 A 
ATOM      2  N   UNL     1       7.713   9.399  17.351  0.00  0.00    +0.000 NA
ATOM      3  O   UNL     1       7.406   8.044  17.227  0.00  0.00    +0.000 OA
ATOM      4  C   UNL     1       8.104   7.402  18.202  0.00  0.00    +0.000 A 
ATOM      5  N   UNL     1       8.835   8.203  18.937  0.00  0.00    +0.000 NA
ENDROOT
BRANCH   1   9
ATOM      6  C   UNL     1      10.381  13.009  19.860  0.00  0.00    +0.000 A 
ATOM      7  C   UNL     1      10.457  11.819  20.602  0.00  0.00    +0.000 A 
ATOM      8  C   UNL     1       9.846  10.648  20.148  0.00  0.00    +0.000 A 
ATOM      9  C   UNL     1       9.102  10.663  18.966  0.00  0.00    +0.000 A 
ATOM     10  C   UNL     1       8.920  11.884  18.306  0.00  0.00    +0.000 A 
ATOM     11  C   UNL     1       9.547  13.062  18.736  0.00  0.00    +0.000 A 
BRANCH   6  13
ATOM     12  C   UNL     1      10.432  14.997  21.121  0.00  0.00    +0.000 C 
ATOM     13  O   UNL     1      11.111  14.108  20.232  0.00  0.00    +0.000 OA
ENDBRANCH   6  13
BRANCH  11  14
ATOM     14  O   UNL     1       9.252  14.116  17.916  0.00  0.00    +0.000 OA
ATOM     15  C   UNL     1       7.921  14.598  17.850  0.00  0.00    +0.000 C 
ENDBRANCH  11  14
ENDBRANCH   1   9
BRANCH   4  16
ATOM     16  C   UNL     1       7.931   5.937  18.312  0.00  0.00    +0.000 C 
BRANCH  16  17
ATOM     17  C   UNL     1       6.947   5.582  19.426  0.00  0.00    +0.000 C 
BRANCH  17  18
ATOM     18  C   UNL     1       5.675   5.001  18.855  0.00  0.00    +0.000 C 
ATOM     19  O   UNL     1       5.215   3.927  19.217  0.00  0.00    +0.000 OA
ATOM     20  N   UNL     1       5.091   5.777  17.876  0.00  0.00    +0.000 N 
ATOM     21  H   UNL     1       5.422   6.725  17.742  0.00  0.00    +0.000 HD
BRANCH  20  22
ATOM     22  C   UNL     1       3.836   5.360  17.274  0.00  0.00    +0.000 C 
BRANCH  22  23
ATOM     23  C   UNL     1       2.609   5.828  18.056  0.00  0.00    +0.000 C 
BRANCH  23  24
ATOM     24  C   UNL     1       1.992   4.703  18.856  0.00  0.00    +0.000 A 
ATOM     25  C   UNL     1       1.482   3.569  18.207  0.00  0.00    +0.000 A 
ATOM     26  C   UNL     1       0.887   2.540  18.942  0.00  0.00    +0.000 A 
ATOM     27  C   UNL     1       0.794   2.634  20.328  0.00  0.00    +0.000 A 
ATOM     28  C   UNL     1       1.296   3.759  20.982  0.00  0.00    +0.000 A 
ATOM     29  C   UNL     1       1.890   4.788  20.250  0.00  0.00    +0.000 A 
ENDBRANCH  23  24
ENDBRANCH  22  23
ENDBRANCH  20  22
ENDBRANCH  17  18
ENDBRANCH  16  17
ENDBRANCH   4  16
TORSDOF 9
ENDMDL
MODEL 4
REMARK VINA RESULT:      -7.5      1.130      1.275
REMARK  Name = 
REMARK  11 active torsions:
REMARK  status: ('A' for Active; 'I' for Inactive)
REMARK    1  A    between atoms: C_1  and  O_2
REMARK    2  A    between atoms: O_2  and  C_3
REMARK    3  A    between atoms: C_6  and  C_7
REMARK    4  A    between atoms: C_10  and  C_11
REMARK    5  A    between atoms: C_11  and  C_12
REMARK    6  A    between atoms: C_12  and  C_13
REMARK    7  A    between atoms: N_15  and  C_16
REMARK    8  A    between atoms: C_16  and  C_17
REMARK    9  A    between atoms: C_17  and  C_18
REMARK   10  A    between atoms: C_26  and  O_27
REMARK   11  A    between atoms: O_27  and  C_28
REMARK                            x       y       z     vdW  Elec       q    Type
REMARK                         _______ _______ _______ _____ _____    ______ ____
ROOT
ATOM      1  C   UNL     1       8.451   9.116  18.306  0.00  0.00    +0.000 A 
ATOM      2  N   UNL     1       7.570   9.066  17.295  0.00  0.00    +0.000 NA
ATOM      3  O   UNL     1       7.244   7.713  17.206  0.00  0.00    +0.000 OA
ATOM      4  C   UNL     1       7.958   7.082  18.176  0.00  0.00    +0.000 A 
ATOM      5  N   UNL     1       8.718   7.888  18.875  0.00  0.00    +0.000 NA
ENDROOT
BRANCH   1   9
ATOM      6  C   UNL     1      10.404  12.615  19.773  0.00  0.00    +0.000 A 
ATOM      7  C   UNL     1       9.993  11.609  20.663  0.00  0.00    +0.000 A 
ATOM      8  C   UNL     1       9.329  10.470  20.203  0.00  0.00    +0.000 A 
ATOM      9  C   UNL     1       9.017  10.344  18.849  0.00  0.00    +0.000 A 
ATOM     10  C   UNL     1       9.310  11.412  17.992  0.00  0.00    +0.000 A 
ATOM     11  C   UNL     1       9.998  12.551  18.434  0.00  0.00    +0.000 A 
BRANCH   6  13
ATOM     12  C   UNL     1      10.497  14.640  20.972  0.00  0.00    +0.000 C 
ATOM     13  O   UNL     1      11.190  13.650  20.208  0.00  0.00    +0.000 OA
ENDBRANCH   6  13
BRANCH  11  14
ATOM     14  O   UNL     1      10.203  13.441  17.415  0.00  0.00    +0.000 OA
ATOM     15  C   UNL     1      11.368  13.331  16.616  0.00  0.00    +0.000 C 
ENDBRANCH  11  14
ENDBRANCH   1   9
BRANCH   4  16
ATOM     16  C   UNL     1       7.770   5.622  18.320  0.00  0.00    +0.000 C 
BRANCH  16  17
ATOM     17  C   UNL     1       6.410   5.302  18.939  0.00  0.00    +0.000 C 
BRANCH  17  18
ATOM     18  C   UNL     1       5.510   4.618  17.937  0.00  0.00    +0.000 C 
ATOM     19  O   UNL     1       5.496   4.911  16.749  0.00  0.00    +0.000 OA
ATOM     20  N   UNL     1       4.693   3.651  18.482  0.00  0.00    +0.000 N 
ATOM     21  H   UNL     1       4.869   3.339  19.429  0.00  0.00    +0.000 HD
BRANCH  20  22
ATOM     22  C   UNL     1       3.809   2.880  17.623  0.00  0.00    +0.000 C 
BRANCH  22  23
ATOM     23  C   UNL     1       2.423   3.505  17.470  0.00  0.00    +0.000 C 
BRANCH  23  24
ATOM     24  C   UNL     1       2.163   4.558  18.523  0.00  0.00    +0.000 A 
ATOM     25  C   UNL     1       2.415   5.910  18.250  0.00  0.00    +0.000 A 
ATOM     26  C   UNL     1       2.201   6.882  19.231  0.00  0.00    +0.000 A 
ATOM     27  C   UNL     1       1.737   6.514  20.492  0.00  0.00    +0.000 A 
ATOM     28  C   UNL     1       1.486   5.171  20.773  0.00  0.00    +0.000 A 
ATOM     29  C   UNL     1       1.700   4.199  19.795  0.00  0.00    +0.000 A 
ENDBRANCH  23  24
ENDBRANCH  22  23
ENDBRANCH  20  22
ENDBRANCH  17  18
ENDBRANCH  16  17
ENDBRANCH   4  16
TORSDOF 9
ENDMDL
MODEL 5
REMARK VINA RESULT:      -7.5      1.070      1.417
REMARK  Name = 
REMARK  11 active torsions:
REMARK  status: ('A' for Active; 'I' for Inactive)
REMARK    1  A    between atoms: C_1  and  O_2
REMARK    2  A    between atoms: O_2  and  C_3
REMARK    3  A    between atoms: C_6  and  C_7
REMARK    4  A    between atoms: C_10  and  C_11
REMARK    5  A    between atoms: C_11  and  C_12
REMARK    6  A    between atoms: C_12  and  C_13
REMARK    7  A    between atoms: N_15  and  C_16
REMARK    8  A    between atoms: C_16  and  C_17
REMARK    9  A    between atoms: C_17  and  C_18
REMARK   10  A    between atoms: C_26  and  O_27
REMARK   11  A    between atoms: O_27  and  C_28
REMARK                            x       y       z     vdW  Elec       q    Type
REMARK                         _______ _______ _______ _____ _____    ______ ____
ROOT
ATOM      1  C   UNL     1       8.375   9.187  18.251  0.00  0.00    +0.000 A 
ATOM      2  N   UNL     1       7.546   9.182  17.196  0.00  0.00    +0.000 NA
ATOM      3  O   UNL     1       7.167   7.845  17.079  0.00  0.00    +0.000 OA
ATOM      4  C   UNL     1       7.804   7.177  18.077  0.00  0.00    +0.000 A 
ATOM      5  N   UNL     1       8.560   7.945  18.822  0.00  0.00    +0.000 NA
ENDROOT
BRANCH   1   9
ATOM      6  C   UNL     1      10.369  12.645  19.761  0.00  0.00    +0.000 A 
ATOM      7  C   UNL     1      10.226  11.503  20.567  0.00  0.00    +0.000 A 
ATOM      8  C   UNL     1       9.553  10.372  20.098  0.00  0.00    +0.000 A 
ATOM      9  C   UNL     1       8.965  10.386  18.833  0.00  0.00    +0.000 A 
ATOM     10  C   UNL     1       8.996  11.574  18.092  0.00  0.00    +0.000 A 
ATOM     11  C   UNL     1       9.688  12.709  18.539  0.00  0.00    +0.000 A 
BRANCH   6  13
ATOM     12  C   UNL     1      10.554  14.557  21.123  0.00  0.00    +0.000 C 
ATOM     13  O   UNL     1      11.162  13.687  20.166  0.00  0.00    +0.000 OA
ENDBRANCH   6  13
BRANCH  11  14
ATOM     14  O   UNL     1       9.610  13.733  17.635  0.00  0.00    +0.000 OA
ATOM     15  C   UNL     1       8.681  14.781  17.847  0.00  0.00    +0.000 C 
ENDBRANCH  11  14
ENDBRANCH   1   9
BRANCH   4  16
ATOM     16  C   UNL     1       7.546   5.726  18.199  0.00  0.00    +0.000 C 
BRANCH  16  17
ATOM     17  C   UNL     1       7.424   5.072  16.823  0.00  0.00    +0.000 C 
BRANCH  17  18
ATOM     18  C   UNL     1       6.200   4.189  16.753  0.00  0.00    +0.000 C 
ATOM     19  O   UNL     1       5.882   3.574  15.745  0.00  0.00    +0.000 OA
ATOM     20  N   UNL     1       5.463   4.156  17.917  0.00  0.00    +0.000 N 
ATOM     21  H   UNL     1       5.864   4.546  18.762  0.00  0.00    +0.000 HD
BRANCH  20  22
ATOM     22  C   UNL     1       4.285   3.309  18.005  0.00  0.00    +0.000 C 
BRANCH  22  23
ATOM     23  C   UNL     1       3.003   4.014  17.564  0.00  0.00    +0.000 C 
BRANCH  23  24
ATOM     24  C   UNL     1       2.611   5.116  18.522  0.00  0.00    +0.000 A 
ATOM     25  C   UNL     1       2.105   4.803  19.792  0.00  0.00    +0.000 A 
ATOM     26  C   UNL     1       1.716   5.819  20.670  0.00  0.00    +0.000 A 
ATOM     27  C   UNL     1       1.827   7.153  20.288  0.00  0.00    +0.000 A 
ATOM     28  C   UNL     1       2.327   7.474  19.026  0.00  0.00    +0.000 A 
ATOM     29  C   UNL     1       2.715   6.461  18.148  0.00  0.00    +0.000 A 
ENDBRANCH  23  24
ENDBRANCH  22  23
ENDBRANCH  20  22
ENDBRANCH  17  18
ENDBRANCH  16  17
ENDBRANCH   4  16
TORSDOF 9
ENDMDL
MODEL 6
REMARK VINA RESULT:      -7.5      4.665      6.044
REMARK  Name = 
REMARK  11 active torsions:
REMARK  status: ('A' for Active; 'I' for Inactive)
REMARK    1  A    between atoms: C_1  and  O_2
REMARK    2  A    between atoms: O_2  and  C_3
REMARK    3  A    between atoms: C_6  and  C_7
REMARK    4  A    between atoms: C_10  and  C_11
REMARK    5  A    between atoms: C_11  and  C_12
REMARK    6  A    between atoms: C_12  and  C_13
REMARK    7  A    between atoms: N_15  and  C_16
REMARK    8  A    between atoms: C_16  and  C_17
REMARK    9  A    between atoms: C_17  and  C_18
REMARK   10  A    between atoms: C_26  and  O_27
REMARK   11  A    between atoms: O_27  and  C_28
REMARK                            x       y       z     vdW  Elec       q    Type
REMARK                         _______ _______ _______ _____ _____    ______ ____
ROOT
ATOM      1  C   UNL     1       3.107   6.640  18.082  0.00  0.00    +0.000 A 
ATOM      2  N   UNL     1       2.753   5.424  17.640  0.00  0.00    +0.000 NA
ATOM      3  O   UNL     1       3.887   4.972  16.966  0.00  0.00    +0.000 OA
ATOM      4  C   UNL     1       4.814   5.961  17.072  0.00  0.00    +0.000 A 
ATOM      5  N   UNL     1       4.392   7.006  17.738  0.00  0.00    +0.000 NA
ENDROOT
BRANCH   1   9
ATOM      6  C   UNL     1       0.947   9.308  20.617  0.00  0.00    +0.000 A 
ATOM      7  C   UNL     1       1.342   8.047  21.092  0.00  0.00    +0.000 A 
ATOM      8  C   UNL     1       2.026   7.150  20.267  0.00  0.00    +0.000 A 
ATOM      9  C   UNL     1       2.279   7.482  18.935  0.00  0.00    +0.000 A 
ATOM     10  C   UNL     1       1.763   8.684  18.435  0.00  0.00    +0.000 A 
ATOM     11  C   UNL     1       1.096   9.604  19.256  0.00  0.00    +0.000 A 
BRANCH   6  13
ATOM     12  C   UNL     1      -0.002   9.714  22.734  0.00  0.00    +0.000 C 
ATOM     13  O   UNL     1       0.418  10.239  21.472  0.00  0.00    +0.000 OA
ENDBRANCH   6  13
BRANCH  11  14
ATOM     14  O   UNL     1       0.716  10.717  18.557  0.00  0.00    +0.000 OA
ATOM     15  C   UNL     1      -0.660  10.960  18.325  0.00  0.00    +0.000 C 
ENDBRANCH  11  14
ENDBRANCH   1   9
BRANCH   4  16
ATOM     16  C   UNL     1       6.139   5.721  16.460  0.00  0.00    +0.000 C 
BRANCH  16  17
ATOM     17  C   UNL     1       7.251   5.805  17.505  0.00  0.00    +0.000 C 
BRANCH  17  18
ATOM     18  C   UNL     1       6.816   5.170  18.805  0.00  0.00    +0.000 C 
ATOM     19  O   UNL     1       7.228   5.543  19.896  0.00  0.00    +0.000 OA
ATOM     20  N   UNL     1       5.934   4.123  18.653  0.00  0.00    +0.000 N 
ATOM     21  H   UNL     1       5.503   3.974  17.748  0.00  0.00    +0.000 HD
BRANCH  20  22
ATOM     22  C   UNL     1       5.396   3.452  19.825  0.00  0.00    +0.000 C 
BRANCH  22  23
ATOM     23  C   UNL     1       4.524   2.245  19.480  0.00  0.00    +0.000 C 
BRANCH  23  24
ATOM     24  C   UNL     1       3.052   2.560  19.617  0.00  0.00    +0.000 A 
ATOM     25  C   UNL     1       2.144   2.147  18.632  0.00  0.00    +0.000 A 
ATOM     26  C   UNL     1       0.787   2.459  18.743  0.00  0.00    +0.000 A 
ATOM     27  C   UNL     1       0.324   3.188  19.836  0.00  0.00    +0.000 A 
ATOM     28  C   UNL     1       1.220   3.605  20.820  0.00  0.00    +0.000 A 
ATOM     29  C   UNL     1       2.576   3.295  20.710  0.00  0.00    +0.000 A 
ENDBRANCH  23  24
ENDBRANCH  22  23
ENDBRANCH  20  22
ENDBRANCH  17  18
ENDBRANCH  16  17
ENDBRANCH   4  16
TORSDOF 9
ENDMDL
MODEL 7
REMARK VINA RESULT:      -7.5      4.809      6.318
REMARK  Name = 
REMARK  11 active torsions:
REMARK  status: ('A' for Active; 'I' for Inactive)
REMARK    1  A    between atoms: C_1  and  O_2
REMARK    2  A    between atoms: O_2  and  C_3
REMARK    3  A    between atoms: C_6  and  C_7
REMARK    4  A    between atoms: C_10  and  C_11
REMARK    5  A    between atoms: C_11  and  C_12
REMARK    6  A    between atoms: C_12  and  C_13
REMARK    7  A    between atoms: N_15  and  C_16
REMARK    8  A    between atoms: C_16  and  C_17
REMARK    9  A    between atoms: C_17  and  C_18
REMARK   10  A    between atoms: C_26  and  O_27
REMARK   11  A    between atoms: O_27  and  C_28
REMARK                            x       y       z     vdW  Elec       q    Type
REMARK                         _______ _______ _______ _____ _____    ______ ____
ROOT
ATOM      1  C   UNL     1       2.732   7.232  18.048  0.00  0.00    +0.000 A 
ATOM      2  N   UNL     1       2.275   5.976  18.165  0.00  0.00    +0.000 NA
ATOM      3  O   UNL     1       3.281   5.201  17.588  0.00  0.00    +0.000 OA
ATOM      4  C   UNL     1       4.247   6.068  17.183  0.00  0.00    +0.000 A 
ATOM      5  N   UNL     1       3.964   7.322  17.433  0.00  0.00    +0.000 NA
ENDROOT
BRANCH   1   9
ATOM      6  C   UNL     1       0.498  10.532  19.574  0.00  0.00    +0.000 A 
ATOM      7  C   UNL     1       1.231  10.664  18.383  0.00  0.00    +0.000 A 
ATOM      8  C   UNL     1       1.989   9.603  17.883  0.00  0.00    +0.000 A 
ATOM      9  C   UNL     1       2.069   8.407  18.598  0.00  0.00    +0.000 A 
ATOM     10  C   UNL     1       1.446   8.331  19.849  0.00  0.00    +0.000 A 
ATOM     11  C   UNL     1       0.661   9.378  20.352  0.00  0.00    +0.000 A 
BRANCH   6  13
ATOM     12  C   UNL     1      -1.642  11.485  19.334  0.00  0.00    +0.000 C 
ATOM     13  O   UNL     1      -0.365  11.519  19.973  0.00  0.00    +0.000 OA
ENDBRANCH   6  13
BRANCH  11  14
ATOM     14  O   UNL     1       0.125   9.064  21.571  0.00  0.00    +0.000 OA
ATOM     15  C   UNL     1       0.888   9.277  22.745  0.00  0.00    +0.000 C 
ENDBRANCH  11  14
ENDBRANCH   1   9
BRANCH   4  16
ATOM     16  C   UNL     1       5.458   5.494  16.557  0.00  0.00    +0.000 C 
BRANCH  16  17
ATOM     17  C   UNL     1       6.681   5.677  17.455  0.00  0.00    +0.000 C 
BRANCH  17  18
ATOM     18  C   UNL     1       6.475   4.997  18.788  0.00  0.00    +0.000 C 
ATOM     19  O   UNL     1       6.961   5.418  19.830  0.00  0.00    +0.000 OA
ATOM     20  N   UNL     1       5.711   3.852  18.724  0.00  0.00    +0.000 N 
ATOM     21  H   UNL     1       5.201   3.651  17.872  0.00  0.00    +0.000 HD
BRANCH  20  22
ATOM     22  C   UNL     1       5.394   3.123  19.941  0.00  0.00    +0.000 C 
BRANCH  22  23
ATOM     23  C   UNL     1       4.404   1.981  19.717  0.00  0.00    +0.000 C 
BRANCH  23  24
ATOM     24  C   UNL     1       2.972   2.462  19.766  0.00  0.00    +0.000 A 
ATOM     25  C   UNL     1       2.059   2.069  18.777  0.00  0.00    +0.000 A 
ATOM     26  C   UNL     1       0.741   2.533  18.805  0.00  0.00    +0.000 A 
ATOM     27  C   UNL     1       0.325   3.395  19.817  0.00  0.00    +0.000 A 
ATOM     28  C   UNL     1       1.226   3.793  20.803  0.00  0.00    +0.000 A 
ATOM     29  C   UNL     1       2.543   3.331  20.777  0.00  0.00    +0.000 A 
ENDBRANCH  23  24
ENDBRANCH  22  23
ENDBRANCH  20  22
ENDBRANCH  17  18
ENDBRANCH  16  17
ENDBRANCH   4  16
TORSDOF 9
ENDMDL
MODEL 8
REMARK VINA RESULT:      -7.5      1.726      2.449
REMARK  Name = 
REMARK  11 active torsions:
REMARK  status: ('A' for Active; 'I' for Inactive)
REMARK    1  A    between atoms: C_1  and  O_2
REMARK    2  A    between atoms: O_2  and  C_3
REMARK    3  A    between atoms: C_6  and  C_7
REMARK    4  A    between atoms: C_10  and  C_11
REMARK    5  A    between atoms: C_11  and  C_12
REMARK    6  A    between atoms: C_12  and  C_13
REMARK    7  A    between atoms: N_15  and  C_16
REMARK    8  A    between atoms: C_16  and  C_17
REMARK    9  A    between atoms: C_17  and  C_18
REMARK   10  A    between atoms: C_26  and  O_27
REMARK   11  A    between atoms: O_27  and  C_28
REMARK                            x       y       z     vdW  Elec       q    Type
REMARK                         _______ _______ _______ _____ _____    ______ ____
ROOT
ATOM      1  C   UNL     1       8.969  10.203  18.377  0.00  0.00    +0.000 A 
ATOM      2  N   UNL     1       9.322   9.382  19.377  0.00  0.00    +0.000 NA
ATOM      3  O   UNL     1       8.693   8.179  19.057  0.00  0.00    +0.000 OA
ATOM      4  C   UNL     1       8.024   8.395  17.893  0.00  0.00    +0.000 A 
ATOM      5  N   UNL     1       8.153   9.615  17.433  0.00  0.00    +0.000 NA
ENDROOT
BRANCH   1   9
ATOM      6  C   UNL     1      10.234  14.207  17.615  0.00  0.00    +0.000 A 
ATOM      7  C   UNL     1      11.126  13.137  17.433  0.00  0.00    +0.000 A 
ATOM      8  C   UNL     1      10.737  11.823  17.703  0.00  0.00    +0.000 A 
ATOM      9  C   UNL     1       9.463  11.564  18.212  0.00  0.00    +0.000 A 
ATOM     10  C   UNL     1       8.631  12.647  18.518  0.00  0.00    +0.000 A 
ATOM     11  C   UNL     1       8.997  13.970  18.229  0.00  0.00    +0.000 A 
BRANCH   6  13
ATOM     12  C   UNL     1      11.971  15.742  17.202  0.00  0.00    +0.000 C 
ATOM     13  O   UNL     1      10.568  15.470  17.201  0.00  0.00    +0.000 OA
ENDBRANCH   6  13
BRANCH  11  14
ATOM     14  O   UNL     1       8.012  14.852  18.580  0.00  0.00    +0.000 OA
ATOM     15  C   UNL     1       6.862  14.975  17.763  0.00  0.00    +0.000 C 
ENDBRANCH  11  14
ENDBRANCH   1   9
BRANCH   4  16
ATOM     16  C   UNL     1       7.287   7.254  17.309  0.00  0.00    +0.000 C 
BRANCH  16  17
ATOM     17  C   UNL     1       7.604   5.956  18.051  0.00  0.00    +0.000 C 
BRANCH  17  18
ATOM     18  C   UNL     1       6.381   5.075  18.141  0.00  0.00    +0.000 C 
ATOM     19  O   UNL     1       6.128   4.390  19.123  0.00  0.00    +0.000 OA
ATOM     20  N   UNL     1       5.588   5.096  17.015  0.00  0.00    +0.000 N 
ATOM     21  H   UNL     1       5.756   5.804  16.310  0.00  0.00    +0.000 HD
BRANCH  20  22
ATOM     22  C   UNL     1       4.352   4.330  16.984  0.00  0.00    +0.000 C 
BRANCH  22  23
ATOM     23  C   UNL     1       3.162   5.085  17.573  0.00  0.00    +0.000 C 
BRANCH  23  24
ATOM     24  C   UNL     1       2.479   4.293  18.663  0.00  0.00    +0.000 A 
ATOM     25  C   UNL     1       2.381   2.897  18.570  0.00  0.00    +0.000 A 
ATOM     26  C   UNL     1       1.727   2.165  19.564  0.00  0.00    +0.000 A 
ATOM     27  C   UNL     1       1.162   2.818  20.657  0.00  0.00    +0.000 A 
ATOM     28  C   UNL     1       1.252   4.206  20.757  0.00  0.00    +0.000 A 
ATOM     29  C   UNL     1       1.904   4.939  19.766  0.00  0.00    +0.000 A 
ENDBRANCH  23  24
ENDBRANCH  22  23
ENDBRANCH  20  22
ENDBRANCH  17  18
ENDBRANCH  16  17
ENDBRANCH   4  16
TORSDOF 9
ENDMDL
MODEL 9
REMARK VINA RESULT:      -7.4      4.206      7.236
REMARK  Name = 
REMARK  11 active torsions:
REMARK  status: ('A' for Active; 'I' for Inactive)
REMARK    1  A    between atoms: C_1  and  O_2
REMARK    2  A    between atoms: O_2  and  C_3
REMARK    3  A    between atoms: C_6  and  C_7
REMARK    4  A    between atoms: C_10  and  C_11
REMARK    5  A    between atoms: C_11  and  C_12
REMARK    6  A    between atoms: C_12  and  C_13
REMARK    7  A    between atoms: N_15  and  C_16
REMARK    8  A    between atoms: C_16  and  C_17
REMARK    9  A    between atoms: C_17  and  C_18
REMARK   10  A    between atoms: C_26  and  O_27
REMARK   11  A    between atoms: O_27  and  C_28
REMARK                            x       y       z     vdW  Elec       q    Type
REMARK                         _______ _______ _______ _____ _____    ______ ____
ROOT
ATOM      1  C   UNL     1       3.492   4.094  17.257  0.00  0.00    +0.000 A 
ATOM      2  N   UNL     1       2.467   3.373  16.779  0.00  0.00    +0.000 NA
ATOM      3  O   UNL     1       1.486   3.498  17.762  0.00  0.00    +0.000 OA
ATOM      4  C   UNL     1       2.017   4.286  18.735  0.00  0.00    +0.000 A 
ATOM      5  N   UNL     1       3.242   4.675  18.483  0.00  0.00    +0.000 NA
ENDROOT
BRANCH   1   9
ATOM      6  C   UNL     1       6.961   5.089  14.980  0.00  0.00    +0.000 A 
ATOM      7  C   UNL     1       6.238   3.920  14.692  0.00  0.00    +0.000 A 
ATOM      8  C   UNL     1       5.116   3.565  15.444  0.00  0.00    +0.000 A 
ATOM      9  C   UNL     1       4.731   4.349  16.533  0.00  0.00    +0.000 A 
ATOM     10  C   UNL     1       5.536   5.436  16.894  0.00  0.00    +0.000 A 
ATOM     11  C   UNL     1       6.651   5.819  16.135  0.00  0.00    +0.000 A 
BRANCH   6  13
ATOM     12  C   UNL     1       7.780   5.153  12.773  0.00  0.00    +0.000 C 
ATOM     13  O   UNL     1       7.962   5.512  14.144  0.00  0.00    +0.000 OA
ENDBRANCH   6  13
BRANCH  11  14
ATOM     14  O   UNL     1       7.258   6.927  16.658  0.00  0.00    +0.000 OA
ATOM     15  C   UNL     1       7.710   6.906  18.001  0.00  0.00    +0.000 C 
ENDBRANCH  11  14
ENDBRANCH   1   9
BRANCH   4  16
ATOM     16  C   UNL     1       1.160   4.606  19.897  0.00  0.00    +0.000 C 
BRANCH  16  17
ATOM     17  C   UNL     1       1.885   5.525  20.879  0.00  0.00    +0.000 C 
BRANCH  17  18
ATOM     18  C   UNL     1       1.464   6.963  20.681  0.00  0.00    +0.000 C 
ATOM     19  O   UNL     1       0.653   7.523  21.406  0.00  0.00    +0.000 OA
ATOM     20  N   UNL     1       2.059   7.579  19.601  0.00  0.00    +0.000 N 
ATOM     21  H   UNL     1       2.841   7.123  19.147  0.00  0.00    +0.000 HD
BRANCH  20  22
ATOM     22  C   UNL     1       1.781   8.979  19.322  0.00  0.00    +0.000 C 
BRANCH  22  23
ATOM     23  C   UNL     1       1.080   9.197  17.983  0.00  0.00    +0.000 C 
BRANCH  23  24
ATOM     24  C   UNL     1      -0.193   9.997  18.139  0.00  0.00    +0.000 A 
ATOM     25  C   UNL     1      -0.285  10.997  19.118  0.00  0.00    +0.000 A 
ATOM     26  C   UNL     1      -1.470  11.720  19.283  0.00  0.00    +0.000 A 
ATOM     27  C   UNL     1      -2.572  11.449  18.476  0.00  0.00    +0.000 A 
ATOM     28  C   UNL     1      -2.491  10.455  17.501  0.00  0.00    +0.000 A 
ATOM     29  C   UNL     1      -1.309   9.732  17.336  0.00  0.00    +0.000 A 
ENDBRANCH  23  24
ENDBRANCH  22  23
ENDBRANCH  20  22
ENDBRANCH  17  18
ENDBRANCH  16  17
ENDBRANCH   4  16
TORSDOF 9
ENDMDL
