MODEL 1
REMARK VINA RESULT:      -7.3      0.000      0.000
REMARK  Name = 
REMARK  8 active torsions:
REMARK  status: ('A' for Active; 'I' for Inactive)
REMARK    1  A    between atoms: C_1  and  C_2
REMARK    2  A    between atoms: N_8  and  C_9
REMARK    3  A    between atoms: C_9  and  C_10
REMARK    4  A    between atoms: C_10  and  C_11
REMARK    5  A    between atoms: C_11  and  N_12
REMARK    6  A    between atoms: N_12  and  C_13
REMARK    7  A    between atoms: N_12  and  C_14
REMARK    8  A    between atoms: C_15  and  C_17
REMARK                            x       y       z     vdW  Elec       q    Type
REMARK                         _______ _______ _______ _____ _____    ______ ____
ROOT
ATOM      1  C   UNL     1       3.651   5.506  18.654  0.00  0.00    +0.000 C 
ATOM      2  C   UNL     1       2.845   6.763  18.829  0.00  0.00    +0.000 A 
ATOM      3  C   UNL     1       2.754   7.680  17.777  0.00  0.00    +0.000 A 
ATOM      4  C   UNL     1       2.032   8.861  17.933  0.00  0.00    +0.000 A 
ATOM      5  C   UNL     1       1.397   9.123  19.159  0.00  0.00    +0.000 A 
ATOM      6  N   UNL     1       0.674  10.243  19.435  0.00  0.00    +0.000 NA
ATOM      7  C   UNL     1       0.159  10.224  20.643  0.00  0.00    +0.000 A 
ATOM      8  N   UNL     1      -0.712  11.243  21.085  0.00  0.00    +0.000 N 
ATOM      9  C   UNL     1      -0.934  11.451  22.490  0.00  0.00    +0.000 C 
ATOM     10  O   UNL     1      -0.399  10.752  23.354  0.00  0.00    +0.000 OA
ATOM     11  S   UNL     1       0.562   8.818  21.535  0.00  0.00    +0.000 S 
ATOM     12  C   UNL     1       1.476   8.201  20.198  0.00  0.00    +0.000 A 
ATOM     13  C   UNL     1       2.203   7.010  20.052  0.00  0.00    +0.000 A 
ENDROOT
BRANCH   9  14
ATOM     14  C   UNL     1      -1.803  12.573  22.930  0.00  0.00    +0.000 A 
ATOM     15  S   UNL     1      -3.322  12.326  23.649  0.00  0.00    +0.000 S 
ATOM     16  C   UNL     1      -3.730  13.980  23.620  0.00  0.00    +0.000 A 
ATOM     17  C   UNL     1      -5.006  14.541  23.825  0.00  0.00    +0.000 A 
ATOM     18  C   UNL     1      -5.101  15.916  24.018  0.00  0.00    +0.000 A 
ATOM     19  C   UNL     1      -3.959  16.704  24.002  0.00  0.00    +0.000 A 
ATOM     20  C   UNL     1      -2.711  16.145  23.698  0.00  0.00    +0.000 A 
ATOM     21  C   UNL     1      -2.586  14.755  23.451  0.00  0.00    +0.000 A 
ATOM     22  C   UNL     1      -1.474  13.926  23.014  0.00  0.00    +0.000 A 
ATOM     23 CL   UNL     1       0.033  14.626  22.574  0.00  0.00    +0.000 Cl
ENDBRANCH   9  14
BRANCH   8  24
ATOM     24  C   UNL     1      -1.246  12.204  20.075  0.00  0.00    +0.000 C 
BRANCH  24  25
ATOM     25  C   UNL     1      -2.555  11.940  19.315  0.00  0.00    +0.000 C 
BRANCH  25  26
ATOM     26  C   UNL     1      -2.349  11.124  18.038  0.00  0.00    +0.000 C 
BRANCH  26  27
ATOM     27  N   UNL     1      -3.206  11.546  16.916  0.00  0.00    +0.000 NA
ATOM     28  C   UNL     1      -2.940  10.776  15.698  0.00  0.00    +0.000 C 
ATOM     29  C   UNL     1      -4.615  11.399  17.292  0.00  0.00    +0.000 C 
ENDBRANCH  26  27
ENDBRANCH  25  26
ENDBRANCH  24  25
ENDBRANCH   8  24
TORSDOF 5
ENDMDL
MODEL 2
REMARK VINA RESULT:      -7.2      3.807     10.283
REMARK  Name = 
REMARK  8 active torsions:
REMARK  status: ('A' for Active; 'I' for Inactive)
REMARK    1  A    between atoms: C_1  and  C_2
REMARK    2  A    between atoms: N_8  and  C_9
REMARK    3  A    between atoms: C_9  and  C_10
REMARK    4  A    between atoms: C_10  and  C_11
REMARK    5  A    between atoms: C_11  and  N_12
REMARK    6  A    between atoms: N_12  and  C_13
REMARK    7  A    between atoms: N_12  and  C_14
REMARK    8  A    between atoms: C_15  and  C_17
REMARK                            x       y       z     vdW  Elec       q    Type
REMARK                         _______ _______ _______ _____ _____    ______ ____
ROOT
ATOM      1  C   UNL     1      -2.870  12.799  22.473  0.00  0.00    +0.000 C 
ATOM      2  C   UNL     1      -1.846  11.730  22.210  0.00  0.00    +0.000 A 
ATOM      3  C   UNL     1      -1.319  10.996  23.277  0.00  0.00    +0.000 A 
ATOM      4  C   UNL     1      -0.351  10.021  23.050  0.00  0.00    +0.000 A 
ATOM      5  C   UNL     1       0.091   9.782  21.738  0.00  0.00    +0.000 A 
ATOM      6  N   UNL     1       1.037   8.864  21.393  0.00  0.00    +0.000 NA
ATOM      7  C   UNL     1       1.243   8.818  20.096  0.00  0.00    +0.000 A 
ATOM      8  N   UNL     1       2.106   7.860  19.525  0.00  0.00    +0.000 N 
ATOM      9  C   UNL     1       2.648   8.062  18.209  0.00  0.00    +0.000 C 
ATOM     10  O   UNL     1       2.376   9.053  17.528  0.00  0.00    +0.000 OA
ATOM     11  S   UNL     1       0.290   9.935  19.214  0.00  0.00    +0.000 S 
ATOM     12  C   UNL     1      -0.447  10.502  20.676  0.00  0.00    +0.000 A 
ATOM     13  C   UNL     1      -1.420  11.489  20.894  0.00  0.00    +0.000 A 
ENDROOT
BRANCH   9  14
ATOM     14  C   UNL     1       3.608   7.071  17.658  0.00  0.00    +0.000 A 
ATOM     15  S   UNL     1       5.279   7.366  17.570  0.00  0.00    +0.000 S 
ATOM     16  C   UNL     1       5.594   5.958  16.664  0.00  0.00    +0.000 A 
ATOM     17  C   UNL     1       6.777   5.648  15.965  0.00  0.00    +0.000 A 
ATOM     18  C   UNL     1       6.950   4.349  15.499  0.00  0.00    +0.000 A 
ATOM     19  C   UNL     1       5.969   3.392  15.719  0.00  0.00    +0.000 A 
ATOM     20  C   UNL     1       4.757   3.741  16.328  0.00  0.00    +0.000 A 
ATOM     21  C   UNL     1       4.530   5.067  16.773  0.00  0.00    +0.000 A 
ATOM     22  C   UNL     1       3.364   5.738  17.325  0.00  0.00    +0.000 A 
ATOM     23 CL   UNL     1       1.849   4.933  17.435  0.00  0.00    +0.000 Cl
ENDBRANCH   9  14
BRANCH   8  24
ATOM     24  C   UNL     1       2.580   6.734  20.384  0.00  0.00    +0.000 C 
BRANCH  24  25
ATOM     25  C   UNL     1       1.709   5.499  20.658  0.00  0.00    +0.000 C 
BRANCH  25  26
ATOM     26  C   UNL     1       2.525   4.275  21.077  0.00  0.00    +0.000 C 
BRANCH  26  27
ATOM     27  N   UNL     1       1.960   2.995  20.617  0.00  0.00    +0.000 NA
ATOM     28  C   UNL     1       0.648   3.165  19.984  0.00  0.00    +0.000 C 
ATOM     29  C   UNL     1       2.883   2.363  19.670  0.00  0.00    +0.000 C 
ENDBRANCH  26  27
ENDBRANCH  25  26
ENDBRANCH  24  25
ENDBRANCH   8  24
TORSDOF 5
ENDMDL
MODEL 3
REMARK VINA RESULT:      -6.6      1.290      1.611
REMARK  Name = 
REMARK  8 active torsions:
REMARK  status: ('A' for Active; 'I' for Inactive)
REMARK    1  A    between atoms: C_1  and  C_2
REMARK    2  A    between atoms: N_8  and  C_9
REMARK    3  A    between atoms: C_9  and  C_10
REMARK    4  A    between atoms: C_10  and  C_11
REMARK    5  A    between atoms: C_11  and  N_12
REMARK    6  A    between atoms: N_12  and  C_13
REMARK    7  A    between atoms: N_12  and  C_14
REMARK    8  A    between atoms: C_15  and  C_17
REMARK                            x       y       z     vdW  Elec       q    Type
REMARK                         _______ _______ _______ _____ _____    ______ ____
ROOT
ATOM      1  C   UNL     1       3.464   6.152  18.805  0.00  0.00    +0.000 C 
ATOM      2  C   UNL     1       2.562   7.349  18.934  0.00  0.00    +0.000 A 
ATOM      3  C   UNL     1       2.311   8.152  17.818  0.00  0.00    +0.000 A 
ATOM      4  C   UNL     1       1.499   9.278  17.929  0.00  0.00    +0.000 A 
ATOM      5  C   UNL     1       0.934   9.599  19.174  0.00  0.00    +0.000 A 
ATOM      6  N   UNL     1       0.133  10.676  19.410  0.00  0.00    +0.000 NA
ATOM      7  C   UNL     1      -0.288  10.727  20.652  0.00  0.00    +0.000 A 
ATOM      8  N   UNL     1      -1.213  11.706  21.073  0.00  0.00    +0.000 N 
ATOM      9  C   UNL     1      -1.351  12.025  22.468  0.00  0.00    +0.000 C 
ATOM     10  O   UNL     1      -0.692  11.457  23.343  0.00  0.00    +0.000 OA
ATOM     11  S   UNL     1       0.305   9.450  21.628  0.00  0.00    +0.000 S 
ATOM     12  C   UNL     1       1.171   8.789  20.280  0.00  0.00    +0.000 A 
ATOM     13  C   UNL     1       1.991   7.654  20.180  0.00  0.00    +0.000 A 
ENDROOT
BRANCH   9  14
ATOM     14  C   UNL     1      -2.283  13.106  22.877  0.00  0.00    +0.000 A 
ATOM     15  S   UNL     1      -3.869  12.797  23.403  0.00  0.00    +0.000 S 
ATOM     16  C   UNL     1      -4.301  14.445  23.433  0.00  0.00    +0.000 A 
ATOM     17  C   UNL     1      -5.602  14.978  23.528  0.00  0.00    +0.000 A 
ATOM     18  C   UNL     1      -5.743  16.335  23.797  0.00  0.00    +0.000 A 
ATOM     19  C   UNL     1      -4.620  17.136  23.960  0.00  0.00    +0.000 A 
ATOM     20  C   UNL     1      -3.337  16.611  23.764  0.00  0.00    +0.000 A 
ATOM     21  C   UNL     1      -3.160  15.242  23.444  0.00  0.00    +0.000 A 
ATOM     22  C   UNL     1      -1.990  14.455  23.085  0.00  0.00    +0.000 A 
ATOM     23 CL   UNL     1      -0.457  15.199  22.863  0.00  0.00    +0.000 Cl
ENDBRANCH   9  14
BRANCH   8  24
ATOM     24  C   UNL     1      -1.904  12.520  20.030  0.00  0.00    +0.000 C 
BRANCH  24  25
ATOM     25  C   UNL     1      -3.144  12.002  19.285  0.00  0.00    +0.000 C 
BRANCH  25  26
ATOM     26  C   UNL     1      -4.456  12.502  19.892  0.00  0.00    +0.000 C 
BRANCH  26  27
ATOM     27  N   UNL     1      -5.660  11.963  19.235  0.00  0.00    +0.000 NA
ATOM     28  C   UNL     1      -6.586  11.351  20.193  0.00  0.00    +0.000 C 
ATOM     29  C   UNL     1      -6.345  13.035  18.508  0.00  0.00    +0.000 C 
ENDBRANCH  26  27
ENDBRANCH  25  26
ENDBRANCH  24  25
ENDBRANCH   8  24
TORSDOF 5
ENDMDL
MODEL 4
REMARK VINA RESULT:      -6.5      1.566      2.308
REMARK  Name = 
REMARK  8 active torsions:
REMARK  status: ('A' for Active; 'I' for Inactive)
REMARK    1  A    between atoms: C_1  and  C_2
REMARK    2  A    between atoms: N_8  and  C_9
REMARK    3  A    between atoms: C_9  and  C_10
REMARK    4  A    between atoms: C_10  and  C_11
REMARK    5  A    between atoms: C_11  and  N_12
REMARK    6  A    between atoms: N_12  and  C_13
REMARK    7  A    between atoms: N_12  and  C_14
REMARK    8  A    between atoms: C_15  and  C_17
REMARK                            x       y       z     vdW  Elec       q    Type
REMARK                         _______ _______ _______ _____ _____    ______ ____
ROOT
ATOM      1  C   UNL     1       3.535   5.937  18.717  0.00  0.00    +0.000 C 
ATOM      2  C   UNL     1       2.645   7.137  18.884  0.00  0.00    +0.000 A 
ATOM      3  C   UNL     1       2.396   7.974  17.790  0.00  0.00    +0.000 A 
ATOM      4  C   UNL     1       1.595   9.103  17.937  0.00  0.00    +0.000 A 
ATOM      5  C   UNL     1       1.038   9.394  19.193  0.00  0.00    +0.000 A 
ATOM      6  N   UNL     1       0.248  10.471  19.462  0.00  0.00    +0.000 NA
ATOM      7  C   UNL     1      -0.167  10.491  20.707  0.00  0.00    +0.000 A 
ATOM      8  N   UNL     1      -1.082  11.467  21.159  0.00  0.00    +0.000 N 
ATOM      9  C   UNL     1      -1.210  11.748  22.563  0.00  0.00    +0.000 C 
ATOM     10  O   UNL     1      -0.553  11.151  23.419  0.00  0.00    +0.000 OA
ATOM     11  S   UNL     1       0.418   9.182  21.644  0.00  0.00    +0.000 S 
ATOM     12  C   UNL     1       1.273   8.552  20.275  0.00  0.00    +0.000 A 
ATOM     13  C   UNL     1       2.082   7.413  20.139  0.00  0.00    +0.000 A 
ENDROOT
BRANCH   9  14
ATOM     14  C   UNL     1      -2.131  12.826  23.006  0.00  0.00    +0.000 A 
ATOM     15  S   UNL     1      -3.738  12.524  23.468  0.00  0.00    +0.000 S 
ATOM     16  C   UNL     1      -4.136  14.177  23.579  0.00  0.00    +0.000 A 
ATOM     17  C   UNL     1      -5.427  14.734  23.667  0.00  0.00    +0.000 A 
ATOM     18  C   UNL     1      -5.547  16.077  24.008  0.00  0.00    +0.000 A 
ATOM     19  C   UNL     1      -4.413  16.841  24.249  0.00  0.00    +0.000 A 
ATOM     20  C   UNL     1      -3.135  16.298  24.061  0.00  0.00    +0.000 A 
ATOM     21  C   UNL     1      -2.978  14.946  23.669  0.00  0.00    +0.000 A 
ATOM     22  C   UNL     1      -1.816  14.153  23.299  0.00  0.00    +0.000 A 
ATOM     23 CL   UNL     1      -0.261  14.873  23.164  0.00  0.00    +0.000 Cl
ENDBRANCH   9  14
BRANCH   8  24
ATOM     24  C   UNL     1      -1.770  12.315  20.142  0.00  0.00    +0.000 C 
BRANCH  24  25
ATOM     25  C   UNL     1      -0.989  13.170  19.133  0.00  0.00    +0.000 C 
BRANCH  25  26
ATOM     26  C   UNL     1      -0.490  14.487  19.728  0.00  0.00    +0.000 C 
BRANCH  26  27
ATOM     27  N   UNL     1       0.924  14.778  19.432  0.00  0.00    +0.000 NA
ATOM     28  C   UNL     1       1.518  13.782  18.536  0.00  0.00    +0.000 C 
ATOM     29  C   UNL     1       1.036  16.110  18.829  0.00  0.00    +0.000 C 
ENDBRANCH  26  27
ENDBRANCH  25  26
ENDBRANCH  24  25
ENDBRANCH   8  24
TORSDOF 5
ENDMDL
MODEL 5
REMARK VINA RESULT:      -6.5      3.541      5.157
REMARK  Name = 
REMARK  8 active torsions:
REMARK  status: ('A' for Active; 'I' for Inactive)
REMARK    1  A    between atoms: C_1  and  C_2
REMARK    2  A    between atoms: N_8  and  C_9
REMARK    3  A    between atoms: C_9  and  C_10
REMARK    4  A    between atoms: C_10  and  C_11
REMARK    5  A    between atoms: C_11  and  N_12
REMARK    6  A    between atoms: N_12  and  C_13
REMARK    7  A    between atoms: N_12  and  C_14
REMARK    8  A    between atoms: C_15  and  C_17
REMARK                            x       y       z     vdW  Elec       q    Type
REMARK                         _______ _______ _______ _____ _____    ______ ____
ROOT
ATOM      1  C   UNL     1       3.189   2.287  18.716  0.00  0.00    +0.000 C 
ATOM      2  C   UNL     1       2.727   3.639  19.182  0.00  0.00    +0.000 A 
ATOM      3  C   UNL     1       2.010   3.755  20.378  0.00  0.00    +0.000 A 
ATOM      4  C   UNL     1       1.554   4.998  20.808  0.00  0.00    +0.000 A 
ATOM      5  C   UNL     1       1.819   6.136  20.028  0.00  0.00    +0.000 A 
ATOM      6  N   UNL     1       1.418   7.401  20.338  0.00  0.00    +0.000 NA
ATOM      7  C   UNL     1       1.825   8.287  19.459  0.00  0.00    +0.000 A 
ATOM      8  N   UNL     1       1.605   9.667  19.653  0.00  0.00    +0.000 N 
ATOM      9  C   UNL     1       1.664  10.577  18.541  0.00  0.00    +0.000 C 
ATOM     10  O   UNL     1       1.922  10.202  17.395  0.00  0.00    +0.000 OA
ATOM     11  S   UNL     1       2.717   7.605  18.164  0.00  0.00    +0.000 S 
ATOM     12  C   UNL     1       2.546   6.022  18.847  0.00  0.00    +0.000 A 
ATOM     13  C   UNL     1       3.008   4.773  18.403  0.00  0.00    +0.000 A 
ENDROOT
BRANCH   9  14
ATOM     14  C   UNL     1       1.362  12.014  18.762  0.00  0.00    +0.000 A 
ATOM     15  S   UNL     1       2.575  13.175  19.023  0.00  0.00    +0.000 S 
ATOM     16  C   UNL     1       1.468  14.412  19.405  0.00  0.00    +0.000 A 
ATOM     17  C   UNL     1       1.757  15.652  20.008  0.00  0.00    +0.000 A 
ATOM     18  C   UNL     1       0.772  16.634  20.007  0.00  0.00    +0.000 A 
ATOM     19  C   UNL     1      -0.464  16.384  19.427  0.00  0.00    +0.000 A 
ATOM     20  C   UNL     1      -0.769  15.114  18.921  0.00  0.00    +0.000 A 
ATOM     21  C   UNL     1       0.196  14.077  18.948  0.00  0.00    +0.000 A 
ATOM     22  C   UNL     1       0.137  12.664  18.607  0.00  0.00    +0.000 A 
ATOM     23 CL   UNL     1      -1.347  11.923  18.159  0.00  0.00    +0.000 Cl
ENDBRANCH   9  14
BRANCH   8  24
ATOM     24  C   UNL     1       1.135  10.126  20.994  0.00  0.00    +0.000 C 
BRANCH  24  25
ATOM     25  C   UNL     1      -0.352  10.366  21.295  0.00  0.00    +0.000 C 
BRANCH  25  26
ATOM     26  C   UNL     1      -0.645  10.488  22.791  0.00  0.00    +0.000 C 
BRANCH  26  27
ATOM     27  N   UNL     1      -1.089  11.831  23.204  0.00  0.00    +0.000 NA
ATOM     28  C   UNL     1      -0.555  12.882  22.334  0.00  0.00    +0.000 C 
ATOM     29  C   UNL     1      -2.553  11.887  23.200  0.00  0.00    +0.000 C 
ENDBRANCH  26  27
ENDBRANCH  25  26
ENDBRANCH  24  25
ENDBRANCH   8  24
TORSDOF 5
ENDMDL
MODEL 6
REMARK VINA RESULT:      -6.4      3.376      6.139
REMARK  Name = 
REMARK  8 active torsions:
REMARK  status: ('A' for Active; 'I' for Inactive)
REMARK    1  A    between atoms: C_1  and  C_2
REMARK    2  A    between atoms: N_8  and  C_9
REMARK    3  A    between atoms: C_9  and  C_10
REMARK    4  A    between atoms: C_10  and  C_11
REMARK    5  A    between atoms: C_11  and  N_12
REMARK    6  A    between atoms: N_12  and  C_13
REMARK    7  A    between atoms: N_12  and  C_14
REMARK    8  A    between atoms: C_15  and  C_17
REMARK                            x       y       z     vdW  Elec       q    Type
REMARK                         _______ _______ _______ _____ _____    ______ ____
ROOT
ATOM      1  C   UNL     1       6.676   4.071  14.588  0.00  0.00    +0.000 C 
ATOM      2  C   UNL     1       5.666   4.513  15.611  0.00  0.00    +0.000 A 
ATOM      3  C   UNL     1       4.986   3.557  16.372  0.00  0.00    +0.000 A 
ATOM      4  C   UNL     1       4.030   3.951  17.305  0.00  0.00    +0.000 A 
ATOM      5  C   UNL     1       3.755   5.318  17.474  0.00  0.00    +0.000 A 
ATOM      6  N   UNL     1       2.838   5.824  18.345  0.00  0.00    +0.000 NA
ATOM      7  C   UNL     1       2.801   7.136  18.330  0.00  0.00    +0.000 A 
ATOM      8  N   UNL     1       1.993   7.857  19.235  0.00  0.00    +0.000 N 
ATOM      9  C   UNL     1       1.632   9.221  18.961  0.00  0.00    +0.000 C 
ATOM     10  O   UNL     1       2.017   9.815  17.951  0.00  0.00    +0.000 OA
ATOM     11  S   UNL     1       3.889   7.837  17.208  0.00  0.00    +0.000 S 
ATOM     12  C   UNL     1       4.445   6.268  16.728  0.00  0.00    +0.000 A 
ATOM     13  C   UNL     1       5.408   5.882  15.783  0.00  0.00    +0.000 A 
ENDROOT
BRANCH   9  14
ATOM     14  C   UNL     1       0.725   9.935  19.896  0.00  0.00    +0.000 A 
ATOM     15  S   UNL     1       1.055  10.080  21.557  0.00  0.00    +0.000 S 
ATOM     16  C   UNL     1      -0.468  10.757  21.915  0.00  0.00    +0.000 A 
ATOM     17  C   UNL     1      -1.048  10.910  23.189  0.00  0.00    +0.000 A 
ATOM     18  C   UNL     1      -2.178  11.713  23.310  0.00  0.00    +0.000 A 
ATOM     19  C   UNL     1      -2.713  12.338  22.192  0.00  0.00    +0.000 A 
ATOM     20  C   UNL     1      -2.184  12.096  20.918  0.00  0.00    +0.000 A 
ATOM     21  C   UNL     1      -1.061  11.247  20.754  0.00  0.00    +0.000 A 
ATOM     22  C   UNL     1      -0.375  10.732  19.580  0.00  0.00    +0.000 A 
ATOM     23 CL   UNL     1      -0.976  11.039  17.999  0.00  0.00    +0.000 Cl
ENDBRANCH   9  14
BRANCH   8  24
ATOM     24  C   UNL     1       1.382   7.119  20.380  0.00  0.00    +0.000 C 
BRANCH  24  25
ATOM     25  C   UNL     1       1.836   5.704  20.770  0.00  0.00    +0.000 C 
BRANCH  25  26
ATOM     26  C   UNL     1       0.832   4.623  20.367  0.00  0.00    +0.000 C 
BRANCH  26  27
ATOM     27  N   UNL     1       1.221   3.263  20.781  0.00  0.00    +0.000 NA
ATOM     28  C   UNL     1       1.555   2.410  19.637  0.00  0.00    +0.000 C 
ATOM     29  C   UNL     1       2.369   3.336  21.690  0.00  0.00    +0.000 C 
ENDBRANCH  26  27
ENDBRANCH  25  26
ENDBRANCH  24  25
ENDBRANCH   8  24
TORSDOF 5
ENDMDL
MODEL 7
REMARK VINA RESULT:      -6.4      1.344      1.590
REMARK  Name = 
REMARK  8 active torsions:
REMARK  status: ('A' for Active; 'I' for Inactive)
REMARK    1  A    between atoms: C_1  and  C_2
REMARK    2  A    between atoms: N_8  and  C_9
REMARK    3  A    between atoms: C_9  and  C_10
REMARK    4  A    between atoms: C_10  and  C_11
REMARK    5  A    between atoms: C_11  and  N_12
REMARK    6  A    between atoms: N_12  and  C_13
REMARK    7  A    between atoms: N_12  and  C_14
REMARK    8  A    between atoms: C_15  and  C_17
REMARK                            x       y       z     vdW  Elec       q    Type
REMARK                         _______ _______ _______ _____ _____    ______ ____
ROOT
ATOM      1  C   UNL     1       3.386   4.544  19.024  0.00  0.00    +0.000 C 
ATOM      2  C   UNL     1       2.867   5.955  18.989  0.00  0.00    +0.000 A 
ATOM      3  C   UNL     1       3.111   6.756  17.869  0.00  0.00    +0.000 A 
ATOM      4  C   UNL     1       2.658   8.073  17.834  0.00  0.00    +0.000 A 
ATOM      5  C   UNL     1       1.953   8.588  18.934  0.00  0.00    +0.000 A 
ATOM      6  N   UNL     1       1.469   9.859  19.021  0.00  0.00    +0.000 NA
ATOM      7  C   UNL     1       0.820  10.074  20.142  0.00  0.00    +0.000 A 
ATOM      8  N   UNL     1       0.152  11.294  20.379  0.00  0.00    +0.000 N 
ATOM      9  C   UNL     1      -0.188  11.689  21.719  0.00  0.00    +0.000 C 
ATOM     10  O   UNL     1       0.069  10.986  22.700  0.00  0.00    +0.000 OA
ATOM     11  S   UNL     1       0.788   8.715  21.184  0.00  0.00    +0.000 S 
ATOM     12  C   UNL     1       1.697   7.784  20.040  0.00  0.00    +0.000 A 
ATOM     13  C   UNL     1       2.152   6.457  20.087  0.00  0.00    +0.000 A 
ENDROOT
BRANCH   9  14
ATOM     14  C   UNL     1      -0.831  13.008  21.947  0.00  0.00    +0.000 A 
ATOM     15  S   UNL     1      -2.461  13.166  22.401  0.00  0.00    +0.000 S 
ATOM     16  C   UNL     1      -2.464  14.860  22.222  0.00  0.00    +0.000 A 
ATOM     17  C   UNL     1      -3.590  15.705  22.174  0.00  0.00    +0.000 A 
ATOM     18  C   UNL     1      -3.394  17.078  22.283  0.00  0.00    +0.000 A 
ATOM     19  C   UNL     1      -2.112  17.590  22.429  0.00  0.00    +0.000 A 
ATOM     20  C   UNL     1      -0.996  16.746  22.375  0.00  0.00    +0.000 A 
ATOM     21  C   UNL     1      -1.159  15.347  22.219  0.00  0.00    +0.000 A 
ATOM     22  C   UNL     1      -0.215  14.258  22.023  0.00  0.00    +0.000 A 
ATOM     23 CL   UNL     1       1.464  14.568  21.821  0.00  0.00    +0.000 Cl
ENDBRANCH   9  14
BRANCH   8  24
ATOM     24  C   UNL     1      -0.027  12.236  19.235  0.00  0.00    +0.000 C 
BRANCH  24  25
ATOM     25  C   UNL     1      -1.350  12.330  18.459  0.00  0.00    +0.000 C 
BRANCH  25  26
ATOM     26  C   UNL     1      -2.381  11.295  18.912  0.00  0.00    +0.000 C 
BRANCH  26  27
ATOM     27  N   UNL     1      -2.966  10.513  17.808  0.00  0.00    +0.000 NA
ATOM     28  C   UNL     1      -3.783  11.341  16.916  0.00  0.00    +0.000 C 
ATOM     29  C   UNL     1      -1.895   9.873  17.038  0.00  0.00    +0.000 C 
ENDBRANCH  26  27
ENDBRANCH  25  26
ENDBRANCH  24  25
ENDBRANCH   8  24
TORSDOF 5
ENDMDL
MODEL 8
REMARK VINA RESULT:      -6.4      1.267      1.517
REMARK  Name = 
REMARK  8 active torsions:
REMARK  status: ('A' for Active; 'I' for Inactive)
REMARK    1  A    between atoms: C_1  and  C_2
REMARK    2  A    between atoms: N_8  and  C_9
REMARK    3  A    between atoms: C_9  and  C_10
REMARK    4  A    between atoms: C_10  and  C_11
REMARK    5  A    between atoms: C_11  and  N_12
REMARK    6  A    between atoms: N_12  and  C_13
REMARK    7  A    between atoms: N_12  and  C_14
REMARK    8  A    between atoms: C_15  and  C_17
REMARK                            x       y       z     vdW  Elec       q    Type
REMARK                         _______ _______ _______ _____ _____    ______ ____
ROOT
ATOM      1  C   UNL     1       3.232   5.578  18.830  0.00  0.00    +0.000 C 
ATOM      2  C   UNL     1       2.537   6.901  18.991  0.00  0.00    +0.000 A 
ATOM      3  C   UNL     1       2.596   7.846  17.961  0.00  0.00    +0.000 A 
ATOM      4  C   UNL     1       1.979   9.086  18.107  0.00  0.00    +0.000 A 
ATOM      5  C   UNL     1       1.296   9.379  19.298  0.00  0.00    +0.000 A 
ATOM      6  N   UNL     1       0.663  10.556  19.562  0.00  0.00    +0.000 NA
ATOM      7  C   UNL     1       0.074  10.559  20.735  0.00  0.00    +0.000 A 
ATOM      8  N   UNL     1      -0.725  11.645  21.152  0.00  0.00    +0.000 N 
ATOM      9  C   UNL     1      -1.015  11.841  22.546  0.00  0.00    +0.000 C 
ATOM     10  O   UNL     1      -0.602  11.077  23.421  0.00  0.00    +0.000 OA
ATOM     11  S   UNL     1       0.288   9.102  21.611  0.00  0.00    +0.000 S 
ATOM     12  C   UNL     1       1.223   8.432  20.315  0.00  0.00    +0.000 A 
ATOM     13  C   UNL     1       1.845   7.180  20.180  0.00  0.00    +0.000 A 
ENDROOT
BRANCH   9  14
ATOM     14  C   UNL     1      -1.802  13.030  22.964  0.00  0.00    +0.000 A 
ATOM     15  S   UNL     1      -1.086  14.398  23.673  0.00  0.00    +0.000 S 
ATOM     16  C   UNL     1      -2.580  15.126  24.047  0.00  0.00    +0.000 A 
ATOM     17  C   UNL     1      -2.799  16.214  24.915  0.00  0.00    +0.000 A 
ATOM     18  C   UNL     1      -4.044  16.835  24.899  0.00  0.00    +0.000 A 
ATOM     19  C   UNL     1      -5.040  16.378  24.047  0.00  0.00    +0.000 A 
ATOM     20  C   UNL     1      -4.839  15.235  23.263  0.00  0.00    +0.000 A 
ATOM     21  C   UNL     1      -3.598  14.552  23.290  0.00  0.00    +0.000 A 
ATOM     22  C   UNL     1      -3.141  13.309  22.689  0.00  0.00    +0.000 A 
ATOM     23 CL   UNL     1      -4.224  12.294  21.823  0.00  0.00    +0.000 Cl
ENDBRANCH   9  14
BRANCH   8  24
ATOM     24  C   UNL     1      -1.104  12.673  20.139  0.00  0.00    +0.000 C 
BRANCH  24  25
ATOM     25  C   UNL     1      -1.450  12.298  18.690  0.00  0.00    +0.000 C 
BRANCH  25  26
ATOM     26  C   UNL     1      -2.942  12.037  18.481  0.00  0.00    +0.000 C 
BRANCH  26  27
ATOM     27  N   UNL     1      -3.263  11.412  17.186  0.00  0.00    +0.000 NA
ATOM     28  C   UNL     1      -2.445  10.224  16.927  0.00  0.00    +0.000 C 
ATOM     29  C   UNL     1      -4.683  11.047  17.155  0.00  0.00    +0.000 C 
ENDBRANCH  26  27
ENDBRANCH  25  26
ENDBRANCH  24  25
ENDBRANCH   8  24
TORSDOF 5
ENDMDL
MODEL 9
REMARK VINA RESULT:      -6.4      2.033      2.614
REMARK  Name = 
REMARK  8 active torsions:
REMARK  status: ('A' for Active; 'I' for Inactive)
REMARK    1  A    between atoms: C_1  and  C_2
REMARK    2  A    between atoms: N_8  and  C_9
REMARK    3  A    between atoms: C_9  and  C_10
REMARK    4  A    between atoms: C_10  and  C_11
REMARK    5  A    between atoms: C_11  and  N_12
REMARK    6  A    between atoms: N_12  and  C_13
REMARK    7  A    between atoms: N_12  and  C_14
REMARK    8  A    between atoms: C_15  and  C_17
REMARK                            x       y       z     vdW  Elec       q    Type
REMARK                         _______ _______ _______ _____ _____    ______ ____
ROOT
ATOM      1  C   UNL     1       3.827   2.996  19.422  0.00  0.00    +0.000 C 
ATOM      2  C   UNL     1       3.303   4.386  19.188  0.00  0.00    +0.000 A 
ATOM      3  C   UNL     1       3.392   4.955  17.914  0.00  0.00    +0.000 A 
ATOM      4  C   UNL     1       2.934   6.251  17.689  0.00  0.00    +0.000 A 
ATOM      5  C   UNL     1       2.382   6.981  18.754  0.00  0.00    +0.000 A 
ATOM      6  N   UNL     1       1.910   8.256  18.661  0.00  0.00    +0.000 NA
ATOM      7  C   UNL     1       1.417   8.694  19.796  0.00  0.00    +0.000 A 
ATOM      8  N   UNL     1       0.783   9.952  19.883  0.00  0.00    +0.000 N 
ATOM      9  C   UNL     1       0.625  10.600  21.156  0.00  0.00    +0.000 C 
ATOM     10  O   UNL     1       1.014  10.090  22.210  0.00  0.00    +0.000 OA
ATOM     11  S   UNL     1       1.530   7.558  21.073  0.00  0.00    +0.000 S 
ATOM     12  C   UNL     1       2.279   6.407  20.017  0.00  0.00    +0.000 A 
ATOM     13  C   UNL     1       2.741   5.103  20.256  0.00  0.00    +0.000 A 
ENDROOT
BRANCH   9  14
ATOM     14  C   UNL     1       0.015  11.953  21.211  0.00  0.00    +0.000 A 
ATOM     15  S   UNL     1      -1.598  12.211  21.681  0.00  0.00    +0.000 S 
ATOM     16  C   UNL     1      -1.574  13.863  21.264  0.00  0.00    +0.000 A 
ATOM     17  C   UNL     1      -2.685  14.718  21.126  0.00  0.00    +0.000 A 
ATOM     18  C   UNL     1      -2.459  16.087  21.035  0.00  0.00    +0.000 A 
ATOM     19  C   UNL     1      -1.164  16.586  21.073  0.00  0.00    +0.000 A 
ATOM     20  C   UNL     1      -0.067  15.716  21.110  0.00  0.00    +0.000 A 
ATOM     21  C   UNL     1      -0.261  14.314  21.158  0.00  0.00    +0.000 A 
ATOM     22  C   UNL     1       0.656  13.186  21.094  0.00  0.00    +0.000 A 
ATOM     23 CL   UNL     1       2.334  13.426  20.806  0.00  0.00    +0.000 Cl
ENDBRANCH   9  14
BRANCH   8  24
ATOM     24  C   UNL     1       0.448  10.664  18.614  0.00  0.00    +0.000 C 
BRANCH  24  25
ATOM     25  C   UNL     1      -0.991  11.072  18.267  0.00  0.00    +0.000 C 
BRANCH  25  26
ATOM     26  C   UNL     1      -1.615  10.194  17.182  0.00  0.00    +0.000 C 
BRANCH  26  27
ATOM     27  N   UNL     1      -2.561  10.908  16.307  0.00  0.00    +0.000 NA
ATOM     28  C   UNL     1      -2.888  10.141  15.102  0.00  0.00    +0.000 C 
ATOM     29  C   UNL     1      -3.790  11.202  17.050  0.00  0.00    +0.000 C 
ENDBRANCH  26  27
ENDBRANCH  25  26
ENDBRANCH  24  25
ENDBRANCH   8  24
TORSDOF 5
ENDMDL
