MODEL 1
REMARK VINA RESULT:      -8.1      0.000      0.000
REMARK  Name = 
REMARK  9 active torsions:
REMARK  status: ('A' for Active; 'I' for Inactive)
REMARK    1  A    between atoms: C_1  and  C_2
REMARK    2  A    between atoms: C_4  and  C_5
REMARK    3  A    between atoms: C_6  and  C_7
REMARK    4  A    between atoms: C_7  and  S_8
REMARK    5  A    between atoms: S_8  and  C_9
REMARK    6  A    between atoms: C_12  and  C_13
REMARK    7  A    between atoms: N_19  and  C_20
REMARK    8  A    between atoms: C_20  and  C_21
REMARK    9  A    between atoms: C_26  and  C_27
REMARK                            x       y       z     vdW  Elec       q    Type
REMARK                         _______ _______ _______ _____ _____    ______ ____
ROOT
ATOM      1  C   UNL     1       2.256   7.749  19.034  0.00  0.00    +0.000 A 
ATOM      2  N   UNL     1       2.342   8.515  17.969  0.00  0.00    +0.000 NA
ATOM      3  N   UNL     1       3.271   7.965  17.108  0.00  0.00    +0.000 NA
ATOM      4  C   UNL     1       3.737   6.837  17.631  0.00  0.00    +0.000 A 
ATOM      5  N   UNL     1       3.121   6.668  18.869  0.00  0.00    +0.000 N 
ENDROOT
BRANCH   4   6
ATOM      6  C   UNL     1       4.761   5.959  17.012  0.00  0.00    +0.000 A 
ATOM      7  C   UNL     1       4.447   4.691  16.526  0.00  0.00    +0.000 A 
ATOM      8  C   UNL     1       5.461   3.886  15.989  0.00  0.00    +0.000 A 
ATOM      9  C   UNL     1       6.765   4.365  15.964  0.00  0.00    +0.000 A 
ATOM     10  C   UNL     1       6.995   5.631  16.464  0.00  0.00    +0.000 A 
ATOM     11  N   UNL     1       6.028   6.440  16.974  0.00  0.00    +0.000 NA
ENDBRANCH   4   6
BRANCH   1  12
ATOM     12  S   UNL     1       1.247   8.073  20.446  0.00  0.00    +0.000 S 
BRANCH  12  13
ATOM     13  C   UNL     1       0.883   9.880  20.378  0.00  0.00    +0.000 C 
BRANCH  13  19
ATOM     14  C   UNL     1      -3.321  13.171  23.060  0.00  0.00    +0.000 C 
ATOM     15  C   UNL     1      -2.315  12.267  22.406  0.00  0.00    +0.000 A 
ATOM     16  C   UNL     1      -1.591  11.326  23.130  0.00  0.00    +0.000 A 
ATOM     17  C   UNL     1      -0.596  10.482  22.541  0.00  0.00    +0.000 A 
ATOM     18  C   UNL     1      -0.007   9.476  23.492  0.00  0.00    +0.000 C 
ATOM     19  C   UNL     1      -0.279  10.586  21.161  0.00  0.00    +0.000 A 
ATOM     20  C   UNL     1      -1.108  11.499  20.413  0.00  0.00    +0.000 A 
ATOM     21  C   UNL     1      -1.021  11.671  18.915  0.00  0.00    +0.000 C 
ATOM     22  C   UNL     1      -2.072  12.335  21.044  0.00  0.00    +0.000 A 
ENDBRANCH  13  19
ENDBRANCH  12  13
ENDBRANCH   1  12
BRANCH   5  23
ATOM     23  C   UNL     1       3.542   5.690  19.859  0.00  0.00    +0.000 C 
BRANCH  23  24
ATOM     24  C   UNL     1       2.545   4.626  20.150  0.00  0.00    +0.000 A 
ATOM     25  C   UNL     1       2.112   3.943  21.271  0.00  0.00    +0.000 A 
ATOM     26  C   UNL     1       1.143   3.006  20.829  0.00  0.00    +0.000 A 
ATOM     27  C   UNL     1       0.996   3.218  19.480  0.00  0.00    +0.000 A 
ATOM     28  O   UNL     1       1.834   4.198  19.060  0.00  0.00    +0.000 OA
ENDBRANCH  23  24
ENDBRANCH   5  23
TORSDOF 6
ENDMDL
MODEL 2
REMARK VINA RESULT:      -7.9      0.701      1.014
REMARK  Name = 
REMARK  9 active torsions:
REMARK  status: ('A' for Active; 'I' for Inactive)
REMARK    1  A    between atoms: C_1  and  C_2
REMARK    2  A    between atoms: C_4  and  C_5
REMARK    3  A    between atoms: C_6  and  C_7
REMARK    4  A    between atoms: C_7  and  S_8
REMARK    5  A    between atoms: S_8  and  C_9
REMARK    6  A    between atoms: C_12  and  C_13
REMARK    7  A    between atoms: N_19  and  C_20
REMARK    8  A    between atoms: C_20  and  C_21
REMARK    9  A    between atoms: C_26  and  C_27
REMARK                            x       y       z     vdW  Elec       q    Type
REMARK                         _______ _______ _______ _____ _____    ______ ____
ROOT
ATOM      1  C   UNL     1       2.244   7.802  19.049  0.00  0.00    +0.000 A 
ATOM      2  N   UNL     1       2.348   8.570  17.986  0.00  0.00    +0.000 NA
ATOM      3  N   UNL     1       3.273   8.008  17.129  0.00  0.00    +0.000 NA
ATOM      4  C   UNL     1       3.717   6.872  17.651  0.00  0.00    +0.000 A 
ATOM      5  N   UNL     1       3.092   6.708  18.885  0.00  0.00    +0.000 N 
ENDROOT
BRANCH   4   6
ATOM      6  C   UNL     1       4.730   5.978  17.034  0.00  0.00    +0.000 A 
ATOM      7  C   UNL     1       6.053   6.377  16.854  0.00  0.00    +0.000 A 
ATOM      8  C   UNL     1       6.958   5.509  16.228  0.00  0.00    +0.000 A 
ATOM      9  C   UNL     1       6.512   4.270  15.784  0.00  0.00    +0.000 A 
ATOM     10  C   UNL     1       5.187   3.949  15.999  0.00  0.00    +0.000 A 
ATOM     11  N   UNL     1       4.292   4.763  16.620  0.00  0.00    +0.000 NA
ENDBRANCH   4   6
BRANCH   1  12
ATOM     12  S   UNL     1       1.232   8.139  20.456  0.00  0.00    +0.000 S 
BRANCH  12  13
ATOM     13  C   UNL     1       0.818   9.932  20.339  0.00  0.00    +0.000 C 
BRANCH  13  19
ATOM     14  C   UNL     1      -3.349  13.215  23.088  0.00  0.00    +0.000 C 
ATOM     15  C   UNL     1      -2.353  12.313  22.417  0.00  0.00    +0.000 A 
ATOM     16  C   UNL     1      -1.618  11.370  23.129  0.00  0.00    +0.000 A 
ATOM     17  C   UNL     1      -0.631  10.528  22.524  0.00  0.00    +0.000 A 
ATOM     18  C   UNL     1      -0.029   9.519  23.464  0.00  0.00    +0.000 C 
ATOM     19  C   UNL     1      -0.333  10.636  21.140  0.00  0.00    +0.000 A 
ATOM     20  C   UNL     1      -1.173  11.550  20.406  0.00  0.00    +0.000 A 
ATOM     21  C   UNL     1      -1.107  11.726  18.907  0.00  0.00    +0.000 C 
ATOM     22  C   UNL     1      -2.128  12.384  21.053  0.00  0.00    +0.000 A 
ENDBRANCH  13  19
ENDBRANCH  12  13
ENDBRANCH   1  12
BRANCH   5  23
ATOM     23  C   UNL     1       3.492   5.720  19.873  0.00  0.00    +0.000 C 
BRANCH  23  24
ATOM     24  C   UNL     1       2.565   4.565  20.012  0.00  0.00    +0.000 A 
ATOM     25  C   UNL     1       1.294   4.360  20.516  0.00  0.00    +0.000 A 
ATOM     26  C   UNL     1       1.017   2.976  20.372  0.00  0.00    +0.000 A 
ATOM     27  C   UNL     1       2.105   2.434  19.733  0.00  0.00    +0.000 A 
ATOM     28  O   UNL     1       3.044   3.387  19.506  0.00  0.00    +0.000 OA
ENDBRANCH  23  24
ENDBRANCH   5  23
TORSDOF 6
ENDMDL
MODEL 3
REMARK VINA RESULT:      -7.7      2.882      8.951
REMARK  Name = 
REMARK  9 active torsions:
REMARK  status: ('A' for Active; 'I' for Inactive)
REMARK    1  A    between atoms: C_1  and  C_2
REMARK    2  A    between atoms: C_4  and  C_5
REMARK    3  A    between atoms: C_6  and  C_7
REMARK    4  A    between atoms: C_7  and  S_8
REMARK    5  A    between atoms: S_8  and  C_9
REMARK    6  A    between atoms: C_12  and  C_13
REMARK    7  A    between atoms: N_19  and  C_20
REMARK    8  A    between atoms: C_20  and  C_21
REMARK    9  A    between atoms: C_26  and  C_27
REMARK                            x       y       z     vdW  Elec       q    Type
REMARK                         _______ _______ _______ _____ _____    ______ ____
ROOT
ATOM      1  C   UNL     1       1.048   9.462  19.724  0.00  0.00    +0.000 A 
ATOM      2  N   UNL     1       1.507   9.044  20.883  0.00  0.00    +0.000 NA
ATOM      3  N   UNL     1       1.016   9.872  21.873  0.00  0.00    +0.000 NA
ATOM      4  C   UNL     1       0.224  10.785  21.325  0.00  0.00    +0.000 A 
ATOM      5  N   UNL     1       0.226  10.565  19.949  0.00  0.00    +0.000 N 
ENDROOT
BRANCH   4   6
ATOM      6  C   UNL     1      -0.486  11.862  22.059  0.00  0.00    +0.000 A 
ATOM      7  C   UNL     1      -1.700  11.637  22.705  0.00  0.00    +0.000 A 
ATOM      8  C   UNL     1      -2.349  12.700  23.349  0.00  0.00    +0.000 A 
ATOM      9  C   UNL     1      -1.773  13.964  23.317  0.00  0.00    +0.000 A 
ATOM     10  C   UNL     1      -0.569  14.106  22.657  0.00  0.00    +0.000 A 
ATOM     11  N   UNL     1       0.091  13.089  22.040  0.00  0.00    +0.000 NA
ENDBRANCH   4   6
BRANCH   1  12
ATOM     12  S   UNL     1       1.451   8.762  18.154  0.00  0.00    +0.000 S 
BRANCH  12  13
ATOM     13  C   UNL     1       3.009   7.814  18.430  0.00  0.00    +0.000 C 
BRANCH  13  19
ATOM     14  C   UNL     1       3.269   1.881  17.771  0.00  0.00    +0.000 C 
ATOM     15  C   UNL     1       3.248   3.363  18.020  0.00  0.00    +0.000 A 
ATOM     16  C   UNL     1       2.529   3.923  19.071  0.00  0.00    +0.000 A 
ATOM     17  C   UNL     1       2.456   5.333  19.305  0.00  0.00    +0.000 A 
ATOM     18  C   UNL     1       1.702   5.707  20.552  0.00  0.00    +0.000 C 
ATOM     19  C   UNL     1       3.111   6.249  18.440  0.00  0.00    +0.000 A 
ATOM     20  C   UNL     1       3.926   5.642  17.417  0.00  0.00    +0.000 A 
ATOM     21  C   UNL     1       4.801   6.429  16.469  0.00  0.00    +0.000 C 
ATOM     22  C   UNL     1       3.953   4.235  17.206  0.00  0.00    +0.000 A 
ENDBRANCH  13  19
ENDBRANCH  12  13
ENDBRANCH   1  12
BRANCH   5  23
ATOM     23  C   UNL     1      -0.318  11.498  18.977  0.00  0.00    +0.000 C 
BRANCH  23  24
ATOM     24  C   UNL     1      -1.613  11.088  18.373  0.00  0.00    +0.000 A 
ATOM     25  C   UNL     1      -2.039  10.110  17.493  0.00  0.00    +0.000 A 
ATOM     26  C   UNL     1      -3.431  10.310  17.304  0.00  0.00    +0.000 A 
ATOM     27  C   UNL     1      -3.781  11.353  18.126  0.00  0.00    +0.000 A 
ATOM     28  O   UNL     1      -2.691  11.826  18.781  0.00  0.00    +0.000 OA
ENDBRANCH  23  24
ENDBRANCH   5  23
TORSDOF 6
ENDMDL
MODEL 4
REMARK VINA RESULT:      -7.7      0.655      1.821
REMARK  Name = 
REMARK  9 active torsions:
REMARK  status: ('A' for Active; 'I' for Inactive)
REMARK    1  A    between atoms: C_1  and  C_2
REMARK    2  A    between atoms: C_4  and  C_5
REMARK    3  A    between atoms: C_6  and  C_7
REMARK    4  A    between atoms: C_7  and  S_8
REMARK    5  A    between atoms: S_8  and  C_9
REMARK    6  A    between atoms: C_12  and  C_13
REMARK    7  A    between atoms: N_19  and  C_20
REMARK    8  A    between atoms: C_20  and  C_21
REMARK    9  A    between atoms: C_26  and  C_27
REMARK                            x       y       z     vdW  Elec       q    Type
REMARK                         _______ _______ _______ _____ _____    ______ ____
ROOT
ATOM      1  C   UNL     1       2.055   7.932  19.156  0.00  0.00    +0.000 A 
ATOM      2  N   UNL     1       2.184   8.699  18.096  0.00  0.00    +0.000 NA
ATOM      3  N   UNL     1       3.122   8.131  17.256  0.00  0.00    +0.000 NA
ATOM      4  C   UNL     1       3.549   6.992  17.786  0.00  0.00    +0.000 A 
ATOM      5  N   UNL     1       2.899   6.832  19.008  0.00  0.00    +0.000 N 
ENDROOT
BRANCH   4   6
ATOM      6  C   UNL     1       4.567   6.092  17.188  0.00  0.00    +0.000 A 
ATOM      7  C   UNL     1       4.255   4.798  16.775  0.00  0.00    +0.000 A 
ATOM      8  C   UNL     1       5.265   3.976  16.255  0.00  0.00    +0.000 A 
ATOM      9  C   UNL     1       6.563   4.465  16.175  0.00  0.00    +0.000 A 
ATOM     10  C   UNL     1       6.791   5.757  16.605  0.00  0.00    +0.000 A 
ATOM     11  N   UNL     1       5.827   6.582  17.095  0.00  0.00    +0.000 NA
ENDBRANCH   4   6
BRANCH   1  12
ATOM     12  S   UNL     1       1.019   8.274  20.544  0.00  0.00    +0.000 S 
BRANCH  12  13
ATOM     13  C   UNL     1       1.077  10.106  20.753  0.00  0.00    +0.000 C 
BRANCH  13  19
ATOM     14  C   UNL     1      -3.673  12.792  23.187  0.00  0.00    +0.000 C 
ATOM     15  C   UNL     1      -2.431  12.198  22.584  0.00  0.00    +0.000 A 
ATOM     16  C   UNL     1      -1.917  12.643  21.370  0.00  0.00    +0.000 A 
ATOM     17  C   UNL     1      -0.763  12.067  20.751  0.00  0.00    +0.000 A 
ATOM     18  C   UNL     1      -0.330  12.767  19.492  0.00  0.00    +0.000 C 
ATOM     19  C   UNL     1      -0.086  10.972  21.352  0.00  0.00    +0.000 A 
ATOM     20  C   UNL     1      -0.579  10.591  22.653  0.00  0.00    +0.000 A 
ATOM     21  C   UNL     1       0.071   9.536  23.517  0.00  0.00    +0.000 C 
ATOM     22  C   UNL     1      -1.744  11.178  23.221  0.00  0.00    +0.000 A 
ENDBRANCH  13  19
ENDBRANCH  12  13
ENDBRANCH   1  12
BRANCH   5  23
ATOM     23  C   UNL     1       3.274   5.841  20.003  0.00  0.00    +0.000 C 
BRANCH  23  24
ATOM     24  C   UNL     1       2.377   4.657  20.074  0.00  0.00    +0.000 A 
ATOM     25  C   UNL     1       1.579   3.954  19.190  0.00  0.00    +0.000 A 
ATOM     26  C   UNL     1       0.945   2.931  19.939  0.00  0.00    +0.000 A 
ATOM     27  C   UNL     1       1.440   3.029  21.216  0.00  0.00    +0.000 A 
ATOM     28  O   UNL     1       2.311   4.065  21.307  0.00  0.00    +0.000 OA
ENDBRANCH  23  24
ENDBRANCH   5  23
TORSDOF 6
ENDMDL
MODEL 5
REMARK VINA RESULT:      -7.6      2.853      9.071
REMARK  Name = 
REMARK  9 active torsions:
REMARK  status: ('A' for Active; 'I' for Inactive)
REMARK    1  A    between atoms: C_1  and  C_2
REMARK    2  A    between atoms: C_4  and  C_5
REMARK    3  A    between atoms: C_6  and  C_7
REMARK    4  A    between atoms: C_7  and  S_8
REMARK    5  A    between atoms: S_8  and  C_9
REMARK    6  A    between atoms: C_12  and  C_13
REMARK    7  A    between atoms: N_19  and  C_20
REMARK    8  A    between atoms: C_20  and  C_21
REMARK    9  A    between atoms: C_26  and  C_27
REMARK                            x       y       z     vdW  Elec       q    Type
REMARK                         _______ _______ _______ _____ _____    ______ ____
ROOT
ATOM      1  C   UNL     1       1.192   9.143  20.082  0.00  0.00    +0.000 A 
ATOM      2  N   UNL     1       1.502   8.754  21.300  0.00  0.00    +0.000 NA
ATOM      3  N   UNL     1       0.941   9.640  22.198  0.00  0.00    +0.000 NA
ATOM      4  C   UNL     1       0.256  10.562  21.533  0.00  0.00    +0.000 A 
ATOM      5  N   UNL     1       0.400  10.287  20.175  0.00  0.00    +0.000 N 
ENDROOT
BRANCH   4   6
ATOM      6  C   UNL     1      -0.483  11.695  22.144  0.00  0.00    +0.000 A 
ATOM      7  C   UNL     1      -1.728  11.524  22.745  0.00  0.00    +0.000 A 
ATOM      8  C   UNL     1      -2.401  12.636  23.271  0.00  0.00    +0.000 A 
ATOM      9  C   UNL     1      -1.817  13.893  23.168  0.00  0.00    +0.000 A 
ATOM     10  C   UNL     1      -0.581  13.979  22.558  0.00  0.00    +0.000 A 
ATOM     11  N   UNL     1       0.102  12.915  22.057  0.00  0.00    +0.000 NA
ENDBRANCH   4   6
BRANCH   1  12
ATOM     12  S   UNL     1       1.735   8.365  18.594  0.00  0.00    +0.000 S 
BRANCH  12  13
ATOM     13  C   UNL     1       3.087   7.221  19.108  0.00  0.00    +0.000 C 
BRANCH  13  19
ATOM     14  C   UNL     1       3.579   1.337  18.192  0.00  0.00    +0.000 C 
ATOM     15  C   UNL     1       3.414   2.824  18.338  0.00  0.00    +0.000 A 
ATOM     16  C   UNL     1       4.075   3.723  17.506  0.00  0.00    +0.000 A 
ATOM     17  C   UNL     1       3.971   5.142  17.650  0.00  0.00    +0.000 A 
ATOM     18  C   UNL     1       4.693   5.919  16.583  0.00  0.00    +0.000 C 
ATOM     19  C   UNL     1       3.188   5.713  18.688  0.00  0.00    +0.000 A 
ATOM     20  C   UNL     1       2.438   4.766  19.476  0.00  0.00    +0.000 A 
ATOM     21  C   UNL     1       1.452   5.165  20.549  0.00  0.00    +0.000 C 
ATOM     22  C   UNL     1       2.589   3.360  19.312  0.00  0.00    +0.000 A 
ENDBRANCH  13  19
ENDBRANCH  12  13
ENDBRANCH   1  12
BRANCH   5  23
ATOM     23  C   UNL     1       0.009  11.201  19.115  0.00  0.00    +0.000 C 
BRANCH  23  24
ATOM     24  C   UNL     1      -1.267  10.858  18.433  0.00  0.00    +0.000 A 
ATOM     25  C   UNL     1      -1.674   9.945  17.477  0.00  0.00    +0.000 A 
ATOM     26  C   UNL     1      -3.051  10.189  17.242  0.00  0.00    +0.000 A 
ATOM     27  C   UNL     1      -3.416  11.188  18.110  0.00  0.00    +0.000 A 
ATOM     28  O   UNL     1      -2.346  11.596  18.839  0.00  0.00    +0.000 OA
ENDBRANCH  23  24
ENDBRANCH   5  23
TORSDOF 6
ENDMDL
MODEL 6
REMARK VINA RESULT:      -7.6      0.931      1.922
REMARK  Name = 
REMARK  9 active torsions:
REMARK  status: ('A' for Active; 'I' for Inactive)
REMARK    1  A    between atoms: C_1  and  C_2
REMARK    2  A    between atoms: C_4  and  C_5
REMARK    3  A    between atoms: C_6  and  C_7
REMARK    4  A    between atoms: C_7  and  S_8
REMARK    5  A    between atoms: S_8  and  C_9
REMARK    6  A    between atoms: C_12  and  C_13
REMARK    7  A    between atoms: N_19  and  C_20
REMARK    8  A    between atoms: C_20  and  C_21
REMARK    9  A    between atoms: C_26  and  C_27
REMARK                            x       y       z     vdW  Elec       q    Type
REMARK                         _______ _______ _______ _____ _____    ______ ____
ROOT
ATOM      1  C   UNL     1       2.262   7.497  19.299  0.00  0.00    +0.000 A 
ATOM      2  N   UNL     1       2.340   8.355  18.306  0.00  0.00    +0.000 NA
ATOM      3  N   UNL     1       3.267   7.890  17.396  0.00  0.00    +0.000 NA
ATOM      4  C   UNL     1       3.741   6.723  17.813  0.00  0.00    +0.000 A 
ATOM      5  N   UNL     1       3.132   6.440  19.034  0.00  0.00    +0.000 N 
ENDROOT
BRANCH   4   6
ATOM      6  C   UNL     1       4.766   5.909  17.113  0.00  0.00    +0.000 A 
ATOM      7  C   UNL     1       4.456   4.688  16.517  0.00  0.00    +0.000 A 
ATOM      8  C   UNL     1       5.472   3.940  15.905  0.00  0.00    +0.000 A 
ATOM      9  C   UNL     1       6.774   4.426  15.918  0.00  0.00    +0.000 A 
ATOM     10  C   UNL     1       6.999   5.643  16.529  0.00  0.00    +0.000 A 
ATOM     11  N   UNL     1       6.030   6.398  17.113  0.00  0.00    +0.000 NA
ENDBRANCH   4   6
BRANCH   1  12
ATOM     12  S   UNL     1       1.258   7.688  20.738  0.00  0.00    +0.000 S 
BRANCH  12  13
ATOM     13  C   UNL     1       1.514   9.432  21.281  0.00  0.00    +0.000 C 
BRANCH  13  19
ATOM     14  C   UNL     1      -2.935  13.365  20.622  0.00  0.00    +0.000 C 
ATOM     15  C   UNL     1      -1.757  12.449  20.798  0.00  0.00    +0.000 A 
ATOM     16  C   UNL     1      -0.714  12.407  19.878  0.00  0.00    +0.000 A 
ATOM     17  C   UNL     1       0.398  11.514  19.997  0.00  0.00    +0.000 A 
ATOM     18  C   UNL     1       1.452  11.707  18.941  0.00  0.00    +0.000 C 
ATOM     19  C   UNL     1       0.478  10.592  21.074  0.00  0.00    +0.000 A 
ATOM     20  C   UNL     1      -0.564  10.720  22.063  0.00  0.00    +0.000 A 
ATOM     21  C   UNL     1      -0.601   9.922  23.346  0.00  0.00    +0.000 C 
ATOM     22  C   UNL     1      -1.663  11.608  21.893  0.00  0.00    +0.000 A 
ENDBRANCH  13  19
ENDBRANCH  12  13
ENDBRANCH   1  12
BRANCH   5  23
ATOM     23  C   UNL     1       3.563   5.380  19.930  0.00  0.00    +0.000 C 
BRANCH  23  24
ATOM     24  C   UNL     1       2.596   4.260  20.084  0.00  0.00    +0.000 A 
ATOM     25  C   UNL     1       1.921   3.400  19.238  0.00  0.00    +0.000 A 
ATOM     26  C   UNL     1       1.104   2.581  20.057  0.00  0.00    +0.000 A 
ATOM     27  C   UNL     1       1.376   2.944  21.354  0.00  0.00    +0.000 A 
ATOM     28  O   UNL     1       2.281   3.955  21.381  0.00  0.00    +0.000 OA
ENDBRANCH  23  24
ENDBRANCH   5  23
TORSDOF 6
ENDMDL
MODEL 7
REMARK VINA RESULT:      -7.5      1.319      2.061
REMARK  Name = 
REMARK  9 active torsions:
REMARK  status: ('A' for Active; 'I' for Inactive)
REMARK    1  A    between atoms: C_1  and  C_2
REMARK    2  A    between atoms: C_4  and  C_5
REMARK    3  A    between atoms: C_6  and  C_7
REMARK    4  A    between atoms: C_7  and  S_8
REMARK    5  A    between atoms: S_8  and  C_9
REMARK    6  A    between atoms: C_12  and  C_13
REMARK    7  A    between atoms: N_19  and  C_20
REMARK    8  A    between atoms: C_20  and  C_21
REMARK    9  A    between atoms: C_26  and  C_27
REMARK                            x       y       z     vdW  Elec       q    Type
REMARK                         _______ _______ _______ _____ _____    ______ ____
ROOT
ATOM      1  C   UNL     1       2.163   7.819  19.398  0.00  0.00    +0.000 A 
ATOM      2  N   UNL     1       2.245   8.621  18.359  0.00  0.00    +0.000 NA
ATOM      3  N   UNL     1       3.102   8.055  17.436  0.00  0.00    +0.000 NA
ATOM      4  C   UNL     1       3.525   6.883  17.894  0.00  0.00    +0.000 A 
ATOM      5  N   UNL     1       2.956   6.699  19.153  0.00  0.00    +0.000 N 
ENDROOT
BRANCH   4   6
ATOM      6  C   UNL     1       4.468   5.975  17.195  0.00  0.00    +0.000 A 
ATOM      7  C   UNL     1       4.110   4.677  16.835  0.00  0.00    +0.000 A 
ATOM      8  C   UNL     1       5.054   3.847  16.214  0.00  0.00    +0.000 A 
ATOM      9  C   UNL     1       6.336   4.332  15.982  0.00  0.00    +0.000 A 
ATOM     10  C   UNL     1       6.612   5.628  16.369  0.00  0.00    +0.000 A 
ATOM     11  N   UNL     1       5.711   6.461  16.956  0.00  0.00    +0.000 NA
ENDBRANCH   4   6
BRANCH   1  12
ATOM     12  S   UNL     1       1.237   8.142  20.866  0.00  0.00    +0.000 S 
BRANCH  12  13
ATOM     13  C   UNL     1       0.030   9.457  20.400  0.00  0.00    +0.000 C 
BRANCH  13  19
ATOM     14  C   UNL     1      -0.363  15.078  22.388  0.00  0.00    +0.000 C 
ATOM     15  C   UNL     1      -0.170  13.671  21.896  0.00  0.00    +0.000 A 
ATOM     16  C   UNL     1       0.479  13.393  20.697  0.00  0.00    +0.000 A 
ATOM     17  C   UNL     1       0.638  12.067  20.183  0.00  0.00    +0.000 A 
ATOM     18  C   UNL     1       1.453  11.995  18.921  0.00  0.00    +0.000 C 
ATOM     19  C   UNL     1       0.107  10.949  20.879  0.00  0.00    +0.000 A 
ATOM     20  C   UNL     1      -0.476  11.252  22.163  0.00  0.00    +0.000 A 
ATOM     21  C   UNL     1      -0.988  10.199  23.118  0.00  0.00    +0.000 C 
ATOM     22  C   UNL     1      -0.632  12.589  22.626  0.00  0.00    +0.000 A 
ENDBRANCH  13  19
ENDBRANCH  12  13
ENDBRANCH   1  12
BRANCH   5  23
ATOM     23  C   UNL     1       3.364   5.661  20.084  0.00  0.00    +0.000 C 
BRANCH  23  24
ATOM     24  C   UNL     1       2.412   4.525  20.210  0.00  0.00    +0.000 A 
ATOM     25  C   UNL     1       1.548   3.849  19.369  0.00  0.00    +0.000 A 
ATOM     26  C   UNL     1       0.890   2.872  20.160  0.00  0.00    +0.000 A 
ATOM     27  C   UNL     1       1.437   2.968  21.416  0.00  0.00    +0.000 A 
ATOM     28  O   UNL     1       2.361   3.959  21.456  0.00  0.00    +0.000 OA
ENDBRANCH  23  24
ENDBRANCH   5  23
TORSDOF 6
ENDMDL
MODEL 8
REMARK VINA RESULT:      -7.5      3.129      9.525
REMARK  Name = 
REMARK  9 active torsions:
REMARK  status: ('A' for Active; 'I' for Inactive)
REMARK    1  A    between atoms: C_1  and  C_2
REMARK    2  A    between atoms: C_4  and  C_5
REMARK    3  A    between atoms: C_6  and  C_7
REMARK    4  A    between atoms: C_7  and  S_8
REMARK    5  A    between atoms: S_8  and  C_9
REMARK    6  A    between atoms: C_12  and  C_13
REMARK    7  A    between atoms: N_19  and  C_20
REMARK    8  A    between atoms: C_20  and  C_21
REMARK    9  A    between atoms: C_26  and  C_27
REMARK                            x       y       z     vdW  Elec       q    Type
REMARK                         _______ _______ _______ _____ _____    ______ ____
ROOT
ATOM      1  C   UNL     1       0.426   9.923  21.199  0.00  0.00    +0.000 A 
ATOM      2  N   UNL     1       0.529   9.422  22.411  0.00  0.00    +0.000 NA
ATOM      3  N   UNL     1      -0.159  10.241  23.284  0.00  0.00    +0.000 NA
ATOM      4  C   UNL     1      -0.716  11.235  22.602  0.00  0.00    +0.000 A 
ATOM      5  N   UNL     1      -0.358  11.074  21.265  0.00  0.00    +0.000 N 
ENDROOT
BRANCH   4   6
ATOM      6  C   UNL     1      -1.531  12.329  23.186  0.00  0.00    +0.000 A 
ATOM      7  C   UNL     1      -2.903  12.199  23.390  0.00  0.00    +0.000 A 
ATOM      8  C   UNL     1      -3.632  13.280  23.906  0.00  0.00    +0.000 A 
ATOM      9  C   UNL     1      -2.970  14.468  24.192  0.00  0.00    +0.000 A 
ATOM     10  C   UNL     1      -1.610  14.518  23.962  0.00  0.00    +0.000 A 
ATOM     11  N   UNL     1      -0.876  13.480  23.480  0.00  0.00    +0.000 NA
ENDBRANCH   4   6
BRANCH   1  12
ATOM     12  S   UNL     1       1.193   9.263  19.753  0.00  0.00    +0.000 S 
BRANCH  12  13
ATOM     13  C   UNL     1       1.812   7.597  20.249  0.00  0.00    +0.000 C 
BRANCH  13  19
ATOM     14  C   UNL     1       4.388   3.249  17.061  0.00  0.00    +0.000 C 
ATOM     15  C   UNL     1       3.688   4.364  17.786  0.00  0.00    +0.000 A 
ATOM     16  C   UNL     1       3.832   5.695  17.406  0.00  0.00    +0.000 A 
ATOM     17  C   UNL     1       3.213   6.779  18.105  0.00  0.00    +0.000 A 
ATOM     18  C   UNL     1       3.429   8.122  17.462  0.00  0.00    +0.000 C 
ATOM     19  C   UNL     1       2.423   6.543  19.261  0.00  0.00    +0.000 A 
ATOM     20  C   UNL     1       2.210   5.152  19.579  0.00  0.00    +0.000 A 
ATOM     21  C   UNL     1       1.305   4.678  20.691  0.00  0.00    +0.000 C 
ATOM     22  C   UNL     1       2.864   4.106  18.868  0.00  0.00    +0.000 A 
ENDBRANCH  13  19
ENDBRANCH  12  13
ENDBRANCH   1  12
BRANCH   5  23
ATOM     23  C   UNL     1      -0.561  12.087  20.243  0.00  0.00    +0.000 C 
BRANCH  23  24
ATOM     24  C   UNL     1      -1.778  11.897  19.409  0.00  0.00    +0.000 A 
ATOM     25  C   UNL     1      -3.124  12.185  19.528  0.00  0.00    +0.000 A 
ATOM     26  C   UNL     1      -3.753  11.684  18.359  0.00  0.00    +0.000 A 
ATOM     27  C   UNL     1      -2.747  11.181  17.571  0.00  0.00    +0.000 A 
ATOM     28  O   UNL     1      -1.549  11.310  18.194  0.00  0.00    +0.000 OA
ENDBRANCH  23  24
ENDBRANCH   5  23
TORSDOF 6
ENDMDL
MODEL 9
REMARK VINA RESULT:      -7.5      1.188      2.049
REMARK  Name = 
REMARK  9 active torsions:
REMARK  status: ('A' for Active; 'I' for Inactive)
REMARK    1  A    between atoms: C_1  and  C_2
REMARK    2  A    between atoms: C_4  and  C_5
REMARK    3  A    between atoms: C_6  and  C_7
REMARK    4  A    between atoms: C_7  and  S_8
REMARK    5  A    between atoms: S_8  and  C_9
REMARK    6  A    between atoms: C_12  and  C_13
REMARK    7  A    between atoms: N_19  and  C_20
REMARK    8  A    between atoms: C_20  and  C_21
REMARK    9  A    between atoms: C_26  and  C_27
REMARK                            x       y       z     vdW  Elec       q    Type
REMARK                         _______ _______ _______ _____ _____    ______ ____
ROOT
ATOM      1  C   UNL     1       2.085   8.062  18.977  0.00  0.00    +0.000 A 
ATOM      2  N   UNL     1       2.253   8.767  17.880  0.00  0.00    +0.000 NA
ATOM      3  N   UNL     1       3.205   8.143  17.099  0.00  0.00    +0.000 NA
ATOM      4  C   UNL     1       3.603   7.030  17.703  0.00  0.00    +0.000 A 
ATOM      5  N   UNL     1       2.919   6.946  18.914  0.00  0.00    +0.000 N 
ENDROOT
BRANCH   4   6
ATOM      6  C   UNL     1       4.626   6.087  17.185  0.00  0.00    +0.000 A 
ATOM      7  C   UNL     1       4.287   4.823  16.705  0.00  0.00    +0.000 A 
ATOM      8  C   UNL     1       5.297   3.956  16.265  0.00  0.00    +0.000 A 
ATOM      9  C   UNL     1       6.622   4.371  16.331  0.00  0.00    +0.000 A 
ATOM     10  C   UNL     1       6.876   5.637  16.820  0.00  0.00    +0.000 A 
ATOM     11  N   UNL     1       5.914   6.505  17.235  0.00  0.00    +0.000 NA
ENDBRANCH   4   6
BRANCH   1  12
ATOM     12  S   UNL     1       1.017   8.493  20.315  0.00  0.00    +0.000 S 
BRANCH  12  13
ATOM     13  C   UNL     1       0.746  10.311  20.154  0.00  0.00    +0.000 C 
BRANCH  13  19
ATOM     14  C   UNL     1      -4.697  12.713  19.607  0.00  0.00    +0.000 C 
ATOM     15  C   UNL     1      -3.302  12.157  19.667  0.00  0.00    +0.000 A 
ATOM     16  C   UNL     1      -2.801  11.318  18.676  0.00  0.00    +0.000 A 
ATOM     17  C   UNL     1      -1.494  10.739  18.730  0.00  0.00    +0.000 A 
ATOM     18  C   UNL     1      -1.128   9.942  17.507  0.00  0.00    +0.000 C 
ATOM     19  C   UNL     1      -0.636  10.982  19.835  0.00  0.00    +0.000 A 
ATOM     20  C   UNL     1      -1.139  11.928  20.800  0.00  0.00    +0.000 A 
ATOM     21  C   UNL     1      -0.339  12.420  21.984  0.00  0.00    +0.000 C 
ATOM     22  C   UNL     1      -2.455  12.464  20.718  0.00  0.00    +0.000 A 
ENDBRANCH  13  19
ENDBRANCH  12  13
ENDBRANCH   1  12
BRANCH   5  23
ATOM     23  C   UNL     1       3.254   6.009  19.973  0.00  0.00    +0.000 C 
BRANCH  23  24
ATOM     24  C   UNL     1       2.401   4.792  20.023  0.00  0.00    +0.000 A 
ATOM     25  C   UNL     1       1.103   4.497  20.395  0.00  0.00    +0.000 A 
ATOM     26  C   UNL     1       0.939   3.098  20.231  0.00  0.00    +0.000 A 
ATOM     27  C   UNL     1       2.122   2.634  19.710  0.00  0.00    +0.000 A 
ATOM     28  O   UNL     1       3.010   3.650  19.575  0.00  0.00    +0.000 OA
ENDBRANCH  23  24
ENDBRANCH   5  23
TORSDOF 6
ENDMDL
