MODEL 1
REMARK VINA RESULT:      -7.5      0.000      0.000
REMARK  Name = 
REMARK  4 active torsions:
REMARK  status: ('A' for Active; 'I' for Inactive)
REMARK    1  A    between atoms: C_6  and  N_7
REMARK    2  A    between atoms: C_8  and  O_10
REMARK    3  A    between atoms: O_10  and  C_11
REMARK    4  A    between atoms: C_11  and  C_12
REMARK                            x       y       z     vdW  Elec       q    Type
REMARK                         _______ _______ _______ _____ _____    ______ ____
ROOT
ATOM      1  N   UNL     1       5.696   4.099  17.884  0.00  0.00    +0.000 N 
ATOM      2  C   UNL     1       6.976   4.557  17.951  0.00  0.00    +0.000 C 
ATOM      3  O   UNL     1       7.496   4.970  18.978  0.00  0.00    +0.000 OA
ATOM      4  H   UNL     1       5.375   3.730  16.994  0.00  0.00    +0.000 HD
ENDROOT
BRANCH   1  10
ATOM      5  O   UNL     1       0.700   2.624  19.191  0.00  0.00    +0.000 OA
ATOM      6  C   UNL     1       1.731   3.238  19.452  0.00  0.00    +0.000 C 
ATOM      7  C   UNL     1       1.786   4.775  19.528  0.00  0.00    +0.000 C 
ATOM      8  O   UNL     1       2.894   5.412  18.896  0.00  0.00    +0.000 OA
ATOM      9  C   UNL     1       4.160   5.202  19.534  0.00  0.00    +0.000 C 
ATOM     10  C   UNL     1       4.868   3.910  19.068  0.00  0.00    +0.000 C 
ATOM     11  C   UNL     1       3.845   2.801  18.774  0.00  0.00    +0.000 C 
ATOM     12  O   UNL     1       3.882   2.126  17.747  0.00  0.00    +0.000 OA
ATOM     13  N   UNL     1       2.914   2.618  19.764  0.00  0.00    +0.000 N 
ATOM     14  H   UNL     1       3.260   2.989  20.639  0.00  0.00    +0.000 HD
ENDBRANCH   1  10
BRANCH   2  15
ATOM     15  O   UNL     1       7.548   4.512  16.727  0.00  0.00    +0.000 OA
BRANCH  15  16
ATOM     16  C   UNL     1       7.060   5.466  15.774  0.00  0.00    +0.000 C 
BRANCH  16  17
ATOM     17  C   UNL     1       6.810   4.862  14.413  0.00  0.00    +0.000 A 
ATOM     18  C   UNL     1       7.643   5.164  13.327  0.00  0.00    +0.000 A 
ATOM     19  C   UNL     1       7.461   4.534  12.095  0.00  0.00    +0.000 A 
ATOM     20  C   UNL     1       6.437   3.603  11.928  0.00  0.00    +0.000 A 
ATOM     21  C   UNL     1       5.586   3.313  12.994  0.00  0.00    +0.000 A 
ATOM     22  C   UNL     1       5.768   3.942  14.228  0.00  0.00    +0.000 A 
ENDBRANCH  16  17
ENDBRANCH  15  16
ENDBRANCH   2  15
TORSDOF 4
ENDMDL
MODEL 2
REMARK VINA RESULT:      -7.5      2.157      6.524
REMARK  Name = 
REMARK  4 active torsions:
REMARK  status: ('A' for Active; 'I' for Inactive)
REMARK    1  A    between atoms: C_6  and  N_7
REMARK    2  A    between atoms: C_8  and  O_10
REMARK    3  A    between atoms: O_10  and  C_11
REMARK    4  A    between atoms: C_11  and  C_12
REMARK                            x       y       z     vdW  Elec       q    Type
REMARK                         _______ _______ _______ _____ _____    ______ ____
ROOT
ATOM      1  N   UNL     1       5.028   5.271  17.688  0.00  0.00    +0.000 N 
ATOM      2  C   UNL     1       5.092   5.399  19.041  0.00  0.00    +0.000 C 
ATOM      3  O   UNL     1       5.880   4.782  19.745  0.00  0.00    +0.000 OA
ATOM      4  H   UNL     1       4.373   5.867  17.190  0.00  0.00    +0.000 HD
ENDROOT
BRANCH   1  10
ATOM      5  O   UNL     1       7.916   5.643  13.175  0.00  0.00    +0.000 OA
ATOM      6  C   UNL     1       7.366   4.958  14.034  0.00  0.00    +0.000 C 
ATOM      7  C   UNL     1       6.158   4.054  13.727  0.00  0.00    +0.000 C 
ATOM      8  O   UNL     1       5.076   4.088  14.655  0.00  0.00    +0.000 OA
ATOM      9  C   UNL     1       5.356   3.506  15.935  0.00  0.00    +0.000 C 
ATOM     10  C   UNL     1       6.001   4.500  16.926  0.00  0.00    +0.000 C 
ATOM     11  C   UNL     1       6.930   5.480  16.192  0.00  0.00    +0.000 C 
ATOM     12  O   UNL     1       6.896   6.693  16.386  0.00  0.00    +0.000 OA
ATOM     13  N   UNL     1       7.812   4.879  15.329  0.00  0.00    +0.000 N 
ATOM     14  H   UNL     1       7.933   3.907  15.576  0.00  0.00    +0.000 HD
ENDBRANCH   1  10
BRANCH   2  15
ATOM     15  O   UNL     1       4.149   6.268  19.469  0.00  0.00    +0.000 OA
BRANCH  15  16
ATOM     16  C   UNL     1       2.876   6.180  18.815  0.00  0.00    +0.000 C 
BRANCH  16  17
ATOM     17  C   UNL     1       2.108   4.935  19.189  0.00  0.00    +0.000 A 
ATOM     18  C   UNL     1       1.682   4.030  18.207  0.00  0.00    +0.000 A 
ATOM     19  C   UNL     1       1.052   2.838  18.565  0.00  0.00    +0.000 A 
ATOM     20  C   UNL     1       0.828   2.538  19.908  0.00  0.00    +0.000 A 
ATOM     21  C   UNL     1       1.226   3.442  20.893  0.00  0.00    +0.000 A 
ATOM     22  C   UNL     1       1.858   4.636  20.536  0.00  0.00    +0.000 A 
ENDBRANCH  16  17
ENDBRANCH  15  16
ENDBRANCH   2  15
TORSDOF 4
ENDMDL
MODEL 3
REMARK VINA RESULT:      -7.5      0.522      1.191
REMARK  Name = 
REMARK  4 active torsions:
REMARK  status: ('A' for Active; 'I' for Inactive)
REMARK    1  A    between atoms: C_6  and  N_7
REMARK    2  A    between atoms: C_8  and  O_10
REMARK    3  A    between atoms: O_10  and  C_11
REMARK    4  A    between atoms: C_11  and  C_12
REMARK                            x       y       z     vdW  Elec       q    Type
REMARK                         _______ _______ _______ _____ _____    ______ ____
ROOT
ATOM      1  N   UNL     1       5.382   3.801  18.010  0.00  0.00    +0.000 N 
ATOM      2  C   UNL     1       6.553   4.477  18.165  0.00  0.00    +0.000 C 
ATOM      3  O   UNL     1       6.869   5.059  19.193  0.00  0.00    +0.000 OA
ATOM      4  H   UNL     1       5.236   3.308  17.135  0.00  0.00    +0.000 HD
ENDROOT
BRANCH   1  10
ATOM      5  O   UNL     1       0.354   2.108  18.847  0.00  0.00    +0.000 OA
ATOM      6  C   UNL     1       1.329   2.765  19.202  0.00  0.00    +0.000 C 
ATOM      7  C   UNL     1       1.309   4.303  19.281  0.00  0.00    +0.000 C 
ATOM      8  O   UNL     1       2.443   4.989  18.754  0.00  0.00    +0.000 OA
ATOM      9  C   UNL     1       3.652   4.833  19.507  0.00  0.00    +0.000 C 
ATOM     10  C   UNL     1       4.456   3.574  19.112  0.00  0.00    +0.000 C 
ATOM     11  C   UNL     1       3.514   2.422  18.725  0.00  0.00    +0.000 C 
ATOM     12  O   UNL     1       3.676   1.751  17.708  0.00  0.00    +0.000 OA
ATOM     13  N   UNL     1       2.503   2.196  19.625  0.00  0.00    +0.000 N 
ATOM     14  H   UNL     1       2.749   2.580  20.528  0.00  0.00    +0.000 HD
ENDBRANCH   1  10
BRANCH   2  15
ATOM     15  O   UNL     1       7.271   4.427  17.021  0.00  0.00    +0.000 OA
BRANCH  15  16
ATOM     16  C   UNL     1       6.949   5.420  16.038  0.00  0.00    +0.000 C 
BRANCH  16  17
ATOM     17  C   UNL     1       6.923   4.868  14.633  0.00  0.00    +0.000 A 
ATOM     18  C   UNL     1       6.015   3.864  14.271  0.00  0.00    +0.000 A 
ATOM     19  C   UNL     1       5.935   3.421  12.950  0.00  0.00    +0.000 A 
ATOM     20  C   UNL     1       6.768   3.968  11.975  0.00  0.00    +0.000 A 
ATOM     21  C   UNL     1       7.692   4.951  12.328  0.00  0.00    +0.000 A 
ATOM     22  C   UNL     1       7.773   5.395  13.650  0.00  0.00    +0.000 A 
ENDBRANCH  16  17
ENDBRANCH  15  16
ENDBRANCH   2  15
TORSDOF 4
ENDMDL
MODEL 4
REMARK VINA RESULT:      -7.4      2.160      6.560
REMARK  Name = 
REMARK  4 active torsions:
REMARK  status: ('A' for Active; 'I' for Inactive)
REMARK    1  A    between atoms: C_6  and  N_7
REMARK    2  A    between atoms: C_8  and  O_10
REMARK    3  A    between atoms: O_10  and  C_11
REMARK    4  A    between atoms: C_11  and  C_12
REMARK                            x       y       z     vdW  Elec       q    Type
REMARK                         _______ _______ _______ _____ _____    ______ ____
ROOT
ATOM      1  N   UNL     1       5.021   5.310  17.675  0.00  0.00    +0.000 N 
ATOM      2  C   UNL     1       5.047   5.411  19.032  0.00  0.00    +0.000 C 
ATOM      3  O   UNL     1       5.803   4.766  19.746  0.00  0.00    +0.000 OA
ATOM      4  H   UNL     1       4.392   5.928  17.170  0.00  0.00    +0.000 HD
ENDROOT
BRANCH   1  10
ATOM      5  O   UNL     1       7.933   5.643  13.175  0.00  0.00    +0.000 OA
ATOM      6  C   UNL     1       7.380   4.966  14.038  0.00  0.00    +0.000 C 
ATOM      7  C   UNL     1       6.176   4.055  13.733  0.00  0.00    +0.000 C 
ATOM      8  O   UNL     1       5.089   4.096  14.655  0.00  0.00    +0.000 OA
ATOM      9  C   UNL     1       5.363   3.528  15.942  0.00  0.00    +0.000 C 
ATOM     10  C   UNL     1       6.000   4.534  16.927  0.00  0.00    +0.000 C 
ATOM     11  C   UNL     1       6.931   5.509  16.188  0.00  0.00    +0.000 C 
ATOM     12  O   UNL     1       6.892   6.724  16.369  0.00  0.00    +0.000 OA
ATOM     13  N   UNL     1       7.819   4.902  15.336  0.00  0.00    +0.000 N 
ATOM     14  H   UNL     1       7.941   3.932  15.595  0.00  0.00    +0.000 HD
ENDBRANCH   1  10
BRANCH   2  15
ATOM     15  O   UNL     1       4.110   6.291  19.449  0.00  0.00    +0.000 OA
BRANCH  15  16
ATOM     16  C   UNL     1       2.812   6.147  18.858  0.00  0.00    +0.000 C 
BRANCH  16  17
ATOM     17  C   UNL     1       2.138   4.847  19.230  0.00  0.00    +0.000 A 
ATOM     18  C   UNL     1       1.895   4.520  20.571  0.00  0.00    +0.000 A 
ATOM     19  C   UNL     1       1.194   3.361  20.904  0.00  0.00    +0.000 A 
ATOM     20  C   UNL     1       0.736   2.506  19.903  0.00  0.00    +0.000 A 
ATOM     21  C   UNL     1       0.992   2.808  18.566  0.00  0.00    +0.000 A 
ATOM     22  C   UNL     1       1.694   3.969  18.231  0.00  0.00    +0.000 A 
ENDBRANCH  16  17
ENDBRANCH  15  16
ENDBRANCH   2  15
TORSDOF 4
ENDMDL
MODEL 5
REMARK VINA RESULT:      -7.2      1.839      2.565
REMARK  Name = 
REMARK  4 active torsions:
REMARK  status: ('A' for Active; 'I' for Inactive)
REMARK    1  A    between atoms: C_6  and  N_7
REMARK    2  A    between atoms: C_8  and  O_10
REMARK    3  A    between atoms: O_10  and  C_11
REMARK    4  A    between atoms: C_11  and  C_12
REMARK                            x       y       z     vdW  Elec       q    Type
REMARK                         _______ _______ _______ _____ _____    ______ ____
ROOT
ATOM      1  N   UNL     1       3.850   5.137  17.432  0.00  0.00    +0.000 N 
ATOM      2  C   UNL     1       4.708   6.135  17.086  0.00  0.00    +0.000 C 
ATOM      3  O   UNL     1       4.561   7.302  17.423  0.00  0.00    +0.000 OA
ATOM      4  H   UNL     1       4.089   4.192  17.145  0.00  0.00    +0.000 HD
ENDROOT
BRANCH   1  10
ATOM      5  O   UNL     1       2.193   3.363  22.222  0.00  0.00    +0.000 OA
ATOM      6  C   UNL     1       1.943   3.851  21.123  0.00  0.00    +0.000 C 
ATOM      7  C   UNL     1       1.118   3.110  20.054  0.00  0.00    +0.000 C 
ATOM      8  O   UNL     1       1.610   3.154  18.716  0.00  0.00    +0.000 OA
ATOM      9  C   UNL     1       1.530   4.436  18.082  0.00  0.00    +0.000 C 
ATOM     10  C   UNL     1       2.754   5.335  18.370  0.00  0.00    +0.000 C 
ATOM     11  C   UNL     1       3.283   5.098  19.793  0.00  0.00    +0.000 C 
ATOM     12  O   UNL     1       4.476   4.928  20.034  0.00  0.00    +0.000 OA
ATOM     13  N   UNL     1       2.314   5.122  20.765  0.00  0.00    +0.000 N 
ATOM     14  H   UNL     1       1.500   5.621  20.433  0.00  0.00    +0.000 HD
ENDBRANCH   1  10
BRANCH   2  15
ATOM     15  O   UNL     1       5.698   5.646  16.308  0.00  0.00    +0.000 OA
BRANCH  15  16
ATOM     16  C   UNL     1       5.399   4.432  15.606  0.00  0.00    +0.000 C 
BRANCH  16  17
ATOM     17  C   UNL     1       6.108   4.332  14.276  0.00  0.00    +0.000 A 
ATOM     18  C   UNL     1       5.635   3.478  13.271  0.00  0.00    +0.000 A 
ATOM     19  C   UNL     1       6.241   3.457  12.014  0.00  0.00    +0.000 A 
ATOM     20  C   UNL     1       7.335   4.279  11.748  0.00  0.00    +0.000 A 
ATOM     21  C   UNL     1       7.830   5.115  12.749  0.00  0.00    +0.000 A 
ATOM     22  C   UNL     1       7.223   5.138  14.007  0.00  0.00    +0.000 A 
ENDBRANCH  16  17
ENDBRANCH  15  16
ENDBRANCH   2  15
TORSDOF 4
ENDMDL
MODEL 6
REMARK VINA RESULT:      -7.1      1.792      2.414
REMARK  Name = 
REMARK  4 active torsions:
REMARK  status: ('A' for Active; 'I' for Inactive)
REMARK    1  A    between atoms: C_6  and  N_7
REMARK    2  A    between atoms: C_8  and  O_10
REMARK    3  A    between atoms: O_10  and  C_11
REMARK    4  A    between atoms: C_11  and  C_12
REMARK                            x       y       z     vdW  Elec       q    Type
REMARK                         _______ _______ _______ _____ _____    ______ ____
ROOT
ATOM      1  N   UNL     1       4.022   5.118  17.448  0.00  0.00    +0.000 N 
ATOM      2  C   UNL     1       4.507   6.309  17.003  0.00  0.00    +0.000 C 
ATOM      3  O   UNL     1       3.934   7.378  17.164  0.00  0.00    +0.000 OA
ATOM      4  H   UNL     1       4.600   4.294  17.309  0.00  0.00    +0.000 HD
ENDROOT
BRANCH   1  10
ATOM      5  O   UNL     1       2.521   2.941  22.123  0.00  0.00    +0.000 OA
ATOM      6  C   UNL     1       2.238   3.356  21.002  0.00  0.00    +0.000 C 
ATOM      7  C   UNL     1       1.715   2.436  19.884  0.00  0.00    +0.000 C 
ATOM      8  O   UNL     1       2.278   2.615  18.586  0.00  0.00    +0.000 OA
ATOM      9  C   UNL     1       1.919   3.838  17.931  0.00  0.00    +0.000 C 
ATOM     10  C   UNL     1       2.844   5.020  18.299  0.00  0.00    +0.000 C 
ATOM     11  C   UNL     1       3.308   4.917  19.761  0.00  0.00    +0.000 C 
ATOM     12  O   UNL     1       4.483   5.058  20.092  0.00  0.00    +0.000 OA
ATOM     13  N   UNL     1       2.295   4.683  20.657  0.00  0.00    +0.000 N 
ATOM     14  H   UNL     1       1.408   4.958  20.259  0.00  0.00    +0.000 HD
ENDBRANCH   1  10
BRANCH   2  15
ATOM     15  O   UNL     1       5.673   6.118  16.347  0.00  0.00    +0.000 OA
BRANCH  15  16
ATOM     16  C   UNL     1       5.977   4.762  15.997  0.00  0.00    +0.000 C 
BRANCH  16  17
ATOM     17  C   UNL     1       6.338   4.598  14.539  0.00  0.00    +0.000 A 
ATOM     18  C   UNL     1       7.425   5.288  13.985  0.00  0.00    +0.000 A 
ATOM     19  C   UNL     1       7.807   5.065  12.661  0.00  0.00    +0.000 A 
ATOM     20  C   UNL     1       7.101   4.160  11.870  0.00  0.00    +0.000 A 
ATOM     21  C   UNL     1       6.003   3.486  12.403  0.00  0.00    +0.000 A 
ATOM     22  C   UNL     1       5.620   3.708  13.729  0.00  0.00    +0.000 A 
ENDBRANCH  16  17
ENDBRANCH  15  16
ENDBRANCH   2  15
TORSDOF 4
ENDMDL
MODEL 7
REMARK VINA RESULT:      -7.0      1.821      2.606
REMARK  Name = 
REMARK  4 active torsions:
REMARK  status: ('A' for Active; 'I' for Inactive)
REMARK    1  A    between atoms: C_6  and  N_7
REMARK    2  A    between atoms: C_8  and  O_10
REMARK    3  A    between atoms: O_10  and  C_11
REMARK    4  A    between atoms: C_11  and  C_12
REMARK                            x       y       z     vdW  Elec       q    Type
REMARK                         _______ _______ _______ _____ _____    ______ ____
ROOT
ATOM      1  N   UNL     1       4.062   5.337  17.029  0.00  0.00    +0.000 N 
ATOM      2  C   UNL     1       4.544   6.599  16.865  0.00  0.00    +0.000 C 
ATOM      3  O   UNL     1       4.069   7.584  17.414  0.00  0.00    +0.000 OA
ATOM      4  H   UNL     1       4.560   4.581  16.570  0.00  0.00    +0.000 HD
ENDROOT
BRANCH   1  10
ATOM      5  O   UNL     1       3.364   2.347  21.435  0.00  0.00    +0.000 OA
ATOM      6  C   UNL     1       2.902   2.908  20.445  0.00  0.00    +0.000 C 
ATOM      7  C   UNL     1       2.280   2.134  19.268  0.00  0.00    +0.000 C 
ATOM      8  O   UNL     1       2.643   2.557  17.955  0.00  0.00    +0.000 OA
ATOM      9  C   UNL     1       2.125   3.835  17.564  0.00  0.00    +0.000 C 
ATOM     10  C   UNL     1       3.023   5.014  17.998  0.00  0.00    +0.000 C 
ATOM     11  C   UNL     1       3.694   4.722  19.350  0.00  0.00    +0.000 C 
ATOM     12  O   UNL     1       4.894   4.904  19.543  0.00  0.00    +0.000 OA
ATOM     13  N   UNL     1       2.834   4.272  20.319  0.00  0.00    +0.000 N 
ATOM     14  H   UNL     1       1.884   4.534  20.091  0.00  0.00    +0.000 HD
ENDBRANCH   1  10
BRANCH   2  15
ATOM     15  O   UNL     1       5.583   6.589  16.001  0.00  0.00    +0.000 OA
BRANCH  15  16
ATOM     16  C   UNL     1       6.369   5.390  15.983  0.00  0.00    +0.000 C 
BRANCH  16  17
ATOM     17  C   UNL     1       6.571   4.841  14.591  0.00  0.00    +0.000 A 
ATOM     18  C   UNL     1       5.714   3.861  14.072  0.00  0.00    +0.000 A 
ATOM     19  C   UNL     1       5.852   3.422  12.755  0.00  0.00    +0.000 A 
ATOM     20  C   UNL     1       6.854   3.947  11.941  0.00  0.00    +0.000 A 
ATOM     21  C   UNL     1       7.728   4.905  12.454  0.00  0.00    +0.000 A 
ATOM     22  C   UNL     1       7.591   5.346  13.772  0.00  0.00    +0.000 A 
ENDBRANCH  16  17
ENDBRANCH  15  16
ENDBRANCH   2  15
TORSDOF 4
ENDMDL
MODEL 8
REMARK VINA RESULT:      -7.0      1.126      1.156
REMARK  Name = 
REMARK  4 active torsions:
REMARK  status: ('A' for Active; 'I' for Inactive)
REMARK    1  A    between atoms: C_6  and  N_7
REMARK    2  A    between atoms: C_8  and  O_10
REMARK    3  A    between atoms: O_10  and  C_11
REMARK    4  A    between atoms: C_11  and  C_12
REMARK                            x       y       z     vdW  Elec       q    Type
REMARK                         _______ _______ _______ _____ _____    ______ ____
ROOT
ATOM      1  N   UNL     1       4.776   4.296  17.663  0.00  0.00    +0.000 N 
ATOM      2  C   UNL     1       6.093   4.635  17.718  0.00  0.00    +0.000 C 
ATOM      3  O   UNL     1       6.853   4.262  18.601  0.00  0.00    +0.000 OA
ATOM      4  H   UNL     1       4.242   4.614  16.860  0.00  0.00    +0.000 HD
ENDROOT
BRANCH   1  10
ATOM      5  O   UNL     1      -0.033   2.207  18.827  0.00  0.00    +0.000 OA
ATOM      6  C   UNL     1       1.111   2.498  19.166  0.00  0.00    +0.000 C 
ATOM      7  C   UNL     1       1.415   3.563  20.235  0.00  0.00    +0.000 C 
ATOM      8  O   UNL     1       2.462   4.487  19.945  0.00  0.00    +0.000 OA
ATOM      9  C   UNL     1       3.781   3.927  19.937  0.00  0.00    +0.000 C 
ATOM     10  C   UNL     1       4.177   3.326  18.570  0.00  0.00    +0.000 C 
ATOM     11  C   UNL     1       2.959   2.698  17.874  0.00  0.00    +0.000 C 
ATOM     12  O   UNL     1       2.689   2.913  16.695  0.00  0.00    +0.000 OA
ATOM     13  N   UNL     1       2.223   1.861  18.675  0.00  0.00    +0.000 N 
ATOM     14  H   UNL     1       2.786   1.538  19.451  0.00  0.00    +0.000 HD
ENDBRANCH   1  10
BRANCH   2  15
ATOM     15  O   UNL     1       6.404   5.450  16.686  0.00  0.00    +0.000 OA
BRANCH  15  16
ATOM     16  C   UNL     1       5.449   5.499  15.618  0.00  0.00    +0.000 C 
BRANCH  16  17
ATOM     17  C   UNL     1       5.986   4.938  14.323  0.00  0.00    +0.000 A 
ATOM     18  C   UNL     1       7.234   5.340  13.828  0.00  0.00    +0.000 A 
ATOM     19  C   UNL     1       7.764   4.752  12.678  0.00  0.00    +0.000 A 
ATOM     20  C   UNL     1       7.050   3.765  12.002  0.00  0.00    +0.000 A 
ATOM     21  C   UNL     1       5.797   3.374  12.472  0.00  0.00    +0.000 A 
ATOM     22  C   UNL     1       5.265   3.961  13.623  0.00  0.00    +0.000 A 
ENDBRANCH  16  17
ENDBRANCH  15  16
ENDBRANCH   2  15
TORSDOF 4
ENDMDL
MODEL 9
REMARK VINA RESULT:      -6.9      2.804      6.782
REMARK  Name = 
REMARK  4 active torsions:
REMARK  status: ('A' for Active; 'I' for Inactive)
REMARK    1  A    between atoms: C_6  and  N_7
REMARK    2  A    between atoms: C_8  and  O_10
REMARK    3  A    between atoms: O_10  and  C_11
REMARK    4  A    between atoms: C_11  and  C_12
REMARK                            x       y       z     vdW  Elec       q    Type
REMARK                         _______ _______ _______ _____ _____    ______ ____
ROOT
ATOM      1  N   UNL     1       5.042   5.267  18.275  0.00  0.00    +0.000 N 
ATOM      2  C   UNL     1       4.364   4.793  19.355  0.00  0.00    +0.000 C 
ATOM      3  O   UNL     1       4.280   3.605  19.636  0.00  0.00    +0.000 OA
ATOM      4  H   UNL     1       5.096   6.274  18.159  0.00  0.00    +0.000 HD
ENDROOT
BRANCH   1  10
ATOM      5  O   UNL     1       7.953   5.553  13.770  0.00  0.00    +0.000 OA
ATOM      6  C   UNL     1       7.293   4.896  14.571  0.00  0.00    +0.000 C 
ATOM      7  C   UNL     1       5.947   4.246  14.202  0.00  0.00    +0.000 C 
ATOM      8  O   UNL     1       4.887   4.379  15.146  0.00  0.00    +0.000 OA
ATOM      9  C   UNL     1       5.061   3.642  16.363  0.00  0.00    +0.000 C 
ATOM     10  C   UNL     1       5.868   4.414  17.431  0.00  0.00    +0.000 C 
ATOM     11  C   UNL     1       6.953   5.283  16.774  0.00  0.00    +0.000 C 
ATOM     12  O   UNL     1       7.128   6.460  17.079  0.00  0.00    +0.000 OA
ATOM     13  N   UNL     1       7.718   4.622  15.846  0.00  0.00    +0.000 N 
ATOM     14  H   UNL     1       7.669   3.624  16.002  0.00  0.00    +0.000 HD
ENDBRANCH   1  10
BRANCH   2  15
ATOM     15  O   UNL     1       3.790   5.816  20.026  0.00  0.00    +0.000 OA
BRANCH  15  16
ATOM     16  C   UNL     1       2.375   5.962  19.852  0.00  0.00    +0.000 C 
BRANCH  16  17
ATOM     17  C   UNL     1       1.974   7.361  19.449  0.00  0.00    +0.000 A 
ATOM     18  C   UNL     1       1.342   8.219  20.359  0.00  0.00    +0.000 A 
ATOM     19  C   UNL     1       1.055   9.539  20.010  0.00  0.00    +0.000 A 
ATOM     20  C   UNL     1       1.384  10.017  18.742  0.00  0.00    +0.000 A 
ATOM     21  C   UNL     1       1.992   9.165  17.820  0.00  0.00    +0.000 A 
ATOM     22  C   UNL     1       2.281   7.844  18.169  0.00  0.00    +0.000 A 
ENDBRANCH  16  17
ENDBRANCH  15  16
ENDBRANCH   2  15
TORSDOF 4
ENDMDL
