MODEL 1
REMARK VINA RESULT:      -8.7      0.000      0.000
REMARK  Name = 
REMARK  2 active torsions:
REMARK  status: ('A' for Active; 'I' for Inactive)
REMARK    1  A    between atoms: C_5  and  C_6
REMARK    2  A    between atoms: C_11  and  C_12
REMARK                            x       y       z     vdW  Elec       q    Type
REMARK                         _______ _______ _______ _____ _____    ______ ____
ROOT
ATOM      1  C   UNL     1       2.529   6.394  19.630  0.00  0.00    +0.000 A 
ATOM      2  C   UNL     1       2.693   7.007  18.370  0.00  0.00    +0.000 A 
ATOM      3  C   UNL     1       2.190   8.287  18.103  0.00  0.00    +0.000 A 
ATOM      4  C   UNL     1       1.516   8.949  19.131  0.00  0.00    +0.000 A 
ATOM      5  N   UNL     1       0.939  10.184  19.165  0.00  0.00    +0.000 NA
ATOM      6  C   UNL     1       0.474  10.288  20.396  0.00  0.00    +0.000 A 
ATOM      7  O   UNL     1       0.698   9.182  21.182  0.00  0.00    +0.000 OA
ATOM      8  C   UNL     1       1.371   8.324  20.358  0.00  0.00    +0.000 A 
ATOM      9  C   UNL     1       1.849   7.054  20.666  0.00  0.00    +0.000 A 
ENDROOT
BRANCH   1  14
ATOM     10  O   UNL     1       5.141   1.495  20.324  0.00  0.00    +0.000 OA
ATOM     11  C   UNL     1       4.405   2.468  20.135  0.00  0.00    +0.000 C 
ATOM     12  N   UNL     1       4.879   3.566  19.448  0.00  0.00    +0.000 N 
ATOM     13  N   UNL     1       4.262   4.766  19.254  0.00  0.00    +0.000 NA
ATOM     14  C   UNL     1       3.132   5.040  19.838  0.00  0.00    +0.000 C 
ATOM     15  C   UNL     1       2.406   4.008  20.763  0.00  0.00    +0.000 C 
ATOM     16  C   UNL     1       1.036   3.426  20.316  0.00  0.00    +0.000 C 
ATOM     17  C   UNL     1       1.826   2.333  19.577  0.00  0.00    +0.000 C 
ATOM     18  C   UNL     1       2.955   2.565  20.619  0.00  0.00    +0.000 C 
ATOM     19  H   UNL     1       5.813   3.481  19.061  0.00  0.00    +0.000 HD
ENDBRANCH   1  14
BRANCH   6  20
ATOM     20  C   UNL     1      -0.223  11.417  21.002  0.00  0.00    +0.000 A 
ATOM     21  C   UNL     1      -0.702  11.294  22.315  0.00  0.00    +0.000 A 
ATOM     22  C   UNL     1      -1.392  12.337  22.932  0.00  0.00    +0.000 A 
ATOM     23  C   UNL     1      -1.613  13.523  22.238  0.00  0.00    +0.000 A 
ATOM     24  C   UNL     1      -1.142  13.666  20.934  0.00  0.00    +0.000 A 
ATOM     25  C   UNL     1      -0.449  12.620  20.318  0.00  0.00    +0.000 A 
ENDBRANCH   6  20
TORSDOF 2
ENDMDL
MODEL 2
REMARK VINA RESULT:      -8.7      1.032      1.204
REMARK  Name = 
REMARK  2 active torsions:
REMARK  status: ('A' for Active; 'I' for Inactive)
REMARK    1  A    between atoms: C_5  and  C_6
REMARK    2  A    between atoms: C_11  and  C_12
REMARK                            x       y       z     vdW  Elec       q    Type
REMARK                         _______ _______ _______ _____ _____    ______ ____
ROOT
ATOM      1  C   UNL     1       2.984   6.238  19.108  0.00  0.00    +0.000 A 
ATOM      2  C   UNL     1       3.450   6.741  17.875  0.00  0.00    +0.000 A 
ATOM      3  C   UNL     1       3.068   8.003  17.402  0.00  0.00    +0.000 A 
ATOM      4  C   UNL     1       2.206   8.762  18.197  0.00  0.00    +0.000 A 
ATOM      5  N   UNL     1       1.682  10.006  18.002  0.00  0.00    +0.000 NA
ATOM      6  C   UNL     1       0.957  10.222  19.084  0.00  0.00    +0.000 A 
ATOM      7  O   UNL     1       0.957   9.181  19.983  0.00  0.00    +0.000 OA
ATOM      8  C   UNL     1       1.765   8.245  19.402  0.00  0.00    +0.000 A 
ATOM      9  C   UNL     1       2.114   6.996  19.908  0.00  0.00    +0.000 A 
ENDROOT
BRANCH   1  14
ATOM     10  O   UNL     1       5.186   1.338  20.668  0.00  0.00    +0.000 OA
ATOM     11  C   UNL     1       4.534   2.319  20.301  0.00  0.00    +0.000 C 
ATOM     12  N   UNL     1       5.108   3.252  19.464  0.00  0.00    +0.000 N 
ATOM     13  N   UNL     1       4.592   4.447  19.059  0.00  0.00    +0.000 NA
ATOM     14  C   UNL     1       3.474   4.895  19.551  0.00  0.00    +0.000 C 
ATOM     15  C   UNL     1       2.648   4.084  20.604  0.00  0.00    +0.000 C 
ATOM     16  C   UNL     1       1.247   3.540  20.208  0.00  0.00    +0.000 C 
ATOM     17  C   UNL     1       1.965   2.286  19.681  0.00  0.00    +0.000 C 
ATOM     18  C   UNL     1       3.086   2.600  20.712  0.00  0.00    +0.000 C 
ATOM     19  H   UNL     1       6.041   3.037  19.128  0.00  0.00    +0.000 HD
ENDBRANCH   1  14
BRANCH   6  20
ATOM     20  C   UNL     1       0.185  11.410  19.427  0.00  0.00    +0.000 A 
ATOM     21  C   UNL     1      -0.832  11.305  20.388  0.00  0.00    +0.000 A 
ATOM     22  C   UNL     1      -1.612  12.408  20.737  0.00  0.00    +0.000 A 
ATOM     23  C   UNL     1      -1.383  13.636  20.123  0.00  0.00    +0.000 A 
ATOM     24  C   UNL     1      -0.375  13.761  19.168  0.00  0.00    +0.000 A 
ATOM     25  C   UNL     1       0.407  12.656  18.822  0.00  0.00    +0.000 A 
ENDBRANCH   6  20
TORSDOF 2
ENDMDL
MODEL 3
REMARK VINA RESULT:      -8.6      0.503      1.094
REMARK  Name = 
REMARK  2 active torsions:
REMARK  status: ('A' for Active; 'I' for Inactive)
REMARK    1  A    between atoms: C_5  and  C_6
REMARK    2  A    between atoms: C_11  and  C_12
REMARK                            x       y       z     vdW  Elec       q    Type
REMARK                         _______ _______ _______ _____ _____    ______ ____
ROOT
ATOM      1  C   UNL     1       2.329   6.841  19.624  0.00  0.00    +0.000 A 
ATOM      2  C   UNL     1       2.496   7.493  18.383  0.00  0.00    +0.000 A 
ATOM      3  C   UNL     1       1.979   8.774  18.148  0.00  0.00    +0.000 A 
ATOM      4  C   UNL     1       1.288   9.397  19.189  0.00  0.00    +0.000 A 
ATOM      5  N   UNL     1       0.694  10.623  19.252  0.00  0.00    +0.000 NA
ATOM      6  C   UNL     1       0.217  10.686  20.481  0.00  0.00    +0.000 A 
ATOM      7  O   UNL     1       0.448   9.560  21.237  0.00  0.00    +0.000 OA
ATOM      8  C   UNL     1       1.140   8.736  20.395  0.00  0.00    +0.000 A 
ATOM      9  C   UNL     1       1.631   7.463  20.671  0.00  0.00    +0.000 A 
ENDROOT
BRANCH   1  14
ATOM     10  O   UNL     1       4.995   1.956  20.187  0.00  0.00    +0.000 OA
ATOM     11  C   UNL     1       4.248   2.925  20.029  0.00  0.00    +0.000 C 
ATOM     12  N   UNL     1       4.697   4.036  19.348  0.00  0.00    +0.000 N 
ATOM     13  N   UNL     1       4.066   5.234  19.185  0.00  0.00    +0.000 NA
ATOM     14  C   UNL     1       2.947   5.490  19.798  0.00  0.00    +0.000 C 
ATOM     15  C   UNL     1       2.251   4.439  20.725  0.00  0.00    +0.000 C 
ATOM     16  C   UNL     1       0.876   3.852  20.300  0.00  0.00    +0.000 C 
ATOM     17  C   UNL     1       1.658   2.776  19.527  0.00  0.00    +0.000 C 
ATOM     18  C   UNL     1       2.809   3.003  20.547  0.00  0.00    +0.000 C 
ATOM     19  H   UNL     1       5.623   3.965  18.938  0.00  0.00    +0.000 HD
ENDBRANCH   1  14
BRANCH   6  20
ATOM     20  C   UNL     1      -0.499  11.788  21.113  0.00  0.00    +0.000 A 
ATOM     21  C   UNL     1      -0.934  12.859  20.317  0.00  0.00    +0.000 A 
ATOM     22  C   UNL     1      -1.605  13.947  20.875  0.00  0.00    +0.000 A 
ATOM     23  C   UNL     1      -1.850  13.977  22.245  0.00  0.00    +0.000 A 
ATOM     24  C   UNL     1      -1.429  12.921  23.052  0.00  0.00    +0.000 A 
ATOM     25  C   UNL     1      -0.758  11.831  22.490  0.00  0.00    +0.000 A 
ENDBRANCH   6  20
TORSDOF 2
ENDMDL
MODEL 4
REMARK VINA RESULT:      -8.5      2.961      3.793
REMARK  Name = 
REMARK  2 active torsions:
REMARK  status: ('A' for Active; 'I' for Inactive)
REMARK    1  A    between atoms: C_5  and  C_6
REMARK    2  A    between atoms: C_11  and  C_12
REMARK                            x       y       z     vdW  Elec       q    Type
REMARK                         _______ _______ _______ _____ _____    ______ ____
ROOT
ATOM      1  C   UNL     1       3.611   5.938  18.411  0.00  0.00    +0.000 A 
ATOM      2  C   UNL     1       3.246   5.051  19.446  0.00  0.00    +0.000 A 
ATOM      3  C   UNL     1       2.379   5.439  20.476  0.00  0.00    +0.000 A 
ATOM      4  C   UNL     1       1.878   6.741  20.450  0.00  0.00    +0.000 A 
ATOM      5  N   UNL     1       1.024   7.382  21.298  0.00  0.00    +0.000 NA
ATOM      6  C   UNL     1       0.888   8.585  20.769  0.00  0.00    +0.000 A 
ATOM      7  O   UNL     1       1.619   8.785  19.621  0.00  0.00    +0.000 OA
ATOM      8  C   UNL     1       2.253   7.590  19.423  0.00  0.00    +0.000 A 
ATOM      9  C   UNL     1       3.113   7.251  18.384  0.00  0.00    +0.000 A 
ENDROOT
BRANCH   1  14
ATOM     10  O   UNL     1       6.658   3.868  14.201  0.00  0.00    +0.000 OA
ATOM     11  C   UNL     1       6.153   4.323  15.231  0.00  0.00    +0.000 C 
ATOM     12  N   UNL     1       4.899   3.906  15.626  0.00  0.00    +0.000 N 
ATOM     13  N   UNL     1       4.139   4.383  16.651  0.00  0.00    +0.000 NA
ATOM     14  C   UNL     1       4.513   5.427  17.332  0.00  0.00    +0.000 C 
ATOM     15  C   UNL     1       5.857   6.172  17.036  0.00  0.00    +0.000 C 
ATOM     16  C   UNL     1       6.983   6.150  18.107  0.00  0.00    +0.000 C 
ATOM     17  C   UNL     1       7.469   4.841  17.463  0.00  0.00    +0.000 C 
ATOM     18  C   UNL     1       6.826   5.352  16.144  0.00  0.00    +0.000 C 
ATOM     19  H   UNL     1       4.477   3.171  15.067  0.00  0.00    +0.000 HD
ENDBRANCH   1  14
BRANCH   6  20
ATOM     20  C   UNL     1       0.066   9.690  21.248  0.00  0.00    +0.000 A 
ATOM     21  C   UNL     1      -0.296   9.729  22.603  0.00  0.00    +0.000 A 
ATOM     22  C   UNL     1      -1.097  10.753  23.107  0.00  0.00    +0.000 A 
ATOM     23  C   UNL     1      -1.549  11.757  22.255  0.00  0.00    +0.000 A 
ATOM     24  C   UNL     1      -1.197  11.738  20.906  0.00  0.00    +0.000 A 
ATOM     25  C   UNL     1      -0.392  10.712  20.404  0.00  0.00    +0.000 A 
ENDBRANCH   6  20
TORSDOF 2
ENDMDL
MODEL 5
REMARK VINA RESULT:      -8.4      1.122      1.178
REMARK  Name = 
REMARK  2 active torsions:
REMARK  status: ('A' for Active; 'I' for Inactive)
REMARK    1  A    between atoms: C_5  and  C_6
REMARK    2  A    between atoms: C_11  and  C_12
REMARK                            x       y       z     vdW  Elec       q    Type
REMARK                         _______ _______ _______ _____ _____    ______ ____
ROOT
ATOM      1  C   UNL     1       2.336   6.956  19.354  0.00  0.00    +0.000 A 
ATOM      2  C   UNL     1       2.328   7.684  18.145  0.00  0.00    +0.000 A 
ATOM      3  C   UNL     1       1.804   8.981  18.070  0.00  0.00    +0.000 A 
ATOM      4  C   UNL     1       1.287   9.543  19.238  0.00  0.00    +0.000 A 
ATOM      5  N   UNL     1       0.731  10.768  19.465  0.00  0.00    +0.000 NA
ATOM      6  C   UNL     1       0.444  10.756  20.754  0.00  0.00    +0.000 A 
ATOM      7  O   UNL     1       0.765   9.583  21.396  0.00  0.00    +0.000 OA
ATOM      8  C   UNL     1       1.308   8.807  20.410  0.00  0.00    +0.000 A 
ATOM      9  C   UNL     1       1.813   7.516  20.530  0.00  0.00    +0.000 A 
ENDROOT
BRANCH   1  14
ATOM     10  O   UNL     1       4.925   2.002  19.564  0.00  0.00    +0.000 OA
ATOM     11  C   UNL     1       4.270   3.027  19.355  0.00  0.00    +0.000 C 
ATOM     12  N   UNL     1       4.834   4.263  19.588  0.00  0.00    +0.000 N 
ATOM     13  N   UNL     1       4.233   5.485  19.534  0.00  0.00    +0.000 NA
ATOM     14  C   UNL     1       2.949   5.591  19.350  0.00  0.00    +0.000 C 
ATOM     15  C   UNL     1       2.034   4.338  19.152  0.00  0.00    +0.000 C 
ATOM     16  C   UNL     1       1.334   4.123  17.781  0.00  0.00    +0.000 C 
ATOM     17  C   UNL     1       2.601   3.372  17.336  0.00  0.00    +0.000 C 
ATOM     18  C   UNL     1       2.829   3.044  18.838  0.00  0.00    +0.000 C 
ATOM     19  H   UNL     1       5.813   4.263  19.860  0.00  0.00    +0.000 HD
ENDBRANCH   1  14
BRANCH   6  20
ATOM     20  C   UNL     1      -0.151  11.822  21.552  0.00  0.00    +0.000 A 
ATOM     21  C   UNL     1      -1.152  11.497  22.480  0.00  0.00    +0.000 A 
ATOM     22  C   UNL     1      -1.766  12.482  23.253  0.00  0.00    +0.000 A 
ATOM     23  C   UNL     1      -1.385  13.812  23.105  0.00  0.00    +0.000 A 
ATOM     24  C   UNL     1      -0.390  14.155  22.190  0.00  0.00    +0.000 A 
ATOM     25  C   UNL     1       0.226  13.166  21.418  0.00  0.00    +0.000 A 
ENDBRANCH   6  20
TORSDOF 2
ENDMDL
MODEL 6
REMARK VINA RESULT:      -8.3      2.721      3.785
REMARK  Name = 
REMARK  2 active torsions:
REMARK  status: ('A' for Active; 'I' for Inactive)
REMARK    1  A    between atoms: C_5  and  C_6
REMARK    2  A    between atoms: C_11  and  C_12
REMARK                            x       y       z     vdW  Elec       q    Type
REMARK                         _______ _______ _______ _____ _____    ______ ____
ROOT
ATOM      1  C   UNL     1       3.261   6.228  18.445  0.00  0.00    +0.000 A 
ATOM      2  C   UNL     1       2.924   5.412  19.546  0.00  0.00    +0.000 A 
ATOM      3  C   UNL     1       2.103   5.875  20.582  0.00  0.00    +0.000 A 
ATOM      4  C   UNL     1       1.618   7.181  20.494  0.00  0.00    +0.000 A 
ATOM      5  N   UNL     1       0.806   7.886  21.332  0.00  0.00    +0.000 NA
ATOM      6  C   UNL     1       0.665   9.056  20.736  0.00  0.00    +0.000 A 
ATOM      7  O   UNL     1       1.354   9.174  19.551  0.00  0.00    +0.000 OA
ATOM      8  C   UNL     1       1.964   7.960  19.403  0.00  0.00    +0.000 A 
ATOM      9  C   UNL     1       2.779   7.544  18.355  0.00  0.00    +0.000 A 
ENDROOT
BRANCH   1  14
ATOM     10  O   UNL     1       6.172   3.735  14.370  0.00  0.00    +0.000 OA
ATOM     11  C   UNL     1       5.701   4.361  15.324  0.00  0.00    +0.000 C 
ATOM     12  N   UNL     1       4.717   3.790  16.103  0.00  0.00    +0.000 N 
ATOM     13  N   UNL     1       4.000   4.368  17.108  0.00  0.00    +0.000 NA
ATOM     14  C   UNL     1       4.114   5.638  17.367  0.00  0.00    +0.000 C 
ATOM     15  C   UNL     1       5.093   6.562  16.568  0.00  0.00    +0.000 C 
ATOM     16  C   UNL     1       6.308   7.190  17.305  0.00  0.00    +0.000 C 
ATOM     17  C   UNL     1       7.089   5.914  16.950  0.00  0.00    +0.000 C 
ATOM     18  C   UNL     1       6.133   5.772  15.733  0.00  0.00    +0.000 C 
ATOM     19  H   UNL     1       4.477   2.828  15.885  0.00  0.00    +0.000 HD
ENDBRANCH   1  14
BRANCH   6  20
ATOM     20  C   UNL     1      -0.123  10.201  21.176  0.00  0.00    +0.000 A 
ATOM     21  C   UNL     1      -0.545  11.141  20.223  0.00  0.00    +0.000 A 
ATOM     22  C   UNL     1      -1.284  12.264  20.595  0.00  0.00    +0.000 A 
ATOM     23  C   UNL     1      -1.610  12.461  21.934  0.00  0.00    +0.000 A 
ATOM     24  C   UNL     1      -1.203  11.537  22.895  0.00  0.00    +0.000 A 
ATOM     25  C   UNL     1      -0.465  10.412  22.520  0.00  0.00    +0.000 A 
ENDBRANCH   6  20
TORSDOF 2
ENDMDL
MODEL 7
REMARK VINA RESULT:      -8.0      3.143      8.737
REMARK  Name = 
REMARK  2 active torsions:
REMARK  status: ('A' for Active; 'I' for Inactive)
REMARK    1  A    between atoms: C_5  and  C_6
REMARK    2  A    between atoms: C_11  and  C_12
REMARK                            x       y       z     vdW  Elec       q    Type
REMARK                         _______ _______ _______ _____ _____    ______ ____
ROOT
ATOM      1  C   UNL     1       0.873   9.090  19.457  0.00  0.00    +0.000 A 
ATOM      2  C   UNL     1       0.962   8.187  20.537  0.00  0.00    +0.000 A 
ATOM      3  C   UNL     1       1.862   7.114  20.528  0.00  0.00    +0.000 A 
ATOM      4  C   UNL     1       2.681   6.962  19.409  0.00  0.00    +0.000 A 
ATOM      5  N   UNL     1       3.641   6.034  19.129  0.00  0.00    +0.000 NA
ATOM      6  C   UNL     1       4.100   6.393  17.944  0.00  0.00    +0.000 A 
ATOM      7  O   UNL     1       3.486   7.502  17.411  0.00  0.00    +0.000 OA
ATOM      8  C   UNL     1       2.574   7.862  18.363  0.00  0.00    +0.000 A 
ATOM      9  C   UNL     1       1.692   8.938  18.327  0.00  0.00    +0.000 A 
ENDROOT
BRANCH   1  14
ATOM     10  O   UNL     1      -2.572  13.429  20.236  0.00  0.00    +0.000 OA
ATOM     11  C   UNL     1      -1.948  12.406  19.939  0.00  0.00    +0.000 C 
ATOM     12  N   UNL     1      -1.261  11.713  20.913  0.00  0.00    +0.000 N 
ATOM     13  N   UNL     1      -0.425  10.648  20.755  0.00  0.00    +0.000 NA
ATOM     14  C   UNL     1      -0.091  10.229  19.569  0.00  0.00    +0.000 C 
ATOM     15  C   UNL     1      -0.647  10.897  18.268  0.00  0.00    +0.000 C 
ATOM     16  C   UNL     1      -1.588  10.078  17.341  0.00  0.00    +0.000 C 
ATOM     17  C   UNL     1      -2.757  10.587  18.202  0.00  0.00    +0.000 C 
ATOM     18  C   UNL     1      -1.867  11.819  18.527  0.00  0.00    +0.000 C 
ATOM     19  H   UNL     1      -1.369  12.053  21.864  0.00  0.00    +0.000 HD
ENDBRANCH   1  14
BRANCH   6  20
ATOM     20  C   UNL     1       5.161   5.767  17.163  0.00  0.00    +0.000 A 
ATOM     21  C   UNL     1       5.088   5.811  15.763  0.00  0.00    +0.000 A 
ATOM     22  C   UNL     1       6.067   5.211  14.971  0.00  0.00    +0.000 A 
ATOM     23  C   UNL     1       7.135   4.553  15.574  0.00  0.00    +0.000 A 
ATOM     24  C   UNL     1       7.226   4.501  16.964  0.00  0.00    +0.000 A 
ATOM     25  C   UNL     1       6.246   5.105  17.756  0.00  0.00    +0.000 A 
ENDBRANCH   6  20
TORSDOF 2
ENDMDL
MODEL 8
REMARK VINA RESULT:      -7.9      1.403      2.204
REMARK  Name = 
REMARK  2 active torsions:
REMARK  status: ('A' for Active; 'I' for Inactive)
REMARK    1  A    between atoms: C_5  and  C_6
REMARK    2  A    between atoms: C_11  and  C_12
REMARK                            x       y       z     vdW  Elec       q    Type
REMARK                         _______ _______ _______ _____ _____    ______ ____
ROOT
ATOM      1  C   UNL     1       2.249   7.120  19.338  0.00  0.00    +0.000 A 
ATOM      2  C   UNL     1       2.254   7.873  18.145  0.00  0.00    +0.000 A 
ATOM      3  C   UNL     1       1.740   9.176  18.094  0.00  0.00    +0.000 A 
ATOM      4  C   UNL     1       1.219   9.716  19.271  0.00  0.00    +0.000 A 
ATOM      5  N   UNL     1       0.670  10.939  19.521  0.00  0.00    +0.000 NA
ATOM      6  C   UNL     1       0.374  10.902  20.807  0.00  0.00    +0.000 A 
ATOM      7  O   UNL     1       0.682   9.712  21.426  0.00  0.00    +0.000 OA
ATOM      8  C   UNL     1       1.227   8.955  20.427  0.00  0.00    +0.000 A 
ATOM      9  C   UNL     1       1.722   7.658  20.523  0.00  0.00    +0.000 A 
ENDROOT
BRANCH   1  14
ATOM     10  O   UNL     1       4.201   1.879  19.462  0.00  0.00    +0.000 OA
ATOM     11  C   UNL     1       3.954   3.086  19.392  0.00  0.00    +0.000 C 
ATOM     12  N   UNL     1       3.081   3.663  20.289  0.00  0.00    +0.000 N 
ATOM     13  N   UNL     1       2.597   4.937  20.291  0.00  0.00    +0.000 NA
ATOM     14  C   UNL     1       2.852   5.750  19.308  0.00  0.00    +0.000 C 
ATOM     15  C   UNL     1       3.743   5.329  18.093  0.00  0.00    +0.000 C 
ATOM     16  C   UNL     1       5.113   6.032  17.883  0.00  0.00    +0.000 C 
ATOM     17  C   UNL     1       5.720   4.962  18.806  0.00  0.00    +0.000 C 
ATOM     18  C   UNL     1       4.558   4.035  18.353  0.00  0.00    +0.000 C 
ATOM     19  H   UNL     1       2.733   3.056  21.026  0.00  0.00    +0.000 HD
ENDBRANCH   1  14
BRANCH   6  20
ATOM     20  C   UNL     1      -0.219  11.954  21.624  0.00  0.00    +0.000 A 
ATOM     21  C   UNL     1       0.243  13.271  21.474  0.00  0.00    +0.000 A 
ATOM     22  C   UNL     1      -0.277  14.310  22.245  0.00  0.00    +0.000 A 
ATOM     23  C   UNL     1      -1.270  14.042  23.184  0.00  0.00    +0.000 A 
ATOM     24  C   UNL     1      -1.743  12.741  23.346  0.00  0.00    +0.000 A 
ATOM     25  C   UNL     1      -1.223  11.702  22.570  0.00  0.00    +0.000 A 
ENDBRANCH   6  20
TORSDOF 2
ENDMDL
MODEL 9
REMARK VINA RESULT:      -7.9      1.436      2.094
REMARK  Name = 
REMARK  2 active torsions:
REMARK  status: ('A' for Active; 'I' for Inactive)
REMARK    1  A    between atoms: C_5  and  C_6
REMARK    2  A    between atoms: C_11  and  C_12
REMARK                            x       y       z     vdW  Elec       q    Type
REMARK                         _______ _______ _______ _____ _____    ______ ____
ROOT
ATOM      1  C   UNL     1       2.171   7.204  19.366  0.00  0.00    +0.000 A 
ATOM      2  C   UNL     1       2.189   8.010  18.208  0.00  0.00    +0.000 A 
ATOM      3  C   UNL     1       1.650   9.304  18.203  0.00  0.00    +0.000 A 
ATOM      4  C   UNL     1       1.092   9.781  19.390  0.00  0.00    +0.000 A 
ATOM      5  N   UNL     1       0.513  10.981  19.680  0.00  0.00    +0.000 NA
ATOM      6  C   UNL     1       0.188  10.881  20.956  0.00  0.00    +0.000 A 
ATOM      7  O   UNL     1       0.506   9.671  21.528  0.00  0.00    +0.000 OA
ATOM      8  C   UNL     1       1.088   8.969  20.511  0.00  0.00    +0.000 A 
ATOM      9  C   UNL     1       1.607   7.679  20.561  0.00  0.00    +0.000 A 
ENDROOT
BRANCH   1  14
ATOM     10  O   UNL     1       4.236   2.005  19.322  0.00  0.00    +0.000 OA
ATOM     11  C   UNL     1       3.962   3.208  19.286  0.00  0.00    +0.000 C 
ATOM     12  N   UNL     1       3.096   3.744  20.216  0.00  0.00    +0.000 N 
ATOM     13  N   UNL     1       2.586   5.007  20.258  0.00  0.00    +0.000 NA
ATOM     14  C   UNL     1       2.802   5.849  19.291  0.00  0.00    +0.000 C 
ATOM     15  C   UNL     1       3.676   5.476  18.048  0.00  0.00    +0.000 C 
ATOM     16  C   UNL     1       5.026   6.213  17.826  0.00  0.00    +0.000 C 
ATOM     17  C   UNL     1       5.675   5.135  18.710  0.00  0.00    +0.000 C 
ATOM     18  C   UNL     1       4.523   4.194  18.259  0.00  0.00    +0.000 C 
ATOM     19  H   UNL     1       2.777   3.113  20.945  0.00  0.00    +0.000 HD
ENDBRANCH   1  14
BRANCH   6  20
ATOM     20  C   UNL     1      -0.444  11.884  21.804  0.00  0.00    +0.000 A 
ATOM     21  C   UNL     1      -1.508  11.499  22.634  0.00  0.00    +0.000 A 
ATOM     22  C   UNL     1      -2.159  12.424  23.449  0.00  0.00    +0.000 A 
ATOM     23  C   UNL     1      -1.752  13.756  23.443  0.00  0.00    +0.000 A 
ATOM     24  C   UNL     1      -0.695  14.157  22.627  0.00  0.00    +0.000 A 
ATOM     25  C   UNL     1      -0.042  13.228  21.813  0.00  0.00    +0.000 A 
ENDBRANCH   6  20
TORSDOF 2
ENDMDL
