MODEL 1
REMARK VINA RESULT:      -7.5      0.000      0.000
REMARK  Name = 
REMARK  9 active torsions:
REMARK  status: ('A' for Active; 'I' for Inactive)
REMARK    1  A    between atoms: C_2  and  O_3
REMARK    2  A    between atoms: C_2  and  C_4
REMARK    3  A    between atoms: C_4  and  C_5
REMARK    4  A    between atoms: C_5  and  C_6
REMARK    5  A    between atoms: C_7  and  C_8
REMARK    6  A    between atoms: C_8  and  C_9
REMARK    7  A    between atoms: C_10  and  N_11
REMARK    8  A    between atoms: N_11  and  S_12
REMARK    9  A    between atoms: S_12  and  C_15
REMARK                            x       y       z     vdW  Elec       q    Type
REMARK                         _______ _______ _______ _____ _____    ______ ____
ROOT
ATOM      1  C   UNL     1       3.042   3.730  18.733  0.00  0.00    +0.000 C 
ATOM      2  C   UNL     1       3.292   4.411  20.095  0.00  0.00    +0.000 C 
ATOM      3  C   UNL     1       2.127   3.960  20.997  0.00  0.00    +0.000 C 
ATOM      4  C   UNL     1       1.254   3.040  20.161  0.00  0.00    +0.000 C 
ATOM      5  C   UNL     1       2.202   2.511  19.116  0.00  0.00    +0.000 C 
ATOM      6  F   UNL     1       1.523   2.041  18.047  0.00  0.00    +0.000 F 
ENDROOT
BRANCH   2   7
ATOM      7  N   UNL     1       3.296   5.881  19.971  0.00  0.00    +0.000 NA
ATOM      8  H   UNL     1       4.094   6.394  20.353  0.00  0.00    +0.000 HD
BRANCH   7   9
ATOM      9  S   UNL     1       2.747   6.596  18.539  0.00  0.00    +0.000 S 
ATOM     10  O   UNL     1       3.934   7.002  17.821  0.00  0.00    +0.000 OA
ATOM     11  O   UNL     1       1.733   5.764  17.934  0.00  0.00    +0.000 OA
BRANCH   9  12
ATOM     12  C   UNL     1       1.946   8.056  19.140  0.00  0.00    +0.000 A 
ATOM     13  C   UNL     1       1.674   9.113  18.269  0.00  0.00    +0.000 A 
ATOM     14  C   UNL     1       1.077  10.271  18.769  0.00  0.00    +0.000 A 
ATOM     15  C   UNL     1       0.753  10.368  20.127  0.00  0.00    +0.000 A 
ATOM     16 CL   UNL     1       0.080  11.855  20.689  0.00  0.00    +0.000 Cl
ATOM     17  C   UNL     1       0.992   9.285  20.984  0.00  0.00    +0.000 A 
ATOM     18 CL   UNL     1       0.617   9.336  22.671  0.00  0.00    +0.000 Cl
ATOM     19  C   UNL     1       1.571   8.118  20.486  0.00  0.00    +0.000 A 
ENDBRANCH   9  12
ENDBRANCH   7   9
ENDBRANCH   2   7
BRANCH   1  20
ATOM     20  C   UNL     1       4.285   3.245  17.974  0.00  0.00    +0.000 C 
BRANCH  20  22
ATOM     21  C   UNL     1       5.489   4.246  16.000  0.00  0.00    +0.000 C 
ATOM     22  C   UNL     1       4.395   3.684  16.543  0.00  0.00    +0.000 C 
BRANCH  21  23
ATOM     23  C   UNL     1       6.812   4.467  16.693  0.00  0.00    +0.000 C 
BRANCH  23  24
ATOM     24  C   UNL     1       7.124   5.947  16.894  0.00  0.00    +0.000 C 
BRANCH  24  26
ATOM     25  O   UNL     1       8.272   6.916  18.805  0.00  0.00    +0.000 OA
ATOM     26  C   UNL     1       7.346   6.262  18.355  0.00  0.00    +0.000 C 
BRANCH  26  27
ATOM     27  O   UNL     1       6.384   5.729  19.148  0.00  0.00    +0.000 OA
ATOM     28  H   UNL     1       5.712   6.377  19.440  0.00  0.00    +0.000 HD
ENDBRANCH  26  27
ENDBRANCH  24  26
ENDBRANCH  23  24
ENDBRANCH  21  23
ENDBRANCH  20  22
ENDBRANCH   1  20
TORSDOF 9
ENDMDL
MODEL 2
REMARK VINA RESULT:      -7.3      3.346      4.706
REMARK  Name = 
REMARK  9 active torsions:
REMARK  status: ('A' for Active; 'I' for Inactive)
REMARK    1  A    between atoms: C_2  and  O_3
REMARK    2  A    between atoms: C_2  and  C_4
REMARK    3  A    between atoms: C_4  and  C_5
REMARK    4  A    between atoms: C_5  and  C_6
REMARK    5  A    between atoms: C_7  and  C_8
REMARK    6  A    between atoms: C_8  and  C_9
REMARK    7  A    between atoms: C_10  and  N_11
REMARK    8  A    between atoms: N_11  and  S_12
REMARK    9  A    between atoms: S_12  and  C_15
REMARK                            x       y       z     vdW  Elec       q    Type
REMARK                         _______ _______ _______ _____ _____    ______ ____
ROOT
ATOM      1  C   UNL     1       2.764   6.217  20.047  0.00  0.00    +0.000 C 
ATOM      2  C   UNL     1       1.764   7.388  19.954  0.00  0.00    +0.000 C 
ATOM      3  C   UNL     1       2.051   8.063  18.599  0.00  0.00    +0.000 C 
ATOM      4  C   UNL     1       3.176   7.280  17.946  0.00  0.00    +0.000 C 
ATOM      5  C   UNL     1       3.068   5.916  18.578  0.00  0.00    +0.000 C 
ATOM      6  F   UNL     1       4.229   5.238  18.457  0.00  0.00    +0.000 F 
ENDROOT
BRANCH   2   7
ATOM      7  N   UNL     1       1.960   8.354  21.052  0.00  0.00    +0.000 NA
ATOM      8  H   UNL     1       2.731   9.021  20.974  0.00  0.00    +0.000 HD
BRANCH   7   9
ATOM      9  S   UNL     1       0.610   9.071  21.777  0.00  0.00    +0.000 S 
ATOM     10  O   UNL     1      -0.495   8.172  21.530  0.00  0.00    +0.000 OA
ATOM     11  O   UNL     1       0.949   9.521  23.107  0.00  0.00    +0.000 OA
BRANCH   9  12
ATOM     12  C   UNL     1       0.376  10.512  20.774  0.00  0.00    +0.000 A 
ATOM     13  C   UNL     1       1.139  11.658  21.008  0.00  0.00    +0.000 A 
ATOM     14  C   UNL     1       0.915  12.795  20.232  0.00  0.00    +0.000 A 
ATOM     15  C   UNL     1      -0.064  12.785  19.231  0.00  0.00    +0.000 A 
ATOM     16 CL   UNL     1      -0.335  14.249  18.356  0.00  0.00    +0.000 Cl
ATOM     17  C   UNL     1      -0.794  11.617  18.977  0.00  0.00    +0.000 A 
ATOM     18 CL   UNL     1      -2.016  11.532  17.756  0.00  0.00    +0.000 Cl
ATOM     19  C   UNL     1      -0.561  10.471  19.736  0.00  0.00    +0.000 A 
ENDBRANCH   9  12
ENDBRANCH   7   9
ENDBRANCH   2   7
BRANCH   1  20
ATOM     20  C   UNL     1       2.251   4.931  20.710  0.00  0.00    +0.000 C 
BRANCH  20  22
ATOM     21  C   UNL     1       0.636   3.202  19.843  0.00  0.00    +0.000 C 
ATOM     22  C   UNL     1       0.901   4.453  20.261  0.00  0.00    +0.000 C 
BRANCH  21  23
ATOM     23  C   UNL     1       1.608   2.048  19.821  0.00  0.00    +0.000 C 
BRANCH  23  24
ATOM     24  C   UNL     1       2.527   2.083  18.602  0.00  0.00    +0.000 C 
BRANCH  24  26
ATOM     25  O   UNL     1       4.663   2.453  19.703  0.00  0.00    +0.000 OA
ATOM     26  C   UNL     1       3.953   1.766  18.987  0.00  0.00    +0.000 C 
BRANCH  26  27
ATOM     27  O   UNL     1       4.387   0.603  18.441  0.00  0.00    +0.000 OA
ATOM     28  H   UNL     1       4.620   0.678  17.494  0.00  0.00    +0.000 HD
ENDBRANCH  26  27
ENDBRANCH  24  26
ENDBRANCH  23  24
ENDBRANCH  21  23
ENDBRANCH  20  22
ENDBRANCH   1  20
TORSDOF 9
ENDMDL
MODEL 3
REMARK VINA RESULT:      -7.0      2.885      4.181
REMARK  Name = 
REMARK  9 active torsions:
REMARK  status: ('A' for Active; 'I' for Inactive)
REMARK    1  A    between atoms: C_2  and  O_3
REMARK    2  A    between atoms: C_2  and  C_4
REMARK    3  A    between atoms: C_4  and  C_5
REMARK    4  A    between atoms: C_5  and  C_6
REMARK    5  A    between atoms: C_7  and  C_8
REMARK    6  A    between atoms: C_8  and  C_9
REMARK    7  A    between atoms: C_10  and  N_11
REMARK    8  A    between atoms: N_11  and  S_12
REMARK    9  A    between atoms: S_12  and  C_15
REMARK                            x       y       z     vdW  Elec       q    Type
REMARK                         _______ _______ _______ _____ _____    ______ ____
ROOT
ATOM      1  C   UNL     1       5.284   5.972  16.441  0.00  0.00    +0.000 C 
ATOM      2  C   UNL     1       4.707   4.900  17.389  0.00  0.00    +0.000 C 
ATOM      3  C   UNL     1       4.956   3.553  16.683  0.00  0.00    +0.000 C 
ATOM      4  C   UNL     1       5.667   3.865  15.378  0.00  0.00    +0.000 C 
ATOM      5  C   UNL     1       6.333   5.189  15.649  0.00  0.00    +0.000 C 
ATOM      6  F   UNL     1       6.632   5.821  14.493  0.00  0.00    +0.000 F 
ENDROOT
BRANCH   2   7
ATOM      7  N   UNL     1       3.261   5.096  17.608  0.00  0.00    +0.000 NA
ATOM      8  H   UNL     1       2.610   4.531  17.059  0.00  0.00    +0.000 HD
BRANCH   7   9
ATOM      9  S   UNL     1       2.683   5.325  19.182  0.00  0.00    +0.000 S 
ATOM     10  O   UNL     1       1.511   4.487  19.298  0.00  0.00    +0.000 OA
ATOM     11  O   UNL     1       3.777   5.248  20.121  0.00  0.00    +0.000 OA
BRANCH   9  12
ATOM     12  C   UNL     1       2.145   7.012  19.133  0.00  0.00    +0.000 A 
ATOM     13  C   UNL     1       2.162   7.717  17.928  0.00  0.00    +0.000 A 
ATOM     14  C   UNL     1       1.770   9.056  17.916  0.00  0.00    +0.000 A 
ATOM     15  C   UNL     1       1.363   9.682  19.100  0.00  0.00    +0.000 A 
ATOM     16 CL   UNL     1       0.958  11.358  19.024  0.00  0.00    +0.000 Cl
ATOM     17  C   UNL     1       1.309   8.954  20.296  0.00  0.00    +0.000 A 
ATOM     18 CL   UNL     1       0.816   9.663  21.794  0.00  0.00    +0.000 Cl
ATOM     19  C   UNL     1       1.682   7.610  20.310  0.00  0.00    +0.000 A 
ENDBRANCH   9  12
ENDBRANCH   7   9
ENDBRANCH   2   7
BRANCH   1  20
ATOM     20  C   UNL     1       5.973   7.172  17.106  0.00  0.00    +0.000 C 
BRANCH  20  22
ATOM     21  C   UNL     1       8.213   7.856  18.032  0.00  0.00    +0.000 C 
ATOM     22  C   UNL     1       7.318   6.905  17.714  0.00  0.00    +0.000 C 
BRANCH  21  23
ATOM     23  C   UNL     1       8.008   9.347  17.910  0.00  0.00    +0.000 C 
BRANCH  23  24
ATOM     24  C   UNL     1       9.238  10.142  18.339  0.00  0.00    +0.000 C 
BRANCH  24  26
ATOM     25  O   UNL     1       8.591  12.329  17.498  0.00  0.00    +0.000 OA
ATOM     26  C   UNL     1       8.927  11.617  18.430  0.00  0.00    +0.000 C 
BRANCH  26  27
ATOM     27  O   UNL     1       9.063  12.095  19.692  0.00  0.00    +0.000 OA
ATOM     28  H   UNL     1       9.980  12.348  19.919  0.00  0.00    +0.000 HD
ENDBRANCH  26  27
ENDBRANCH  24  26
ENDBRANCH  23  24
ENDBRANCH  21  23
ENDBRANCH  20  22
ENDBRANCH   1  20
TORSDOF 9
ENDMDL
MODEL 4
REMARK VINA RESULT:      -7.0      1.162      1.840
REMARK  Name = 
REMARK  9 active torsions:
REMARK  status: ('A' for Active; 'I' for Inactive)
REMARK    1  A    between atoms: C_2  and  O_3
REMARK    2  A    between atoms: C_2  and  C_4
REMARK    3  A    between atoms: C_4  and  C_5
REMARK    4  A    between atoms: C_5  and  C_6
REMARK    5  A    between atoms: C_7  and  C_8
REMARK    6  A    between atoms: C_8  and  C_9
REMARK    7  A    between atoms: C_10  and  N_11
REMARK    8  A    between atoms: N_11  and  S_12
REMARK    9  A    between atoms: S_12  and  C_15
REMARK                            x       y       z     vdW  Elec       q    Type
REMARK                         _______ _______ _______ _____ _____    ______ ____
ROOT
ATOM      1  C   UNL     1       2.710   3.671  18.270  0.00  0.00    +0.000 C 
ATOM      2  C   UNL     1       2.228   4.137  19.660  0.00  0.00    +0.000 C 
ATOM      3  C   UNL     1       1.178   3.099  20.098  0.00  0.00    +0.000 C 
ATOM      4  C   UNL     1       1.084   2.071  18.984  0.00  0.00    +0.000 C 
ATOM      5  C   UNL     1       2.425   2.168  18.303  0.00  0.00    +0.000 C 
ATOM      6  F   UNL     1       2.364   1.664  17.051  0.00  0.00    +0.000 F 
ENDROOT
BRANCH   2   7
ATOM      7  N   UNL     1       1.617   5.479  19.598  0.00  0.00    +0.000 NA
ATOM      8  H   UNL     1       0.974   5.750  20.344  0.00  0.00    +0.000 HD
BRANCH   7   9
ATOM      9  S   UNL     1       2.556   6.796  19.099  0.00  0.00    +0.000 S 
ATOM     10  O   UNL     1       3.848   6.617  19.722  0.00  0.00    +0.000 OA
ATOM     11  O   UNL     1       2.411   6.990  17.676  0.00  0.00    +0.000 OA
BRANCH   9  12
ATOM     12  C   UNL     1       1.745   8.150  19.904  0.00  0.00    +0.000 A 
ATOM     13  C   UNL     1       1.448   8.077  21.266  0.00  0.00    +0.000 A 
ATOM     14  C   UNL     1       0.775   9.137  21.875  0.00  0.00    +0.000 A 
ATOM     15  C   UNL     1       0.405  10.260  21.126  0.00  0.00    +0.000 A 
ATOM     16 CL   UNL     1      -0.484  11.503  21.928  0.00  0.00    +0.000 Cl
ATOM     17  C   UNL     1       0.746  10.341  19.770  0.00  0.00    +0.000 A 
ATOM     18 CL   UNL     1       0.322  11.698  18.785  0.00  0.00    +0.000 Cl
ATOM     19  C   UNL     1       1.435   9.293  19.161  0.00  0.00    +0.000 A 
ENDBRANCH   9  12
ENDBRANCH   7   9
ENDBRANCH   2   7
BRANCH   1  20
ATOM     20  C   UNL     1       4.199   3.876  17.959  0.00  0.00    +0.000 C 
BRANCH  20  22
ATOM     21  C   UNL     1       5.348   5.296  16.223  0.00  0.00    +0.000 C 
ATOM     22  C   UNL     1       4.526   4.283  16.552  0.00  0.00    +0.000 C 
BRANCH  21  23
ATOM     23  C   UNL     1       6.138   6.148  17.186  0.00  0.00    +0.000 C 
BRANCH  23  24
ATOM     24  C   UNL     1       7.387   5.439  17.701  0.00  0.00    +0.000 C 
BRANCH  24  26
ATOM     25  O   UNL     1       7.573   5.438  20.125  0.00  0.00    +0.000 OA
ATOM     26  C   UNL     1       7.798   5.975  19.053  0.00  0.00    +0.000 C 
BRANCH  26  27
ATOM     27  O   UNL     1       8.461   7.154  18.959  0.00  0.00    +0.000 OA
ATOM     28  H   UNL     1       9.233   7.218  19.557  0.00  0.00    +0.000 HD
ENDBRANCH  26  27
ENDBRANCH  24  26
ENDBRANCH  23  24
ENDBRANCH  21  23
ENDBRANCH  20  22
ENDBRANCH   1  20
TORSDOF 9
ENDMDL
MODEL 5
REMARK VINA RESULT:      -6.9      1.385      1.660
REMARK  Name = 
REMARK  9 active torsions:
REMARK  status: ('A' for Active; 'I' for Inactive)
REMARK    1  A    between atoms: C_2  and  O_3
REMARK    2  A    between atoms: C_2  and  C_4
REMARK    3  A    between atoms: C_4  and  C_5
REMARK    4  A    between atoms: C_5  and  C_6
REMARK    5  A    between atoms: C_7  and  C_8
REMARK    6  A    between atoms: C_8  and  C_9
REMARK    7  A    between atoms: C_10  and  N_11
REMARK    8  A    between atoms: N_11  and  S_12
REMARK    9  A    between atoms: S_12  and  C_15
REMARK                            x       y       z     vdW  Elec       q    Type
REMARK                         _______ _______ _______ _____ _____    ______ ____
ROOT
ATOM      1  C   UNL     1       1.423   3.810  18.792  0.00  0.00    +0.000 C 
ATOM      2  C   UNL     1       2.213   4.606  19.851  0.00  0.00    +0.000 C 
ATOM      3  C   UNL     1       2.087   3.792  21.153  0.00  0.00    +0.000 C 
ATOM      4  C   UNL     1       1.257   2.563  20.825  0.00  0.00    +0.000 C 
ATOM      5  C   UNL     1       1.466   2.383  19.344  0.00  0.00    +0.000 C 
ATOM      6  F   UNL     1       0.480   1.631  18.808  0.00  0.00    +0.000 F 
ENDROOT
BRANCH   2   7
ATOM      7  N   UNL     1       1.649   5.956  20.043  0.00  0.00    +0.000 NA
ATOM      8  H   UNL     1       1.434   6.257  20.996  0.00  0.00    +0.000 HD
BRANCH   7   9
ATOM      9  S   UNL     1       2.246   7.244  19.123  0.00  0.00    +0.000 S 
ATOM     10  O   UNL     1       3.662   7.308  19.407  0.00  0.00    +0.000 OA
ATOM     11  O   UNL     1       1.738   7.159  17.774  0.00  0.00    +0.000 OA
BRANCH   9  12
ATOM     12  C   UNL     1       1.471   8.638  19.894  0.00  0.00    +0.000 A 
ATOM     13  C   UNL     1       1.270   9.814  19.170  0.00  0.00    +0.000 A 
ATOM     14  C   UNL     1       0.692  10.914  19.806  0.00  0.00    +0.000 A 
ATOM     15  C   UNL     1       0.318  10.835  21.152  0.00  0.00    +0.000 A 
ATOM     16 CL   UNL     1      -0.328  12.255  21.892  0.00  0.00    +0.000 Cl
ATOM     17  C   UNL     1       0.486   9.636  21.857  0.00  0.00    +0.000 A 
ATOM     18 CL   UNL     1       0.046   9.466  23.521  0.00  0.00    +0.000 Cl
ATOM     19  C   UNL     1       1.045   8.527  21.221  0.00  0.00    +0.000 A 
ENDBRANCH   9  12
ENDBRANCH   7   9
ENDBRANCH   2   7
BRANCH   1  20
ATOM     20  C   UNL     1       2.004   3.799  17.371  0.00  0.00    +0.000 C 
BRANCH  20  22
ATOM     21  C   UNL     1       4.489   3.459  17.130  0.00  0.00    +0.000 C 
ATOM     22  C   UNL     1       3.238   2.968  17.172  0.00  0.00    +0.000 C 
BRANCH  21  23
ATOM     23  C   UNL     1       4.887   4.898  17.347  0.00  0.00    +0.000 C 
BRANCH  23  24
ATOM     24  C   UNL     1       5.594   5.497  16.134  0.00  0.00    +0.000 C 
BRANCH  24  26
ATOM     25  O   UNL     1       7.783   4.468  16.379  0.00  0.00    +0.000 OA
ATOM     26  C   UNL     1       7.094   5.473  16.313  0.00  0.00    +0.000 C 
BRANCH  26  27
ATOM     27  O   UNL     1       7.622   6.719  16.398  0.00  0.00    +0.000 OA
ATOM     28  H   UNL     1       7.266   7.342  15.733  0.00  0.00    +0.000 HD
ENDBRANCH  26  27
ENDBRANCH  24  26
ENDBRANCH  23  24
ENDBRANCH  21  23
ENDBRANCH  20  22
ENDBRANCH   1  20
TORSDOF 9
ENDMDL
MODEL 6
REMARK VINA RESULT:      -6.9      4.466      7.346
REMARK  Name = 
REMARK  9 active torsions:
REMARK  status: ('A' for Active; 'I' for Inactive)
REMARK    1  A    between atoms: C_2  and  O_3
REMARK    2  A    between atoms: C_2  and  C_4
REMARK    3  A    between atoms: C_4  and  C_5
REMARK    4  A    between atoms: C_5  and  C_6
REMARK    5  A    between atoms: C_7  and  C_8
REMARK    6  A    between atoms: C_8  and  C_9
REMARK    7  A    between atoms: C_10  and  N_11
REMARK    8  A    between atoms: N_11  and  S_12
REMARK    9  A    between atoms: S_12  and  C_15
REMARK                            x       y       z     vdW  Elec       q    Type
REMARK                         _______ _______ _______ _____ _____    ______ ____
ROOT
ATOM      1  C   UNL     1       1.998   4.699  19.871  0.00  0.00    +0.000 C 
ATOM      2  C   UNL     1       2.060   5.063  18.374  0.00  0.00    +0.000 C 
ATOM      3  C   UNL     1       1.448   3.858  17.634  0.00  0.00    +0.000 C 
ATOM      4  C   UNL     1       1.042   2.850  18.696  0.00  0.00    +0.000 C 
ATOM      5  C   UNL     1       0.843   3.698  19.926  0.00  0.00    +0.000 C 
ATOM      6  F   UNL     1       0.914   2.943  21.044  0.00  0.00    +0.000 F 
ENDROOT
BRANCH   2   7
ATOM      7  N   UNL     1       3.451   5.276  17.927  0.00  0.00    +0.000 NA
ATOM      8  H   UNL     1       3.911   6.151  18.189  0.00  0.00    +0.000 HD
BRANCH   7   9
ATOM      9  S   UNL     1       4.542   3.984  17.962  0.00  0.00    +0.000 S 
ATOM     10  O   UNL     1       5.366   4.195  19.130  0.00  0.00    +0.000 OA
ATOM     11  O   UNL     1       3.838   2.743  17.734  0.00  0.00    +0.000 OA
BRANCH   9  12
ATOM     12  C   UNL     1       5.534   4.302  16.529  0.00  0.00    +0.000 A 
ATOM     13  C   UNL     1       6.741   4.992  16.654  0.00  0.00    +0.000 A 
ATOM     14  C   UNL     1       7.490   5.267  15.510  0.00  0.00    +0.000 A 
ATOM     15  C   UNL     1       7.036   4.851  14.252  0.00  0.00    +0.000 A 
ATOM     16 CL   UNL     1       7.979   5.285  12.873  0.00  0.00    +0.000 Cl
ATOM     17  C   UNL     1       5.844   4.122  14.144  0.00  0.00    +0.000 A 
ATOM     18 CL   UNL     1       5.224   3.577  12.624  0.00  0.00    +0.000 Cl
ATOM     19  C   UNL     1       5.101   3.828  15.287  0.00  0.00    +0.000 A 
ENDBRANCH   9  12
ENDBRANCH   7   9
ENDBRANCH   2   7
BRANCH   1  20
ATOM     20  C   UNL     1       1.691   5.848  20.842  0.00  0.00    +0.000 C 
BRANCH  20  22
ATOM     21  C   UNL     1       1.310   8.332  20.666  0.00  0.00    +0.000 C 
ATOM     22  C   UNL     1       2.009   7.229  20.347  0.00  0.00    +0.000 C 
BRANCH  21  23
ATOM     23  C   UNL     1       0.143   8.400  21.621  0.00  0.00    +0.000 C 
BRANCH  23  24
ATOM     24  C   UNL     1       0.338   9.455  22.706  0.00  0.00    +0.000 C 
BRANCH  24  26
ATOM     25  O   UNL     1      -0.252  11.458  21.461  0.00  0.00    +0.000 OA
ATOM     26  C   UNL     1      -0.454  10.705  22.399  0.00  0.00    +0.000 C 
BRANCH  26  27
ATOM     27  O   UNL     1      -1.446  10.919  23.298  0.00  0.00    +0.000 OA
ATOM     28  H   UNL     1      -2.128  11.547  22.988  0.00  0.00    +0.000 HD
ENDBRANCH  26  27
ENDBRANCH  24  26
ENDBRANCH  23  24
ENDBRANCH  21  23
ENDBRANCH  20  22
ENDBRANCH   1  20
TORSDOF 9
ENDMDL
MODEL 7
REMARK VINA RESULT:      -6.9      2.189      4.257
REMARK  Name = 
REMARK  9 active torsions:
REMARK  status: ('A' for Active; 'I' for Inactive)
REMARK    1  A    between atoms: C_2  and  O_3
REMARK    2  A    between atoms: C_2  and  C_4
REMARK    3  A    between atoms: C_4  and  C_5
REMARK    4  A    between atoms: C_5  and  C_6
REMARK    5  A    between atoms: C_7  and  C_8
REMARK    6  A    between atoms: C_8  and  C_9
REMARK    7  A    between atoms: C_10  and  N_11
REMARK    8  A    between atoms: N_11  and  S_12
REMARK    9  A    between atoms: S_12  and  C_15
REMARK                            x       y       z     vdW  Elec       q    Type
REMARK                         _______ _______ _______ _____ _____    ______ ____
ROOT
ATOM      1  C   UNL     1       5.624   5.006  18.144  0.00  0.00    +0.000 C 
ATOM      2  C   UNL     1       4.806   6.067  17.379  0.00  0.00    +0.000 C 
ATOM      3  C   UNL     1       5.835   6.848  16.539  0.00  0.00    +0.000 C 
ATOM      4  C   UNL     1       7.193   6.229  16.820  0.00  0.00    +0.000 C 
ATOM      5  C   UNL     1       6.856   4.826  17.256  0.00  0.00    +0.000 C 
ATOM      6  F   UNL     1       7.877   4.284  17.955  0.00  0.00    +0.000 F 
ENDROOT
BRANCH   2   7
ATOM      7  N   UNL     1       4.110   6.983  18.304  0.00  0.00    +0.000 NA
ATOM      8  H   UNL     1       4.185   7.987  18.133  0.00  0.00    +0.000 HD
BRANCH   7   9
ATOM      9  S   UNL     1       2.566   6.578  18.867  0.00  0.00    +0.000 S 
ATOM     10  O   UNL     1       1.880   5.984  17.742  0.00  0.00    +0.000 OA
ATOM     11  O   UNL     1       2.670   5.908  20.142  0.00  0.00    +0.000 OA
BRANCH   9  12
ATOM     12  C   UNL     1       1.853   8.172  19.162  0.00  0.00    +0.000 A 
ATOM     13  C   UNL     1       1.799   9.114  18.133  0.00  0.00    +0.000 A 
ATOM     14  C   UNL     1       1.268  10.378  18.394  0.00  0.00    +0.000 A 
ATOM     15  C   UNL     1       0.794  10.694  19.673  0.00  0.00    +0.000 A 
ATOM     16 CL   UNL     1       0.214  12.297  19.943  0.00  0.00    +0.000 Cl
ATOM     17  C   UNL     1       0.815   9.726  20.686  0.00  0.00    +0.000 A 
ATOM     18 CL   UNL     1       0.246  10.047  22.288  0.00  0.00    +0.000 Cl
ATOM     19  C   UNL     1       1.327   8.455  20.426  0.00  0.00    +0.000 A 
ENDBRANCH   9  12
ENDBRANCH   7   9
ENDBRANCH   2   7
BRANCH   1  20
ATOM     20  C   UNL     1       4.958   3.636  18.334  0.00  0.00    +0.000 C 
BRANCH  20  22
ATOM     21  C   UNL     1       2.781   2.510  17.751  0.00  0.00    +0.000 C 
ATOM     22  C   UNL     1       3.788   3.344  17.440  0.00  0.00    +0.000 C 
BRANCH  21  23
ATOM     23  C   UNL     1       2.601   1.783  19.061  0.00  0.00    +0.000 C 
BRANCH  23  24
ATOM     24  C   UNL     1       2.840   2.687  20.267  0.00  0.00    +0.000 C 
BRANCH  24  26
ATOM     25  O   UNL     1       1.411   2.423  22.216  0.00  0.00    +0.000 OA
ATOM     26  C   UNL     1       1.580   2.848  21.085  0.00  0.00    +0.000 C 
BRANCH  26  27
ATOM     27  O   UNL     1       0.618   3.532  20.417  0.00  0.00    +0.000 OA
ATOM     28  H   UNL     1      -0.041   2.956  19.981  0.00  0.00    +0.000 HD
ENDBRANCH  26  27
ENDBRANCH  24  26
ENDBRANCH  23  24
ENDBRANCH  21  23
ENDBRANCH  20  22
ENDBRANCH   1  20
TORSDOF 9
ENDMDL
MODEL 8
REMARK VINA RESULT:      -6.9      3.172      4.327
REMARK  Name = 
REMARK  9 active torsions:
REMARK  status: ('A' for Active; 'I' for Inactive)
REMARK    1  A    between atoms: C_2  and  O_3
REMARK    2  A    between atoms: C_2  and  C_4
REMARK    3  A    between atoms: C_4  and  C_5
REMARK    4  A    between atoms: C_5  and  C_6
REMARK    5  A    between atoms: C_7  and  C_8
REMARK    6  A    between atoms: C_8  and  C_9
REMARK    7  A    between atoms: C_10  and  N_11
REMARK    8  A    between atoms: N_11  and  S_12
REMARK    9  A    between atoms: S_12  and  C_15
REMARK                            x       y       z     vdW  Elec       q    Type
REMARK                         _______ _______ _______ _____ _____    ______ ____
ROOT
ATOM      1  C   UNL     1       6.011   4.324  17.749  0.00  0.00    +0.000 C 
ATOM      2  C   UNL     1       5.184   5.507  18.294  0.00  0.00    +0.000 C 
ATOM      3  C   UNL     1       6.218   6.552  18.754  0.00  0.00    +0.000 C 
ATOM      4  C   UNL     1       7.590   5.971  18.461  0.00  0.00    +0.000 C 
ATOM      5  C   UNL     1       7.327   4.992  17.346  0.00  0.00    +0.000 C 
ATOM      6  F   UNL     1       8.321   4.082  17.262  0.00  0.00    +0.000 F 
ENDROOT
BRANCH   2   7
ATOM      7  N   UNL     1       4.339   5.096  19.433  0.00  0.00    +0.000 NA
ATOM      8  H   UNL     1       4.570   5.462  20.359  0.00  0.00    +0.000 HD
BRANCH   7   9
ATOM      9  S   UNL     1       2.664   4.984  19.226  0.00  0.00    +0.000 S 
ATOM     10  O   UNL     1       2.464   4.513  17.874  0.00  0.00    +0.000 OA
ATOM     11  O   UNL     1       2.073   4.320  20.364  0.00  0.00    +0.000 OA
BRANCH   9  12
ATOM     12  C   UNL     1       2.171   6.684  19.290  0.00  0.00    +0.000 A 
ATOM     13  C   UNL     1       2.262   7.482  18.148  0.00  0.00    +0.000 A 
ATOM     14  C   UNL     1       1.905   8.828  18.227  0.00  0.00    +0.000 A 
ATOM     15  C   UNL     1       1.459   9.370  19.438  0.00  0.00    +0.000 A 
ATOM     16 CL   UNL     1       1.099  11.057  19.480  0.00  0.00    +0.000 Cl
ATOM     17  C   UNL     1       1.330   8.550  20.567  0.00  0.00    +0.000 A 
ATOM     18 CL   UNL     1       0.786   9.151  22.094  0.00  0.00    +0.000 Cl
ATOM     19  C   UNL     1       1.668   7.199  20.489  0.00  0.00    +0.000 A 
ENDBRANCH   9  12
ENDBRANCH   7   9
ENDBRANCH   2   7
BRANCH   1  20
ATOM     20  C   UNL     1       5.439   3.598  16.524  0.00  0.00    +0.000 C 
BRANCH  20  22
ATOM     21  C   UNL     1       5.432   4.583  14.205  0.00  0.00    +0.000 C 
ATOM     22  C   UNL     1       4.896   4.474  15.433  0.00  0.00    +0.000 C 
BRANCH  21  23
ATOM     23  C   UNL     1       6.611   3.803  13.677  0.00  0.00    +0.000 C 
BRANCH  23  24
ATOM     24  C   UNL     1       6.575   3.647  12.159  0.00  0.00    +0.000 C 
BRANCH  24  26
ATOM     25  O   UNL     1       4.300   3.106  11.495  0.00  0.00    +0.000 OA
ATOM     26  C   UNL     1       5.441   2.745  11.733  0.00  0.00    +0.000 C 
BRANCH  26  27
ATOM     27  O   UNL     1       5.824   1.448  11.637  0.00  0.00    +0.000 OA
ATOM     28  H   UNL     1       6.682   1.259  12.067  0.00  0.00    +0.000 HD
ENDBRANCH  26  27
ENDBRANCH  24  26
ENDBRANCH  23  24
ENDBRANCH  21  23
ENDBRANCH  20  22
ENDBRANCH   1  20
TORSDOF 9
ENDMDL
MODEL 9
REMARK VINA RESULT:      -6.9      1.699      2.330
REMARK  Name = 
REMARK  9 active torsions:
REMARK  status: ('A' for Active; 'I' for Inactive)
REMARK    1  A    between atoms: C_2  and  O_3
REMARK    2  A    between atoms: C_2  and  C_4
REMARK    3  A    between atoms: C_4  and  C_5
REMARK    4  A    between atoms: C_5  and  C_6
REMARK    5  A    between atoms: C_7  and  C_8
REMARK    6  A    between atoms: C_8  and  C_9
REMARK    7  A    between atoms: C_10  and  N_11
REMARK    8  A    between atoms: N_11  and  S_12
REMARK    9  A    between atoms: S_12  and  C_15
REMARK                            x       y       z     vdW  Elec       q    Type
REMARK                         _______ _______ _______ _____ _____    ______ ____
ROOT
ATOM      1  C   UNL     1       1.444   3.744  18.084  0.00  0.00    +0.000 C 
ATOM      2  C   UNL     1       1.965   4.962  18.875  0.00  0.00    +0.000 C 
ATOM      3  C   UNL     1       1.354   4.826  20.283  0.00  0.00    +0.000 C 
ATOM      4  C   UNL     1       0.522   3.556  20.281  0.00  0.00    +0.000 C 
ATOM      5  C   UNL     1       1.148   2.728  19.188  0.00  0.00    +0.000 C 
ATOM      6  F   UNL     1       0.288   1.781  18.752  0.00  0.00    +0.000 F 
ENDROOT
BRANCH   2   7
ATOM      7  N   UNL     1       1.534   6.231  18.258  0.00  0.00    +0.000 NA
ATOM      8  H   UNL     1       0.539   6.464  18.282  0.00  0.00    +0.000 HD
BRANCH   7   9
ATOM      9  S   UNL     1       2.486   7.616  18.457  0.00  0.00    +0.000 S 
ATOM     10  O   UNL     1       3.722   7.163  19.054  0.00  0.00    +0.000 OA
ATOM     11  O   UNL     1       2.463   8.404  17.247  0.00  0.00    +0.000 OA
BRANCH   9  12
ATOM     12  C   UNL     1       1.580   8.510  19.689  0.00  0.00    +0.000 A 
ATOM     13  C   UNL     1       1.637   8.111  21.025  0.00  0.00    +0.000 A 
ATOM     14  C   UNL     1       0.887   8.804  21.976  0.00  0.00    +0.000 A 
ATOM     15  C   UNL     1       0.089   9.888  21.591  0.00  0.00    +0.000 A 
ATOM     16 CL   UNL     1      -0.865  10.656  22.808  0.00  0.00    +0.000 Cl
ATOM     17  C   UNL     1       0.073  10.307  20.254  0.00  0.00    +0.000 A 
ATOM     18 CL   UNL     1      -0.888  11.637  19.709  0.00  0.00    +0.000 Cl
ATOM     19  C   UNL     1       0.836   9.629  19.303  0.00  0.00    +0.000 A 
ENDBRANCH   9  12
ENDBRANCH   7   9
ENDBRANCH   2   7
BRANCH   1  20
ATOM     20  C   UNL     1       2.423   3.107  17.088  0.00  0.00    +0.000 C 
BRANCH  20  22
ATOM     21  C   UNL     1       4.830   2.895  17.802  0.00  0.00    +0.000 C 
ATOM     22  C   UNL     1       3.593   2.382  17.688  0.00  0.00    +0.000 C 
BRANCH  21  23
ATOM     23  C   UNL     1       5.250   4.296  17.427  0.00  0.00    +0.000 C 
BRANCH  23  24
ATOM     24  C   UNL     1       5.670   4.406  15.964  0.00  0.00    +0.000 C 
BRANCH  24  26
ATOM     25  O   UNL     1       7.607   5.530  15.017  0.00  0.00    +0.000 OA
ATOM     26  C   UNL     1       7.132   4.768  15.844  0.00  0.00    +0.000 C 
BRANCH  26  27
ATOM     27  O   UNL     1       7.895   4.142  16.773  0.00  0.00    +0.000 OA
ATOM     28  H   UNL     1       8.343   4.755  17.390  0.00  0.00    +0.000 HD
ENDBRANCH  26  27
ENDBRANCH  24  26
ENDBRANCH  23  24
ENDBRANCH  21  23
ENDBRANCH  20  22
ENDBRANCH   1  20
TORSDOF 9
ENDMDL
