MODEL 1
REMARK VINA RESULT:      -7.7      0.000      0.000
REMARK  Name = 
REMARK  10 active torsions:
REMARK  status: ('A' for Active; 'I' for Inactive)
REMARK    1  A    between atoms: C_1  and  O_2
REMARK    2  A    between atoms: O_2  and  C_3
REMARK    3  A    between atoms: C_7  and  C_8
REMARK    4  A    between atoms: C_10  and  N_11
REMARK    5  A    between atoms: C_12  and  C_14
REMARK    6  A    between atoms: C_14  and  S_15
REMARK    7  A    between atoms: S_15  and  C_16
REMARK    8  A    between atoms: C_19  and  O_20
REMARK    9  A    between atoms: C_22  and  O_23
REMARK   10  A    between atoms: C_26  and  C_27
REMARK                            x       y       z     vdW  Elec       q    Type
REMARK                         _______ _______ _______ _____ _____    ______ ____
ROOT
ATOM      1  S   UNL     1       6.115   7.265  17.191  0.00  0.00    +0.000 S 
ENDROOT
BRANCH   1   2
ATOM      2  C   UNL     1       5.156   6.076  18.070  0.00  0.00    +0.000 A 
ATOM      3  S   UNL     1       5.856   4.590  18.554  0.00  0.00    +0.000 S 
ATOM      4  C   UNL     1       4.380   4.022  19.216  0.00  0.00    +0.000 A 
ATOM      5  C   UNL     1       4.109   2.810  19.863  0.00  0.00    +0.000 A 
ATOM      6  C   UNL     1       2.827   2.569  20.324  0.00  0.00    +0.000 A 
ATOM      7  C   UNL     1       1.875   3.546  20.107  0.00  0.00    +0.000 A 
ATOM      8  N   UNL     1       2.085   4.717  19.486  0.00  0.00    +0.000 NA
ATOM      9  C   UNL     1       3.353   4.950  19.046  0.00  0.00    +0.000 A 
ATOM     10  C   UNL     1       3.807   6.125  18.373  0.00  0.00    +0.000 A 
BRANCH   5  11
ATOM     11  O   UNL     1       5.066   1.848  20.065  0.00  0.00    +0.000 OA
ATOM     12  H   UNL     1       5.685   1.882  19.314  0.00  0.00    +0.000 HD
ENDBRANCH   5  11
BRANCH   7  13
ATOM     13  O   UNL     1       0.593   3.362  20.545  0.00  0.00    +0.000 OA
ATOM     14  H   UNL     1       0.624   3.061  21.465  0.00  0.00    +0.000 HD
ENDBRANCH   7  13
BRANCH  10  15
ATOM     15  C   UNL     1       2.969   7.230  18.051  0.00  0.00    +0.000 C 
ATOM     16  N   UNL     1       2.346   8.178  17.760  0.00  0.00    +0.000 NA
ENDBRANCH  10  15
ENDBRANCH   1   2
BRANCH   1  17
ATOM     17  C   UNL     1       7.646   7.316  18.168  0.00  0.00    +0.000 C 
BRANCH  17  19
ATOM     18  N   UNL     1       8.942   9.136  19.217  0.00  0.00    +0.000 N 
ATOM     19  C   UNL     1       8.269   8.706  18.070  0.00  0.00    +0.000 C 
ATOM     20  O   UNL     1       8.194   9.312  17.001  0.00  0.00    +0.000 OA
ATOM     21  H   UNL     1       9.039   8.497  20.001  0.00  0.00    +0.000 HD
BRANCH  18  29
ATOM     22  C   UNL     1       9.530  11.097  20.618  0.00  0.00    +0.000 A 
ATOM     23  C   UNL     1      10.213  12.320  20.742  0.00  0.00    +0.000 A 
ATOM     24  C   UNL     1      10.798  12.939  19.635  0.00  0.00    +0.000 A 
ATOM     25 CL   UNL     1      11.515  14.489  19.872  0.00  0.00    +0.000 Cl
ATOM     26  C   UNL     1      10.747  12.320  18.391  0.00  0.00    +0.000 A 
ATOM     27  C   UNL     1      11.261  12.913  17.113  0.00  0.00    +0.000 C 
ATOM     28  C   UNL     1      10.145  11.057  18.295  0.00  0.00    +0.000 A 
ATOM     29  C   UNL     1       9.553  10.412  19.385  0.00  0.00    +0.000 A 
BRANCH  22  31
ATOM     30  C   UNL     1       8.357  11.541  22.610  0.00  0.00    +0.000 C 
ATOM     31  O   UNL     1       8.846  10.555  21.685  0.00  0.00    +0.000 OA
ENDBRANCH  22  31
ENDBRANCH  18  29
ENDBRANCH  17  19
ENDBRANCH   1  17
TORSDOF 8
ENDMDL
MODEL 2
REMARK VINA RESULT:      -7.6      4.407     10.376
REMARK  Name = 
REMARK  10 active torsions:
REMARK  status: ('A' for Active; 'I' for Inactive)
REMARK    1  A    between atoms: C_1  and  O_2
REMARK    2  A    between atoms: O_2  and  C_3
REMARK    3  A    between atoms: C_7  and  C_8
REMARK    4  A    between atoms: C_10  and  N_11
REMARK    5  A    between atoms: C_12  and  C_14
REMARK    6  A    between atoms: C_14  and  S_15
REMARK    7  A    between atoms: S_15  and  C_16
REMARK    8  A    between atoms: C_19  and  O_20
REMARK    9  A    between atoms: C_22  and  O_23
REMARK   10  A    between atoms: C_26  and  C_27
REMARK                            x       y       z     vdW  Elec       q    Type
REMARK                         _______ _______ _______ _____ _____    ______ ____
ROOT
ATOM      1  S   UNL     1       9.312   9.992  19.240  0.00  0.00    +0.000 S 
ENDROOT
BRANCH   1   2
ATOM      2  C   UNL     1       9.609  11.714  19.011  0.00  0.00    +0.000 A 
ATOM      3  S   UNL     1      10.265  12.288  17.536  0.00  0.00    +0.000 S 
ATOM      4  C   UNL     1      10.316  13.906  18.100  0.00  0.00    +0.000 A 
ATOM      5  C   UNL     1      10.739  15.062  17.433  0.00  0.00    +0.000 A 
ATOM      6  C   UNL     1      10.686  16.275  18.095  0.00  0.00    +0.000 A 
ATOM      7  C   UNL     1      10.221  16.274  19.396  0.00  0.00    +0.000 A 
ATOM      8  N   UNL     1       9.814  15.193  20.078  0.00  0.00    +0.000 NA
ATOM      9  C   UNL     1       9.860  14.004  19.414  0.00  0.00    +0.000 A 
ATOM     10  C   UNL     1       9.466  12.734  19.934  0.00  0.00    +0.000 A 
BRANCH   5  11
ATOM     11  O   UNL     1      11.204  15.044  16.141  0.00  0.00    +0.000 OA
ATOM     12  H   UNL     1      12.167  14.905  16.174  0.00  0.00    +0.000 HD
ENDBRANCH   5  11
BRANCH   7  13
ATOM     13  O   UNL     1      10.143  17.446  20.096  0.00  0.00    +0.000 OA
ATOM     14  H   UNL     1       9.376  17.400  20.685  0.00  0.00    +0.000 HD
ENDBRANCH   7  13
BRANCH  10  15
ATOM     15  C   UNL     1       8.976  12.534  21.256  0.00  0.00    +0.000 C 
ATOM     16  N   UNL     1       8.634  12.416  22.370  0.00  0.00    +0.000 NA
ENDBRANCH  10  15
ENDBRANCH   1   2
BRANCH   1  17
ATOM     17  C   UNL     1       8.438   9.550  17.710  0.00  0.00    +0.000 C 
BRANCH  17  19
ATOM     18  N   UNL     1       6.703   7.935  17.019  0.00  0.00    +0.000 N 
ATOM     19  C   UNL     1       7.783   8.181  17.872  0.00  0.00    +0.000 C 
ATOM     20  O   UNL     1       8.271   7.385  18.675  0.00  0.00    +0.000 OA
ATOM     21  H   UNL     1       6.465   8.626  16.314  0.00  0.00    +0.000 HD
BRANCH  18  29
ATOM     22  C   UNL     1       6.262   5.604  16.295  0.00  0.00    +0.000 A 
ATOM     23  C   UNL     1       5.468   4.448  16.395  0.00  0.00    +0.000 A 
ATOM     24  C   UNL     1       4.257   4.458  17.090  0.00  0.00    +0.000 A 
ATOM     25 CL   UNL     1       3.307   3.020  17.061  0.00  0.00    +0.000 Cl
ATOM     26  C   UNL     1       3.841   5.618  17.735  0.00  0.00    +0.000 A 
ATOM     27  C   UNL     1       2.529   5.785  18.442  0.00  0.00    +0.000 C 
ATOM     28  C   UNL     1       4.683   6.738  17.708  0.00  0.00    +0.000 A 
ATOM     29  C   UNL     1       5.901   6.758  17.023  0.00  0.00    +0.000 A 
BRANCH  22  31
ATOM     30  C   UNL     1       7.193   5.023  14.213  0.00  0.00    +0.000 C 
ATOM     31  O   UNL     1       7.391   5.624  15.504  0.00  0.00    +0.000 OA
ENDBRANCH  22  31
ENDBRANCH  18  29
ENDBRANCH  17  19
ENDBRANCH   1  17
TORSDOF 8
ENDMDL
MODEL 3
REMARK VINA RESULT:      -7.5      1.078      2.205
REMARK  Name = 
REMARK  10 active torsions:
REMARK  status: ('A' for Active; 'I' for Inactive)
REMARK    1  A    between atoms: C_1  and  O_2
REMARK    2  A    between atoms: O_2  and  C_3
REMARK    3  A    between atoms: C_7  and  C_8
REMARK    4  A    between atoms: C_10  and  N_11
REMARK    5  A    between atoms: C_12  and  C_14
REMARK    6  A    between atoms: C_14  and  S_15
REMARK    7  A    between atoms: S_15  and  C_16
REMARK    8  A    between atoms: C_19  and  O_20
REMARK    9  A    between atoms: C_22  and  O_23
REMARK   10  A    between atoms: C_26  and  C_27
REMARK                            x       y       z     vdW  Elec       q    Type
REMARK                         _______ _______ _______ _____ _____    ______ ____
ROOT
ATOM      1  S   UNL     1       6.513   7.339  16.893  0.00  0.00    +0.000 S 
ENDROOT
BRANCH   1   2
ATOM      2  C   UNL     1       5.493   6.230  17.807  0.00  0.00    +0.000 A 
ATOM      3  S   UNL     1       6.113   4.723  18.336  0.00  0.00    +0.000 S 
ATOM      4  C   UNL     1       4.610   4.255  19.014  0.00  0.00    +0.000 A 
ATOM      5  C   UNL     1       4.275   3.080  19.697  0.00  0.00    +0.000 A 
ATOM      6  C   UNL     1       2.983   2.921  20.164  0.00  0.00    +0.000 A 
ATOM      7  C   UNL     1       2.084   3.941  19.918  0.00  0.00    +0.000 A 
ATOM      8  N   UNL     1       2.356   5.079  19.262  0.00  0.00    +0.000 NA
ATOM      9  C   UNL     1       3.634   5.231  18.815  0.00  0.00    +0.000 A 
ATOM     10  C   UNL     1       4.149   6.360  18.108  0.00  0.00    +0.000 A 
BRANCH   5  11
ATOM     11  O   UNL     1       5.180   2.074  19.927  0.00  0.00    +0.000 OA
ATOM     12  H   UNL     1       5.967   2.252  19.382  0.00  0.00    +0.000 HD
ENDBRANCH   5  11
BRANCH   7  13
ATOM     13  O   UNL     1       0.795   3.839  20.361  0.00  0.00    +0.000 OA
ATOM     14  H   UNL     1       0.571   4.650  20.841  0.00  0.00    +0.000 HD
ENDBRANCH   7  13
BRANCH  10  15
ATOM     15  C   UNL     1       3.371   7.498  17.753  0.00  0.00    +0.000 C 
ATOM     16  N   UNL     1       2.720   8.400  17.388  0.00  0.00    +0.000 NA
ENDBRANCH  10  15
ENDBRANCH   1   2
BRANCH   1  17
ATOM     17  C   UNL     1       7.945   7.534  17.995  0.00  0.00    +0.000 C 
BRANCH  17  19
ATOM     18  N   UNL     1       9.087   9.282  19.311  0.00  0.00    +0.000 N 
ATOM     19  C   UNL     1       8.150   9.013  18.309  0.00  0.00    +0.000 C 
ATOM     20  O   UNL     1       7.542   9.849  17.640  0.00  0.00    +0.000 OA
ATOM     21  H   UNL     1       9.614   8.512  19.712  0.00  0.00    +0.000 HD
BRANCH  18  29
ATOM     22  C   UNL     1      10.235  11.471  19.107  0.00  0.00    +0.000 A 
ATOM     23  C   UNL     1      10.457  12.761  19.621  0.00  0.00    +0.000 A 
ATOM     24  C   UNL     1       9.986  13.129  20.884  0.00  0.00    +0.000 A 
ATOM     25 CL   UNL     1      10.405  14.696  21.467  0.00  0.00    +0.000 Cl
ATOM     26  C   UNL     1       9.247  12.223  21.636  0.00  0.00    +0.000 A 
ATOM     27  C   UNL     1       8.757  12.462  23.033  0.00  0.00    +0.000 C 
ATOM     28  C   UNL     1       8.953  10.971  21.076  0.00  0.00    +0.000 A 
ATOM     29  C   UNL     1       9.407  10.575  19.815  0.00  0.00    +0.000 A 
BRANCH  22  31
ATOM     30  C   UNL     1      11.520  12.125  17.246  0.00  0.00    +0.000 C 
ATOM     31  O   UNL     1      10.809  11.072  17.918  0.00  0.00    +0.000 OA
ENDBRANCH  22  31
ENDBRANCH  18  29
ENDBRANCH  17  19
ENDBRANCH   1  17
TORSDOF 8
ENDMDL
MODEL 4
REMARK VINA RESULT:      -7.3      6.748     10.454
REMARK  Name = 
REMARK  10 active torsions:
REMARK  status: ('A' for Active; 'I' for Inactive)
REMARK    1  A    between atoms: C_1  and  O_2
REMARK    2  A    between atoms: O_2  and  C_3
REMARK    3  A    between atoms: C_7  and  C_8
REMARK    4  A    between atoms: C_10  and  N_11
REMARK    5  A    between atoms: C_12  and  C_14
REMARK    6  A    between atoms: C_14  and  S_15
REMARK    7  A    between atoms: S_15  and  C_16
REMARK    8  A    between atoms: C_19  and  O_20
REMARK    9  A    between atoms: C_22  and  O_23
REMARK   10  A    between atoms: C_26  and  C_27
REMARK                            x       y       z     vdW  Elec       q    Type
REMARK                         _______ _______ _______ _____ _____    ______ ____
ROOT
ATOM      1  S   UNL     1      -0.628  10.673  22.365  0.00  0.00    +0.000 S 
ENDROOT
BRANCH   1   2
ATOM      2  C   UNL     1       0.038  11.962  21.365  0.00  0.00    +0.000 A 
ATOM      3  S   UNL     1       0.864  11.588  19.912  0.00  0.00    +0.000 S 
ATOM      4  C   UNL     1       1.234  13.234  19.607  0.00  0.00    +0.000 A 
ATOM      5  C   UNL     1       1.921  13.801  18.528  0.00  0.00    +0.000 A 
ATOM      6  C   UNL     1       2.098  15.173  18.492  0.00  0.00    +0.000 A 
ATOM      7  C   UNL     1       1.587  15.911  19.542  0.00  0.00    +0.000 A 
ATOM      8  N   UNL     1       0.930  15.412  20.601  0.00  0.00    +0.000 NA
ATOM      9  C   UNL     1       0.752  14.061  20.621  0.00  0.00    +0.000 A 
ATOM     10  C   UNL     1       0.075  13.318  21.636  0.00  0.00    +0.000 A 
BRANCH   5  11
ATOM     11  O   UNL     1       2.427  13.052  17.495  0.00  0.00    +0.000 OA
ATOM     12  H   UNL     1       2.213  13.510  16.663  0.00  0.00    +0.000 HD
ENDBRANCH   5  11
BRANCH   7  13
ATOM     13  O   UNL     1       1.729  17.271  19.556  0.00  0.00    +0.000 OA
ATOM     14  H   UNL     1       1.693  17.592  18.643  0.00  0.00    +0.000 HD
ENDBRANCH   7  13
BRANCH  10  15
ATOM     15  C   UNL     1      -0.503  13.903  22.798  0.00  0.00    +0.000 C 
ATOM     16  N   UNL     1      -1.050  14.362  23.725  0.00  0.00    +0.000 NA
ENDBRANCH  10  15
ENDBRANCH   1   2
BRANCH   1  17
ATOM     17  C   UNL     1       0.798   9.563  22.554  0.00  0.00    +0.000 C 
BRANCH  17  19
ATOM     18  N   UNL     1       1.857   7.783  21.210  0.00  0.00    +0.000 N 
ATOM     19  C   UNL     1       0.655   8.380  21.600  0.00  0.00    +0.000 C 
ATOM     20  O   UNL     1      -0.477   8.002  21.295  0.00  0.00    +0.000 OA
ATOM     21  H   UNL     1       2.726   8.110  21.622  0.00  0.00    +0.000 HD
BRANCH  18  29
ATOM     22  C   UNL     1       2.439   6.899  18.967  0.00  0.00    +0.000 A 
ATOM     23  C   UNL     1       2.609   5.786  18.125  0.00  0.00    +0.000 A 
ATOM     24  C   UNL     1       2.207   4.508  18.521  0.00  0.00    +0.000 A 
ATOM     25 CL   UNL     1       2.359   3.231  17.373  0.00  0.00    +0.000 Cl
ATOM     26  C   UNL     1       1.666   4.317  19.787  0.00  0.00    +0.000 A 
ATOM     27  C   UNL     1       1.121   3.018  20.302  0.00  0.00    +0.000 C 
ATOM     28  C   UNL     1       1.585   5.416  20.654  0.00  0.00    +0.000 A 
ATOM     29  C   UNL     1       1.981   6.705  20.288  0.00  0.00    +0.000 A 
BRANCH  22  31
ATOM     30  C   UNL     1       1.646   8.766  17.773  0.00  0.00    +0.000 C 
ATOM     31  O   UNL     1       2.719   8.174  18.524  0.00  0.00    +0.000 OA
ENDBRANCH  22  31
ENDBRANCH  18  29
ENDBRANCH  17  19
ENDBRANCH   1  17
TORSDOF 8
ENDMDL
MODEL 5
REMARK VINA RESULT:      -7.3      7.195     10.229
REMARK  Name = 
REMARK  10 active torsions:
REMARK  status: ('A' for Active; 'I' for Inactive)
REMARK    1  A    between atoms: C_1  and  O_2
REMARK    2  A    between atoms: O_2  and  C_3
REMARK    3  A    between atoms: C_7  and  C_8
REMARK    4  A    between atoms: C_10  and  N_11
REMARK    5  A    between atoms: C_12  and  C_14
REMARK    6  A    between atoms: C_14  and  S_15
REMARK    7  A    between atoms: S_15  and  C_16
REMARK    8  A    between atoms: C_19  and  O_20
REMARK    9  A    between atoms: C_22  and  O_23
REMARK   10  A    between atoms: C_26  and  C_27
REMARK                            x       y       z     vdW  Elec       q    Type
REMARK                         _______ _______ _______ _____ _____    ______ ____
ROOT
ATOM      1  S   UNL     1       1.118  11.379  20.451  0.00  0.00    +0.000 S 
ENDROOT
BRANCH   1   2
ATOM      2  C   UNL     1      -0.464  11.863  21.057  0.00  0.00    +0.000 A 
ATOM      3  S   UNL     1      -1.362  13.080  20.252  0.00  0.00    +0.000 S 
ATOM      4  C   UNL     1      -2.625  13.021  21.411  0.00  0.00    +0.000 A 
ATOM      5  C   UNL     1      -3.820  13.751  21.454  0.00  0.00    +0.000 A 
ATOM      6  C   UNL     1      -4.702  13.529  22.496  0.00  0.00    +0.000 A 
ATOM      7  C   UNL     1      -4.344  12.596  23.450  0.00  0.00    +0.000 A 
ATOM      8  N   UNL     1      -3.209  11.880  23.455  0.00  0.00    +0.000 NA
ATOM      9  C   UNL     1      -2.351  12.097  22.418  0.00  0.00    +0.000 A 
ATOM     10  C   UNL     1      -1.098  11.444  22.213  0.00  0.00    +0.000 A 
BRANCH   5  11
ATOM     11  O   UNL     1      -4.156  14.678  20.500  0.00  0.00    +0.000 OA
ATOM     12  H   UNL     1      -4.379  14.197  19.684  0.00  0.00    +0.000 HD
ENDBRANCH   5  11
BRANCH   7  13
ATOM     13  O   UNL     1      -5.181  12.334  24.499  0.00  0.00    +0.000 OA
ATOM     14  H   UNL     1      -5.281  13.144  25.020  0.00  0.00    +0.000 HD
ENDBRANCH   7  13
BRANCH  10  15
ATOM     15  C   UNL     1      -0.558  10.466  23.095  0.00  0.00    +0.000 C 
ATOM     16  N   UNL     1      -0.041   9.679  23.791  0.00  0.00    +0.000 NA
ENDBRANCH  10  15
ENDBRANCH   1   2
BRANCH   1  17
ATOM     17  C   UNL     1       0.697   9.999  19.347  0.00  0.00    +0.000 C 
BRANCH  17  19
ATOM     18  N   UNL     1       1.887   7.895  18.841  0.00  0.00    +0.000 N 
ATOM     19  C   UNL     1       1.373   8.723  19.844  0.00  0.00    +0.000 C 
ATOM     20  O   UNL     1       1.471   8.542  21.058  0.00  0.00    +0.000 OA
ATOM     21  H   UNL     1       1.849   8.209  17.876  0.00  0.00    +0.000 HD
BRANCH  18  29
ATOM     22  C   UNL     1       3.621   6.208  18.297  0.00  0.00    +0.000 A 
ATOM     23  C   UNL     1       4.236   4.980  18.602  0.00  0.00    +0.000 A 
ATOM     24  C   UNL     1       3.688   4.109  19.545  0.00  0.00    +0.000 A 
ATOM     25 CL   UNL     1       4.458   2.582  19.766  0.00  0.00    +0.000 Cl
ATOM     26  C   UNL     1       2.535   4.472  20.233  0.00  0.00    +0.000 A 
ATOM     27  C   UNL     1       1.802   3.598  21.206  0.00  0.00    +0.000 C 
ATOM     28  C   UNL     1       1.981   5.737  19.990  0.00  0.00    +0.000 A 
ATOM     29  C   UNL     1       2.508   6.632  19.054  0.00  0.00    +0.000 A 
BRANCH  22  31
ATOM     30  C   UNL     1       5.229   6.446  16.594  0.00  0.00    +0.000 C 
ATOM     31  O   UNL     1       4.094   7.005  17.277  0.00  0.00    +0.000 OA
ENDBRANCH  22  31
ENDBRANCH  18  29
ENDBRANCH  17  19
ENDBRANCH   1  17
TORSDOF 8
ENDMDL
MODEL 6
REMARK VINA RESULT:      -7.2      6.006      7.321
REMARK  Name = 
REMARK  10 active torsions:
REMARK  status: ('A' for Active; 'I' for Inactive)
REMARK    1  A    between atoms: C_1  and  O_2
REMARK    2  A    between atoms: O_2  and  C_3
REMARK    3  A    between atoms: C_7  and  C_8
REMARK    4  A    between atoms: C_10  and  N_11
REMARK    5  A    between atoms: C_12  and  C_14
REMARK    6  A    between atoms: C_14  and  S_15
REMARK    7  A    between atoms: S_15  and  C_16
REMARK    8  A    between atoms: C_19  and  O_20
REMARK    9  A    between atoms: C_22  and  O_23
REMARK   10  A    between atoms: C_26  and  C_27
REMARK                            x       y       z     vdW  Elec       q    Type
REMARK                         _______ _______ _______ _____ _____    ______ ____
ROOT
ATOM      1  S   UNL     1       2.558   8.889  17.994  0.00  0.00    +0.000 S 
ENDROOT
BRANCH   1   2
ATOM      2  C   UNL     1       2.755   7.255  18.623  0.00  0.00    +0.000 A 
ATOM      3  S   UNL     1       3.540   6.057  17.684  0.00  0.00    +0.000 S 
ATOM      4  C   UNL     1       3.273   4.845  18.867  0.00  0.00    +0.000 A 
ATOM      5  C   UNL     1       3.658   3.499  18.856  0.00  0.00    +0.000 A 
ATOM      6  C   UNL     1       3.332   2.700  19.938  0.00  0.00    +0.000 A 
ATOM      7  C   UNL     1       2.629   3.284  20.974  0.00  0.00    +0.000 A 
ATOM      8  N   UNL     1       2.232   4.564  21.025  0.00  0.00    +0.000 NA
ATOM      9  C   UNL     1       2.567   5.345  19.960  0.00  0.00    +0.000 A 
ATOM     10  C   UNL     1       2.262   6.732  19.805  0.00  0.00    +0.000 A 
BRANCH   5  11
ATOM     11  O   UNL     1       4.352   2.935  17.815  0.00  0.00    +0.000 OA
ATOM     12  H   UNL     1       4.822   2.155  18.160  0.00  0.00    +0.000 HD
ENDBRANCH   5  11
BRANCH   7  13
ATOM     13  O   UNL     1       2.285   2.542  22.070  0.00  0.00    +0.000 OA
ATOM     14  H   UNL     1       3.096   2.255  22.513  0.00  0.00    +0.000 HD
ENDBRANCH   7  13
BRANCH  10  15
ATOM     15  C   UNL     1       1.535   7.498  20.760  0.00  0.00    +0.000 C 
ATOM     16  N   UNL     1       0.930   8.185  21.490  0.00  0.00    +0.000 NA
ENDBRANCH  10  15
ENDBRANCH   1   2
BRANCH   1  17
ATOM     17  C   UNL     1       0.773   8.955  17.660  0.00  0.00    +0.000 C 
BRANCH  17  19
ATOM     18  N   UNL     1       0.915  10.586  19.508  0.00  0.00    +0.000 N 
ATOM     19  C   UNL     1       0.149  10.109  18.441  0.00  0.00    +0.000 C 
ATOM     20  O   UNL     1      -0.926  10.570  18.055  0.00  0.00    +0.000 OA
ATOM     21  H   UNL     1       1.844  10.203  19.659  0.00  0.00    +0.000 HD
BRANCH  18  29
ATOM     22  C   UNL     1       1.208  12.843  20.495  0.00  0.00    +0.000 A 
ATOM     23  C   UNL     1       0.727  13.847  21.354  0.00  0.00    +0.000 A 
ATOM     24  C   UNL     1      -0.335  13.605  22.228  0.00  0.00    +0.000 A 
ATOM     25 CL   UNL     1      -0.776  14.867  23.317  0.00  0.00    +0.000 Cl
ATOM     26  C   UNL     1      -0.964  12.365  22.225  0.00  0.00    +0.000 A 
ATOM     27  C   UNL     1      -2.056  11.952  23.166  0.00  0.00    +0.000 C 
ATOM     28  C   UNL     1      -0.538  11.401  21.300  0.00  0.00    +0.000 A 
ATOM     29  C   UNL     1       0.520  11.614  20.412  0.00  0.00    +0.000 A 
BRANCH  22  31
ATOM     30  C   UNL     1       2.139  13.992  18.663  0.00  0.00    +0.000 C 
ATOM     31  O   UNL     1       2.335  13.045  19.727  0.00  0.00    +0.000 OA
ENDBRANCH  22  31
ENDBRANCH  18  29
ENDBRANCH  17  19
ENDBRANCH   1  17
TORSDOF 8
ENDMDL
MODEL 7
REMARK VINA RESULT:      -7.1      7.021     10.309
REMARK  Name = 
REMARK  10 active torsions:
REMARK  status: ('A' for Active; 'I' for Inactive)
REMARK    1  A    between atoms: C_1  and  O_2
REMARK    2  A    between atoms: O_2  and  C_3
REMARK    3  A    between atoms: C_7  and  C_8
REMARK    4  A    between atoms: C_10  and  N_11
REMARK    5  A    between atoms: C_12  and  C_14
REMARK    6  A    between atoms: C_14  and  S_15
REMARK    7  A    between atoms: S_15  and  C_16
REMARK    8  A    between atoms: C_19  and  O_20
REMARK    9  A    between atoms: C_22  and  O_23
REMARK   10  A    between atoms: C_26  and  C_27
REMARK                            x       y       z     vdW  Elec       q    Type
REMARK                         _______ _______ _______ _____ _____    ______ ____
ROOT
ATOM      1  S   UNL     1       0.928  11.231  20.704  0.00  0.00    +0.000 S 
ENDROOT
BRANCH   1   2
ATOM      2  C   UNL     1      -0.738  11.487  20.189  0.00  0.00    +0.000 A 
ATOM      3  S   UNL     1      -1.259  10.943  18.651  0.00  0.00    +0.000 S 
ATOM      4  C   UNL     1      -2.832  11.590  18.870  0.00  0.00    +0.000 A 
ATOM      5  C   UNL     1      -3.935  11.543  18.009  0.00  0.00    +0.000 A 
ATOM      6  C   UNL     1      -5.119  12.139  18.405  0.00  0.00    +0.000 A 
ATOM      7  C   UNL     1      -5.141  12.761  19.638  0.00  0.00    +0.000 A 
ATOM      8  N   UNL     1      -4.109  12.838  20.492  0.00  0.00    +0.000 NA
ATOM      9  C   UNL     1      -2.950  12.239  20.098  0.00  0.00    +0.000 A 
ATOM     10  C   UNL     1      -1.734  12.185  20.846  0.00  0.00    +0.000 A 
BRANCH   5  11
ATOM     11  O   UNL     1      -3.893  10.926  16.784  0.00  0.00    +0.000 OA
ATOM     12  H   UNL     1      -3.238  11.395  16.237  0.00  0.00    +0.000 HD
ENDBRANCH   5  11
BRANCH   7  13
ATOM     13  O   UNL     1      -6.286  13.361  20.082  0.00  0.00    +0.000 OA
ATOM     14  H   UNL     1      -6.398  13.152  21.021  0.00  0.00    +0.000 HD
ENDBRANCH   7  13
BRANCH  10  15
ATOM     15  C   UNL     1      -1.563  12.780  22.129  0.00  0.00    +0.000 C 
ATOM     16  N   UNL     1      -1.411  13.195  23.212  0.00  0.00    +0.000 NA
ENDBRANCH  10  15
ENDBRANCH   1   2
BRANCH   1  17
ATOM     17  C   UNL     1       0.740   9.948  21.976  0.00  0.00    +0.000 C 
BRANCH  17  19
ATOM     18  N   UNL     1       1.874   8.114  20.771  0.00  0.00    +0.000 N 
ATOM     19  C   UNL     1       0.669   8.575  21.311  0.00  0.00    +0.000 C 
ATOM     20  O   UNL     1      -0.395   7.957  21.346  0.00  0.00    +0.000 OA
ATOM     21  H   UNL     1       2.717   8.664  20.907  0.00  0.00    +0.000 HD
BRANCH  18  29
ATOM     22  C   UNL     1       2.560   6.862  18.744  0.00  0.00    +0.000 A 
ATOM     23  C   UNL     1       2.772   5.621  18.115  0.00  0.00    +0.000 A 
ATOM     24  C   UNL     1       2.355   4.428  18.709  0.00  0.00    +0.000 A 
ATOM     25 CL   UNL     1       2.563   2.973  17.807  0.00  0.00    +0.000 Cl
ATOM     26  C   UNL     1       1.757   4.452  19.964  0.00  0.00    +0.000 A 
ATOM     27  C   UNL     1       1.193   3.257  20.671  0.00  0.00    +0.000 C 
ATOM     28  C   UNL     1       1.634   5.684  20.622  0.00  0.00    +0.000 A 
ATOM     29  C   UNL     1       2.043   6.895  20.056  0.00  0.00    +0.000 A 
BRANCH  22  31
ATOM     30  C   UNL     1       1.692   8.771  17.674  0.00  0.00    +0.000 C 
ATOM     31  O   UNL     1       2.857   8.044  18.100  0.00  0.00    +0.000 OA
ENDBRANCH  22  31
ENDBRANCH  18  29
ENDBRANCH  17  19
ENDBRANCH   1  17
TORSDOF 8
ENDMDL
MODEL 8
REMARK VINA RESULT:      -7.1      6.517     10.099
REMARK  Name = 
REMARK  10 active torsions:
REMARK  status: ('A' for Active; 'I' for Inactive)
REMARK    1  A    between atoms: C_1  and  O_2
REMARK    2  A    between atoms: O_2  and  C_3
REMARK    3  A    between atoms: C_7  and  C_8
REMARK    4  A    between atoms: C_10  and  N_11
REMARK    5  A    between atoms: C_12  and  C_14
REMARK    6  A    between atoms: C_14  and  S_15
REMARK    7  A    between atoms: S_15  and  C_16
REMARK    8  A    between atoms: C_19  and  O_20
REMARK    9  A    between atoms: C_22  and  O_23
REMARK   10  A    between atoms: C_26  and  C_27
REMARK                            x       y       z     vdW  Elec       q    Type
REMARK                         _______ _______ _______ _____ _____    ______ ____
ROOT
ATOM      1  S   UNL     1      -0.027   9.619  18.264  0.00  0.00    +0.000 S 
ENDROOT
BRANCH   1   2
ATOM      2  C   UNL     1      -0.298  11.039  19.273  0.00  0.00    +0.000 A 
ATOM      3  S   UNL     1      -0.538  12.575  18.555  0.00  0.00    +0.000 S 
ATOM      4  C   UNL     1      -0.639  13.356  20.078  0.00  0.00    +0.000 A 
ATOM      5  C   UNL     1      -0.860  14.708  20.366  0.00  0.00    +0.000 A 
ATOM      6  C   UNL     1      -0.907  15.113  21.688  0.00  0.00    +0.000 A 
ATOM      7  C   UNL     1      -0.722  14.148  22.659  0.00  0.00    +0.000 A 
ATOM      8  N   UNL     1      -0.500  12.845  22.432  0.00  0.00    +0.000 NA
ATOM      9  C   UNL     1      -0.466  12.454  21.127  0.00  0.00    +0.000 A 
ATOM     10  C   UNL     1      -0.257  11.123  20.653  0.00  0.00    +0.000 A 
BRANCH   5  11
ATOM     11  O   UNL     1      -1.037  15.655  19.387  0.00  0.00    +0.000 OA
ATOM     12  H   UNL     1      -1.632  16.339  19.741  0.00  0.00    +0.000 HD
ENDBRANCH   5  11
BRANCH   7  13
ATOM     13  O   UNL     1      -0.764  14.492  23.982  0.00  0.00    +0.000 OA
ATOM     14  H   UNL     1      -1.323  13.853  24.447  0.00  0.00    +0.000 HD
ENDBRANCH   7  13
BRANCH  10  15
ATOM     15  C   UNL     1      -0.035  10.002  21.503  0.00  0.00    +0.000 C 
ATOM     16  N   UNL     1       0.069   9.062  22.193  0.00  0.00    +0.000 NA
ENDBRANCH  10  15
ENDBRANCH   1   2
BRANCH   1  17
ATOM     17  C   UNL     1       1.779   9.434  18.347  0.00  0.00    +0.000 C 
BRANCH  17  19
ATOM     18  N   UNL     1       2.462   7.137  17.751  0.00  0.00    +0.000 N 
ATOM     19  C   UNL     1       2.128   8.014  18.787  0.00  0.00    +0.000 C 
ATOM     20  O   UNL     1       2.150   7.759  19.992  0.00  0.00    +0.000 OA
ATOM     21  H   UNL     1       2.523   7.495  16.803  0.00  0.00    +0.000 HD
BRANCH  18  29
ATOM     22  C   UNL     1       4.053   5.237  17.641  0.00  0.00    +0.000 A 
ATOM     23  C   UNL     1       4.314   3.877  17.884  0.00  0.00    +0.000 A 
ATOM     24  C   UNL     1       3.294   2.998  18.254  0.00  0.00    +0.000 A 
ATOM     25 CL   UNL     1       3.698   1.330  18.421  0.00  0.00    +0.000 Cl
ATOM     26  C   UNL     1       2.000   3.476  18.431  0.00  0.00    +0.000 A 
ATOM     27  C   UNL     1       0.805   2.627  18.745  0.00  0.00    +0.000 C 
ATOM     28  C   UNL     1       1.768   4.850  18.277  0.00  0.00    +0.000 A 
ATOM     29  C   UNL     1       2.768   5.755  17.908  0.00  0.00    +0.000 A 
BRANCH  22  31
ATOM     30  C   UNL     1       5.356   5.831  15.773  0.00  0.00    +0.000 C 
ATOM     31  O   UNL     1       5.035   6.073  17.153  0.00  0.00    +0.000 OA
ENDBRANCH  22  31
ENDBRANCH  18  29
ENDBRANCH  17  19
ENDBRANCH   1  17
TORSDOF 8
ENDMDL
MODEL 9
REMARK VINA RESULT:      -7.1      6.438      9.892
REMARK  Name = 
REMARK  10 active torsions:
REMARK  status: ('A' for Active; 'I' for Inactive)
REMARK    1  A    between atoms: C_1  and  O_2
REMARK    2  A    between atoms: O_2  and  C_3
REMARK    3  A    between atoms: C_7  and  C_8
REMARK    4  A    between atoms: C_10  and  N_11
REMARK    5  A    between atoms: C_12  and  C_14
REMARK    6  A    between atoms: C_14  and  S_15
REMARK    7  A    between atoms: S_15  and  C_16
REMARK    8  A    between atoms: C_19  and  O_20
REMARK    9  A    between atoms: C_22  and  O_23
REMARK   10  A    between atoms: C_26  and  C_27
REMARK                            x       y       z     vdW  Elec       q    Type
REMARK                         _______ _______ _______ _____ _____    ______ ____
ROOT
ATOM      1  S   UNL     1       1.492  10.279  18.381  0.00  0.00    +0.000 S 
ENDROOT
BRANCH   1   2
ATOM      2  C   UNL     1      -0.146  10.830  18.724  0.00  0.00    +0.000 A 
ATOM      3  S   UNL     1      -1.440  10.382  17.694  0.00  0.00    +0.000 S 
ATOM      4  C   UNL     1      -2.574  11.305  18.591  0.00  0.00    +0.000 A 
ATOM      5  C   UNL     1      -3.951  11.455  18.387  0.00  0.00    +0.000 A 
ATOM      6  C   UNL     1      -4.673  12.257  19.252  0.00  0.00    +0.000 A 
ATOM      7  C   UNL     1      -3.982  12.879  20.274  0.00  0.00    +0.000 A 
ATOM      8  N   UNL     1      -2.665  12.772  20.504  0.00  0.00    +0.000 NA
ATOM      9  C   UNL     1      -1.964  11.971  19.653  0.00  0.00    +0.000 A 
ATOM     10  C   UNL     1      -0.563  11.701  19.714  0.00  0.00    +0.000 A 
BRANCH   5  11
ATOM     11  O   UNL     1      -4.620  10.834  17.362  0.00  0.00    +0.000 OA
ATOM     12  H   UNL     1      -4.982  11.526  16.781  0.00  0.00    +0.000 HD
ENDBRANCH   5  11
BRANCH   7  13
ATOM     13  O   UNL     1      -4.647  13.679  21.161  0.00  0.00    +0.000 OA
ATOM     14  H   UNL     1      -5.484  13.953  20.759  0.00  0.00    +0.000 HD
ENDBRANCH   7  13
BRANCH  10  15
ATOM     15  C   UNL     1       0.313  12.261  20.687  0.00  0.00    +0.000 C 
ATOM     16  N   UNL     1       1.087  12.732  21.428  0.00  0.00    +0.000 NA
ENDBRANCH  10  15
ENDBRANCH   1   2
BRANCH   1  17
ATOM     17  C   UNL     1       1.763   9.053  19.694  0.00  0.00    +0.000 C 
BRANCH  17  19
ATOM     18  N   UNL     1       2.289   6.658  19.982  0.00  0.00    +0.000 N 
ATOM     19  C   UNL     1       2.072   7.694  19.070  0.00  0.00    +0.000 C 
ATOM     20  O   UNL     1       2.050   7.591  17.843  0.00  0.00    +0.000 OA
ATOM     21  H   UNL     1       2.165   6.839  20.973  0.00  0.00    +0.000 HD
BRANCH  18  29
ATOM     22  C   UNL     1       3.990   4.933  19.446  0.00  0.00    +0.000 A 
ATOM     23  C   UNL     1       4.287   3.584  19.183  0.00  0.00    +0.000 A 
ATOM     24  C   UNL     1       3.274   2.646  18.974  0.00  0.00    +0.000 A 
ATOM     25 CL   UNL     1       3.745   1.042  18.550  0.00  0.00    +0.000 Cl
ATOM     26  C   UNL     1       1.942   3.035  19.071  0.00  0.00    +0.000 A 
ATOM     27  C   UNL     1       0.765   2.149  18.790  0.00  0.00    +0.000 C 
ATOM     28  C   UNL     1       1.656   4.361  19.425  0.00  0.00    +0.000 A 
ATOM     29  C   UNL     1       2.648   5.322  19.641  0.00  0.00    +0.000 A 
BRANCH  22  31
ATOM     30  C   UNL     1       6.269   5.394  19.080  0.00  0.00    +0.000 C 
ATOM     31  O   UNL     1       4.990   5.878  19.524  0.00  0.00    +0.000 OA
ENDBRANCH  22  31
ENDBRANCH  18  29
ENDBRANCH  17  19
ENDBRANCH   1  17
TORSDOF 8
ENDMDL
