MODEL 1
REMARK VINA RESULT:      -7.5      0.000      0.000
REMARK  Name = 
REMARK  3 active torsions:
REMARK  status: ('A' for Active; 'I' for Inactive)
REMARK    1  A    between atoms: C_4  and  C_5
REMARK    2  A    between atoms: C_5  and  C_6
REMARK    3  A    between atoms: C_6  and  N_7
REMARK                            x       y       z     vdW  Elec       q    Type
REMARK                         _______ _______ _______ _____ _____    ______ ____
ROOT
ATOM      1  N   UNL     1       5.715   4.450  15.813  0.00  0.00    +0.000 N 
ATOM      2  N   UNL     1       6.574   5.342  16.353  0.00  0.00    +0.000 NA
ATOM      3  N   UNL     1       7.472   5.659  15.430  0.00  0.00    +0.000 NA
ATOM      4  C   UNL     1       7.141   5.007  14.277  0.00  0.00    +0.000 A 
ATOM      5  C   UNL     1       7.772   5.031  13.025  0.00  0.00    +0.000 A 
ATOM      6  C   UNL     1       7.211   4.297  11.981  0.00  0.00    +0.000 A 
ATOM      7  C   UNL     1       6.039   3.562  12.179  0.00  0.00    +0.000 A 
ATOM      8  C   UNL     1       5.400   3.517  13.435  0.00  0.00    +0.000 A 
ATOM      9  C   UNL     1       5.986   4.246  14.477  0.00  0.00    +0.000 A 
ENDROOT
BRANCH   1  10
ATOM     10  C   UNL     1       4.700   3.871  16.690  0.00  0.00    +0.000 C 
BRANCH  10  11
ATOM     11  C   UNL     1       3.831   4.963  17.347  0.00  0.00    +0.000 C 
BRANCH  11  15
ATOM     12  C   UNL     1       0.826   3.715  20.227  0.00  0.00    +0.000 A 
ATOM     13  C   UNL     1       1.598   4.846  20.495  0.00  0.00    +0.000 A 
ATOM     14  C   UNL     1       2.571   5.285  19.583  0.00  0.00    +0.000 A 
ATOM     15  C   UNL     1       2.787   4.596  18.385  0.00  0.00    +0.000 A 
ATOM     16  C   UNL     1       2.001   3.450  18.136  0.00  0.00    +0.000 A 
ATOM     17  C   UNL     1       1.031   3.015  19.045  0.00  0.00    +0.000 A 
ENDBRANCH  11  15
ENDBRANCH  10  11
ENDBRANCH   1  10
TORSDOF 3
ENDMDL
MODEL 2
REMARK VINA RESULT:      -7.5      2.690      3.605
REMARK  Name = 
REMARK  3 active torsions:
REMARK  status: ('A' for Active; 'I' for Inactive)
REMARK    1  A    between atoms: C_4  and  C_5
REMARK    2  A    between atoms: C_5  and  C_6
REMARK    3  A    between atoms: C_6  and  N_7
REMARK                            x       y       z     vdW  Elec       q    Type
REMARK                         _______ _______ _______ _____ _____    ______ ____
ROOT
ATOM      1  N   UNL     1       5.244   4.835  16.740  0.00  0.00    +0.000 N 
ATOM      2  N   UNL     1       5.024   5.615  15.658  0.00  0.00    +0.000 NA
ATOM      3  N   UNL     1       5.775   6.703  15.776  0.00  0.00    +0.000 NA
ATOM      4  C   UNL     1       6.520   6.580  16.914  0.00  0.00    +0.000 A 
ATOM      5  C   UNL     1       7.469   7.457  17.458  0.00  0.00    +0.000 A 
ATOM      6  C   UNL     1       8.131   7.083  18.627  0.00  0.00    +0.000 A 
ATOM      7  C   UNL     1       7.860   5.853  19.233  0.00  0.00    +0.000 A 
ATOM      8  C   UNL     1       6.900   4.966  18.706  0.00  0.00    +0.000 A 
ATOM      9  C   UNL     1       6.232   5.366  17.542  0.00  0.00    +0.000 A 
ENDROOT
BRANCH   1  10
ATOM     10  C   UNL     1       4.433   3.628  16.879  0.00  0.00    +0.000 C 
BRANCH  10  11
ATOM     11  C   UNL     1       3.023   3.952  17.413  0.00  0.00    +0.000 C 
BRANCH  11  15
ATOM     12  C   UNL     1       1.716   2.964  21.438  0.00  0.00    +0.000 A 
ATOM     13  C   UNL     1       3.032   2.691  21.064  0.00  0.00    +0.000 A 
ATOM     14  C   UNL     1       3.492   3.006  19.775  0.00  0.00    +0.000 A 
ATOM     15  C   UNL     1       2.640   3.601  18.839  0.00  0.00    +0.000 A 
ATOM     16  C   UNL     1       1.310   3.862  19.236  0.00  0.00    +0.000 A 
ATOM     17  C   UNL     1       0.853   3.550  20.519  0.00  0.00    +0.000 A 
ENDBRANCH  11  15
ENDBRANCH  10  11
ENDBRANCH   1  10
TORSDOF 3
ENDMDL
MODEL 3
REMARK VINA RESULT:      -7.4      2.193      3.014
REMARK  Name = 
REMARK  3 active torsions:
REMARK  status: ('A' for Active; 'I' for Inactive)
REMARK    1  A    between atoms: C_4  and  C_5
REMARK    2  A    between atoms: C_5  and  C_6
REMARK    3  A    between atoms: C_6  and  N_7
REMARK                            x       y       z     vdW  Elec       q    Type
REMARK                         _______ _______ _______ _____ _____    ______ ____
ROOT
ATOM      1  N   UNL     1       4.617   6.048  18.316  0.00  0.00    +0.000 N 
ATOM      2  N   UNL     1       5.259   5.550  19.396  0.00  0.00    +0.000 NA
ATOM      3  N   UNL     1       6.276   4.815  18.966  0.00  0.00    +0.000 NA
ATOM      4  C   UNL     1       6.312   4.898  17.604  0.00  0.00    +0.000 A 
ATOM      5  C   UNL     1       7.206   4.312  16.697  0.00  0.00    +0.000 A 
ATOM      6  C   UNL     1       7.052   4.584  15.338  0.00  0.00    +0.000 A 
ATOM      7  C   UNL     1       6.033   5.431  14.894  0.00  0.00    +0.000 A 
ATOM      8  C   UNL     1       5.117   6.017  15.791  0.00  0.00    +0.000 A 
ATOM      9  C   UNL     1       5.277   5.720  17.151  0.00  0.00    +0.000 A 
ENDROOT
BRANCH   1  10
ATOM     10  C   UNL     1       3.388   6.802  18.549  0.00  0.00    +0.000 C 
BRANCH  10  11
ATOM     11  C   UNL     1       2.146   6.021  18.073  0.00  0.00    +0.000 C 
BRANCH  11  15
ATOM     12  C   UNL     1       1.481   1.906  19.301  0.00  0.00    +0.000 A 
ATOM     13  C   UNL     1       2.064   2.160  18.060  0.00  0.00    +0.000 A 
ATOM     14  C   UNL     1       2.303   3.477  17.634  0.00  0.00    +0.000 A 
ATOM     15  C   UNL     1       1.962   4.562  18.447  0.00  0.00    +0.000 A 
ATOM     16  C   UNL     1       1.366   4.284  19.697  0.00  0.00    +0.000 A 
ATOM     17  C   UNL     1       1.130   2.973  20.120  0.00  0.00    +0.000 A 
ENDBRANCH  11  15
ENDBRANCH  10  11
ENDBRANCH   1  10
TORSDOF 3
ENDMDL
MODEL 4
REMARK VINA RESULT:      -7.4      2.577      3.438
REMARK  Name = 
REMARK  3 active torsions:
REMARK  status: ('A' for Active; 'I' for Inactive)
REMARK    1  A    between atoms: C_4  and  C_5
REMARK    2  A    between atoms: C_5  and  C_6
REMARK    3  A    between atoms: C_6  and  N_7
REMARK                            x       y       z     vdW  Elec       q    Type
REMARK                         _______ _______ _______ _____ _____    ______ ____
ROOT
ATOM      1  N   UNL     1       5.284   4.672  16.687  0.00  0.00    +0.000 N 
ATOM      2  N   UNL     1       5.154   5.375  15.540  0.00  0.00    +0.000 NA
ATOM      3  N   UNL     1       5.913   6.459  15.633  0.00  0.00    +0.000 NA
ATOM      4  C   UNL     1       6.577   6.408  16.825  0.00  0.00    +0.000 A 
ATOM      5  C   UNL     1       7.501   7.310  17.371  0.00  0.00    +0.000 A 
ATOM      6  C   UNL     1       8.074   7.011  18.607  0.00  0.00    +0.000 A 
ATOM      7  C   UNL     1       7.741   5.832  19.278  0.00  0.00    +0.000 A 
ATOM      8  C   UNL     1       6.803   4.921  18.750  0.00  0.00    +0.000 A 
ATOM      9  C   UNL     1       6.224   5.246  17.516  0.00  0.00    +0.000 A 
ENDROOT
BRANCH   1  10
ATOM     10  C   UNL     1       4.445   3.488  16.853  0.00  0.00    +0.000 C 
BRANCH  10  11
ATOM     11  C   UNL     1       2.971   3.870  17.097  0.00  0.00    +0.000 C 
BRANCH  11  15
ATOM     12  C   UNL     1       1.350   3.584  21.119  0.00  0.00    +0.000 A 
ATOM     13  C   UNL     1       1.672   4.839  20.603  0.00  0.00    +0.000 A 
ATOM     14  C   UNL     1       2.188   4.971  19.304  0.00  0.00    +0.000 A 
ATOM     15  C   UNL     1       2.390   3.845  18.499  0.00  0.00    +0.000 A 
ATOM     16  C   UNL     1       2.065   2.583  19.043  0.00  0.00    +0.000 A 
ATOM     17  C   UNL     1       1.550   2.454  20.337  0.00  0.00    +0.000 A 
ENDBRANCH  11  15
ENDBRANCH  10  11
ENDBRANCH   1  10
TORSDOF 3
ENDMDL
MODEL 5
REMARK VINA RESULT:      -7.3      1.390      1.986
REMARK  Name = 
REMARK  3 active torsions:
REMARK  status: ('A' for Active; 'I' for Inactive)
REMARK    1  A    between atoms: C_4  and  C_5
REMARK    2  A    between atoms: C_5  and  C_6
REMARK    3  A    between atoms: C_6  and  N_7
REMARK                            x       y       z     vdW  Elec       q    Type
REMARK                         _______ _______ _______ _____ _____    ______ ____
ROOT
ATOM      1  N   UNL     1       6.129   5.473  18.001  0.00  0.00    +0.000 N 
ATOM      2  N   UNL     1       7.000   6.505  17.939  0.00  0.00    +0.000 NA
ATOM      3  N   UNL     1       7.527   6.526  16.723  0.00  0.00    +0.000 NA
ATOM      4  C   UNL     1       6.940   5.534  15.990  0.00  0.00    +0.000 A 
ATOM      5  C   UNL     1       7.149   5.169  14.653  0.00  0.00    +0.000 A 
ATOM      6  C   UNL     1       6.388   4.130  14.118  0.00  0.00    +0.000 A 
ATOM      7  C   UNL     1       5.429   3.478  14.899  0.00  0.00    +0.000 A 
ATOM      8  C   UNL     1       5.215   3.824  16.248  0.00  0.00    +0.000 A 
ATOM      9  C   UNL     1       6.001   4.857  16.774  0.00  0.00    +0.000 A 
ENDROOT
BRANCH   1  10
ATOM     10  C   UNL     1       5.509   5.187  19.292  0.00  0.00    +0.000 C 
BRANCH  10  11
ATOM     11  C   UNL     1       4.071   5.740  19.363  0.00  0.00    +0.000 C 
BRANCH  11  15
ATOM     12  C   UNL     1       0.730   2.974  19.632  0.00  0.00    +0.000 A 
ATOM     13  C   UNL     1       1.239   3.541  20.799  0.00  0.00    +0.000 A 
ATOM     14  C   UNL     1       2.311   4.447  20.750  0.00  0.00    +0.000 A 
ATOM     15  C   UNL     1       2.891   4.799  19.527  0.00  0.00    +0.000 A 
ATOM     16  C   UNL     1       2.366   4.208  18.358  0.00  0.00    +0.000 A 
ATOM     17  C   UNL     1       1.298   3.307  18.408  0.00  0.00    +0.000 A 
ENDBRANCH  11  15
ENDBRANCH  10  11
ENDBRANCH   1  10
TORSDOF 3
ENDMDL
MODEL 6
REMARK VINA RESULT:      -7.3      2.205      2.931
REMARK  Name = 
REMARK  3 active torsions:
REMARK  status: ('A' for Active; 'I' for Inactive)
REMARK    1  A    between atoms: C_4  and  C_5
REMARK    2  A    between atoms: C_5  and  C_6
REMARK    3  A    between atoms: C_6  and  N_7
REMARK                            x       y       z     vdW  Elec       q    Type
REMARK                         _______ _______ _______ _____ _____    ______ ____
ROOT
ATOM      1  N   UNL     1       4.497   6.034  18.273  0.00  0.00    +0.000 N 
ATOM      2  N   UNL     1       5.119   5.627  19.402  0.00  0.00    +0.000 NA
ATOM      3  N   UNL     1       6.194   4.934  19.052  0.00  0.00    +0.000 NA
ATOM      4  C   UNL     1       6.286   4.956  17.689  0.00  0.00    +0.000 A 
ATOM      5  C   UNL     1       7.252   4.383  16.851  0.00  0.00    +0.000 A 
ATOM      6  C   UNL     1       7.142   4.580  15.475  0.00  0.00    +0.000 A 
ATOM      7  C   UNL     1       6.097   5.343  14.948  0.00  0.00    +0.000 A 
ATOM      8  C   UNL     1       5.110   5.915  15.776  0.00  0.00    +0.000 A 
ATOM      9  C   UNL     1       5.226   5.692  17.154  0.00  0.00    +0.000 A 
ENDROOT
BRANCH   1  10
ATOM     10  C   UNL     1       3.217   6.724  18.417  0.00  0.00    +0.000 C 
BRANCH  10  11
ATOM     11  C   UNL     1       2.463   6.259  19.679  0.00  0.00    +0.000 C 
BRANCH  11  15
ATOM     12  C   UNL     1       0.949   2.186  19.743  0.00  0.00    +0.000 A 
ATOM     13  C   UNL     1       1.281   2.808  20.947  0.00  0.00    +0.000 A 
ATOM     14  C   UNL     1       1.763   4.126  20.965  0.00  0.00    +0.000 A 
ATOM     15  C   UNL     1       1.920   4.845  19.776  0.00  0.00    +0.000 A 
ATOM     16  C   UNL     1       1.587   4.195  18.568  0.00  0.00    +0.000 A 
ATOM     17  C   UNL     1       1.105   2.882  18.551  0.00  0.00    +0.000 A 
ENDBRANCH  11  15
ENDBRANCH  10  11
ENDBRANCH   1  10
TORSDOF 3
ENDMDL
MODEL 7
REMARK VINA RESULT:      -7.2      3.040      6.791
REMARK  Name = 
REMARK  3 active torsions:
REMARK  status: ('A' for Active; 'I' for Inactive)
REMARK    1  A    between atoms: C_4  and  C_5
REMARK    2  A    between atoms: C_5  and  C_6
REMARK    3  A    between atoms: C_6  and  N_7
REMARK                            x       y       z     vdW  Elec       q    Type
REMARK                         _______ _______ _______ _____ _____    ______ ____
ROOT
ATOM      1  N   UNL     1       3.339   3.489  17.881  0.00  0.00    +0.000 N 
ATOM      2  N   UNL     1       2.377   4.155  17.204  0.00  0.00    +0.000 NA
ATOM      3  N   UNL     1       1.306   4.234  17.982  0.00  0.00    +0.000 NA
ATOM      4  C   UNL     1       1.614   3.666  19.185  0.00  0.00    +0.000 A 
ATOM      5  C   UNL     1       0.822   3.521  20.332  0.00  0.00    +0.000 A 
ATOM      6  C   UNL     1       1.387   2.929  21.462  0.00  0.00    +0.000 A 
ATOM      7  C   UNL     1       2.717   2.502  21.450  0.00  0.00    +0.000 A 
ATOM      8  C   UNL     1       3.523   2.628  20.300  0.00  0.00    +0.000 A 
ATOM      9  C   UNL     1       2.934   3.208  19.169  0.00  0.00    +0.000 A 
ENDROOT
BRANCH   1  10
ATOM     10  C   UNL     1       4.578   3.183  17.172  0.00  0.00    +0.000 C 
BRANCH  10  11
ATOM     11  C   UNL     1       5.167   4.438  16.495  0.00  0.00    +0.000 C 
BRANCH  11  15
ATOM     12  C   UNL     1       8.004   7.062  18.482  0.00  0.00    +0.000 A 
ATOM     13  C   UNL     1       7.917   5.728  18.880  0.00  0.00    +0.000 A 
ATOM     14  C   UNL     1       7.019   4.849  18.254  0.00  0.00    +0.000 A 
ATOM     15  C   UNL     1       6.192   5.293  17.216  0.00  0.00    +0.000 A 
ATOM     16  C   UNL     1       6.291   6.648  16.834  0.00  0.00    +0.000 A 
ATOM     17  C   UNL     1       7.186   7.523  17.457  0.00  0.00    +0.000 A 
ENDBRANCH  11  15
ENDBRANCH  10  11
ENDBRANCH   1  10
TORSDOF 3
ENDMDL
MODEL 8
REMARK VINA RESULT:      -7.2      1.493      7.010
REMARK  Name = 
REMARK  3 active torsions:
REMARK  status: ('A' for Active; 'I' for Inactive)
REMARK    1  A    between atoms: C_4  and  C_5
REMARK    2  A    between atoms: C_5  and  C_6
REMARK    3  A    between atoms: C_6  and  N_7
REMARK                            x       y       z     vdW  Elec       q    Type
REMARK                         _______ _______ _______ _____ _____    ______ ____
ROOT
ATOM      1  N   UNL     1       4.255   4.079  17.948  0.00  0.00    +0.000 N 
ATOM      2  N   UNL     1       4.939   5.009  18.649  0.00  0.00    +0.000 NA
ATOM      3  N   UNL     1       4.188   5.386  19.676  0.00  0.00    +0.000 NA
ATOM      4  C   UNL     1       3.044   4.641  19.657  0.00  0.00    +0.000 A 
ATOM      5  C   UNL     1       1.953   4.659  20.537  0.00  0.00    +0.000 A 
ATOM      6  C   UNL     1       0.906   3.763  20.322  0.00  0.00    +0.000 A 
ATOM      7  C   UNL     1       0.953   2.860  19.256  0.00  0.00    +0.000 A 
ATOM      8  C   UNL     1       2.036   2.838  18.354  0.00  0.00    +0.000 A 
ATOM      9  C   UNL     1       3.070   3.757  18.575  0.00  0.00    +0.000 A 
ENDROOT
BRANCH   1  10
ATOM     10  C   UNL     1       4.847   3.600  16.702  0.00  0.00    +0.000 C 
BRANCH  10  11
ATOM     11  C   UNL     1       5.293   4.770  15.801  0.00  0.00    +0.000 C 
BRANCH  11  15
ATOM     12  C   UNL     1       7.177   4.089  11.945  0.00  0.00    +0.000 A 
ATOM     13  C   UNL     1       5.971   3.451  12.235  0.00  0.00    +0.000 A 
ATOM     14  C   UNL     1       5.329   3.655  13.467  0.00  0.00    +0.000 A 
ATOM     15  C   UNL     1       5.885   4.504  14.429  0.00  0.00    +0.000 A 
ATOM     16  C   UNL     1       7.109   5.134  14.118  0.00  0.00    +0.000 A 
ATOM     17  C   UNL     1       7.747   4.932  12.891  0.00  0.00    +0.000 A 
ENDBRANCH  11  15
ENDBRANCH  10  11
ENDBRANCH   1  10
TORSDOF 3
ENDMDL
MODEL 9
REMARK VINA RESULT:      -7.2      3.063      6.772
REMARK  Name = 
REMARK  3 active torsions:
REMARK  status: ('A' for Active; 'I' for Inactive)
REMARK    1  A    between atoms: C_4  and  C_5
REMARK    2  A    between atoms: C_5  and  C_6
REMARK    3  A    between atoms: C_6  and  N_7
REMARK                            x       y       z     vdW  Elec       q    Type
REMARK                         _______ _______ _______ _____ _____    ______ ____
ROOT
ATOM      1  N   UNL     1       4.083   3.563  18.333  0.00  0.00    +0.000 N 
ATOM      2  N   UNL     1       5.103   2.881  18.900  0.00  0.00    +0.000 NA
ATOM      3  N   UNL     1       4.711   2.480  20.102  0.00  0.00    +0.000 NA
ATOM      4  C   UNL     1       3.410   2.861  20.272  0.00  0.00    +0.000 A 
ATOM      5  C   UNL     1       2.555   2.656  21.363  0.00  0.00    +0.000 A 
ATOM      6  C   UNL     1       1.241   3.116  21.277  0.00  0.00    +0.000 A 
ATOM      7  C   UNL     1       0.788   3.757  20.121  0.00  0.00    +0.000 A 
ATOM      8  C   UNL     1       1.638   3.983  19.020  0.00  0.00    +0.000 A 
ATOM      9  C   UNL     1       2.959   3.530  19.131  0.00  0.00    +0.000 A 
ENDROOT
BRANCH   1  10
ATOM     10  C   UNL     1       4.331   4.199  17.042  0.00  0.00    +0.000 C 
BRANCH  10  11
ATOM     11  C   UNL     1       5.841   4.341  16.761  0.00  0.00    +0.000 C 
BRANCH  11  15
ATOM     12  C   UNL     1       8.201   7.539  18.517  0.00  0.00    +0.000 A 
ATOM     13  C   UNL     1       7.461   7.795  17.363  0.00  0.00    +0.000 A 
ATOM     14  C   UNL     1       6.679   6.788  16.773  0.00  0.00    +0.000 A 
ATOM     15  C   UNL     1       6.625   5.507  17.333  0.00  0.00    +0.000 A 
ATOM     16  C   UNL     1       7.388   5.267  18.496  0.00  0.00    +0.000 A 
ATOM     17  C   UNL     1       8.165   6.270  19.083  0.00  0.00    +0.000 A 
ENDBRANCH  11  15
ENDBRANCH  10  11
ENDBRANCH   1  10
TORSDOF 3
ENDMDL
