MODEL 1
REMARK VINA RESULT:      -5.3      0.000      0.000
REMARK  Name = 
REMARK  5 active torsions:
REMARK  status: ('A' for Active; 'I' for Inactive)
REMARK    1  A    between atoms: N_5  and  C_6
REMARK    2  A    between atoms: C_6  and  O_7
REMARK    3  A    between atoms: O_7  and  C_8
REMARK    4  A    between atoms: C_8  and  C_9
REMARK    5  A    between atoms: C_9  and  O_10
REMARK                            x       y       z     vdW  Elec       q    Type
REMARK                         _______ _______ _______ _____ _____    ______ ____
ROOT
ATOM      1  O   UNL     1       7.735   5.441  20.539  0.00  0.00    +0.000 OA
ATOM      2  C   UNL     1       7.249   5.447  19.417  0.00  0.00    +0.000 A 
ATOM      3  C   UNL     1       7.740   6.354  18.373  0.00  0.00    +0.000 A 
ATOM      4  C   UNL     1       7.148   6.351  17.177  0.00  0.00    +0.000 A 
ATOM      5  N   UNL     1       6.090   5.508  16.863  0.00  0.00    +0.000 N 
ATOM      6  C   UNL     1       5.567   4.641  17.831  0.00  0.00    +0.000 A 
ATOM      7  S   UNL     1       4.248   3.618  17.665  0.00  0.00    +0.000 S 
ATOM      8  N   UNL     1       6.205   4.645  19.049  0.00  0.00    +0.000 N 
ATOM      9  H   UNL     1       5.845   4.033  19.768  0.00  0.00    +0.000 HD
ENDROOT
BRANCH   5  10
ATOM     10  C   UNL     1       5.433   5.652  15.554  0.00  0.00    +0.000 C 
BRANCH  10  11
ATOM     11  O   UNL     1       6.352   5.435  14.478  0.00  0.00    +0.000 OA
BRANCH  11  12
ATOM     12  C   UNL     1       6.482   4.029  14.216  0.00  0.00    +0.000 C 
BRANCH  12  13
ATOM     13  C   UNL     1       5.776   3.697  12.906  0.00  0.00    +0.000 C 
BRANCH  13  14
ATOM     14  O   UNL     1       6.490   2.683  12.205  0.00  0.00    +0.000 OA
ATOM     15  H   UNL     1       5.880   2.355  11.518  0.00  0.00    +0.000 HD
ENDBRANCH  13  14
ENDBRANCH  12  13
ENDBRANCH  11  12
ENDBRANCH  10  11
ENDBRANCH   5  10
TORSDOF 5
ENDMDL
MODEL 2
REMARK VINA RESULT:      -5.2      3.282      4.919
REMARK  Name = 
REMARK  5 active torsions:
REMARK  status: ('A' for Active; 'I' for Inactive)
REMARK    1  A    between atoms: N_5  and  C_6
REMARK    2  A    between atoms: C_6  and  O_7
REMARK    3  A    between atoms: O_7  and  C_8
REMARK    4  A    between atoms: C_8  and  C_9
REMARK    5  A    between atoms: C_9  and  O_10
REMARK                            x       y       z     vdW  Elec       q    Type
REMARK                         _______ _______ _______ _____ _____    ______ ____
ROOT
ATOM      1  O   UNL     1       7.534   5.238  14.263  0.00  0.00    +0.000 OA
ATOM      2  C   UNL     1       6.993   4.960  15.323  0.00  0.00    +0.000 A 
ATOM      3  C   UNL     1       5.732   4.212  15.368  0.00  0.00    +0.000 A 
ATOM      4  C   UNL     1       5.160   3.969  16.549  0.00  0.00    +0.000 A 
ATOM      5  N   UNL     1       5.717   4.379  17.753  0.00  0.00    +0.000 N 
ATOM      6  C   UNL     1       6.907   5.118  17.765  0.00  0.00    +0.000 A 
ATOM      7  S   UNL     1       7.679   5.768  19.104  0.00  0.00    +0.000 S 
ATOM      8  N   UNL     1       7.489   5.338  16.539  0.00  0.00    +0.000 N 
ATOM      9  H   UNL     1       8.346   5.874  16.517  0.00  0.00    +0.000 HD
ENDROOT
BRANCH   5  10
ATOM     10  C   UNL     1       4.960   4.159  18.996  0.00  0.00    +0.000 C 
BRANCH  10  11
ATOM     11  O   UNL     1       4.032   3.077  18.861  0.00  0.00    +0.000 OA
BRANCH  11  12
ATOM     12  C   UNL     1       2.779   3.422  19.471  0.00  0.00    +0.000 C 
BRANCH  12  13
ATOM     13  C   UNL     1       1.641   2.984  18.557  0.00  0.00    +0.000 C 
BRANCH  13  14
ATOM     14  O   UNL     1       1.630   1.565  18.428  0.00  0.00    +0.000 OA
ATOM     15  H   UNL     1       1.999   1.375  17.545  0.00  0.00    +0.000 HD
ENDBRANCH  13  14
ENDBRANCH  12  13
ENDBRANCH  11  12
ENDBRANCH  10  11
ENDBRANCH   5  10
TORSDOF 5
ENDMDL
MODEL 3
REMARK VINA RESULT:      -5.1      2.952      5.409
REMARK  Name = 
REMARK  5 active torsions:
REMARK  status: ('A' for Active; 'I' for Inactive)
REMARK    1  A    between atoms: N_5  and  C_6
REMARK    2  A    between atoms: C_6  and  O_7
REMARK    3  A    between atoms: O_7  and  C_8
REMARK    4  A    between atoms: C_8  and  C_9
REMARK    5  A    between atoms: C_9  and  O_10
REMARK                            x       y       z     vdW  Elec       q    Type
REMARK                         _______ _______ _______ _____ _____    ______ ____
ROOT
ATOM      1  O   UNL     1       7.417   5.220  14.467  0.00  0.00    +0.000 OA
ATOM      2  C   UNL     1       6.895   4.911  15.529  0.00  0.00    +0.000 A 
ATOM      3  C   UNL     1       5.631   4.168  15.575  0.00  0.00    +0.000 A 
ATOM      4  C   UNL     1       5.081   3.891  16.759  0.00  0.00    +0.000 A 
ATOM      5  N   UNL     1       5.664   4.260  17.964  0.00  0.00    +0.000 N 
ATOM      6  C   UNL     1       6.858   4.993  17.976  0.00  0.00    +0.000 A 
ATOM      7  S   UNL     1       7.660   5.597  19.318  0.00  0.00    +0.000 S 
ATOM      8  N   UNL     1       7.417   5.248  16.746  0.00  0.00    +0.000 N 
ATOM      9  H   UNL     1       8.276   5.781  16.724  0.00  0.00    +0.000 HD
ENDROOT
BRANCH   5  10
ATOM     10  C   UNL     1       4.930   4.005  19.214  0.00  0.00    +0.000 C 
BRANCH  10  11
ATOM     11  O   UNL     1       3.987   5.045  19.492  0.00  0.00    +0.000 OA
BRANCH  11  12
ATOM     12  C   UNL     1       2.741   4.478  19.925  0.00  0.00    +0.000 C 
BRANCH  12  13
ATOM     13  C   UNL     1       3.002   3.110  20.545  0.00  0.00    +0.000 C 
BRANCH  13  14
ATOM     14  O   UNL     1       2.488   3.065  21.873  0.00  0.00    +0.000 OA
ATOM     15  H   UNL     1       1.801   3.756  21.916  0.00  0.00    +0.000 HD
ENDBRANCH  13  14
ENDBRANCH  12  13
ENDBRANCH  11  12
ENDBRANCH  10  11
ENDBRANCH   5  10
TORSDOF 5
ENDMDL
MODEL 4
REMARK VINA RESULT:      -5.1      2.666      4.906
REMARK  Name = 
REMARK  5 active torsions:
REMARK  status: ('A' for Active; 'I' for Inactive)
REMARK    1  A    between atoms: N_5  and  C_6
REMARK    2  A    between atoms: C_6  and  O_7
REMARK    3  A    between atoms: O_7  and  C_8
REMARK    4  A    between atoms: C_8  and  C_9
REMARK    5  A    between atoms: C_9  and  O_10
REMARK                            x       y       z     vdW  Elec       q    Type
REMARK                         _______ _______ _______ _____ _____    ______ ____
ROOT
ATOM      1  O   UNL     1       8.166   5.542  13.835  0.00  0.00    +0.000 OA
ATOM      2  C   UNL     1       7.295   5.164  14.606  0.00  0.00    +0.000 A 
ATOM      3  C   UNL     1       6.122   4.421  14.133  0.00  0.00    +0.000 A 
ATOM      4  C   UNL     1       5.179   4.067  15.009  0.00  0.00    +0.000 A 
ATOM      5  N   UNL     1       5.265   4.355  16.365  0.00  0.00    +0.000 N 
ATOM      6  C   UNL     1       6.352   5.083  16.864  0.00  0.00    +0.000 A 
ATOM      7  S   UNL     1       6.585   5.595  18.444  0.00  0.00    +0.000 S 
ATOM      8  N   UNL     1       7.321   5.419  15.949  0.00  0.00    +0.000 N 
ATOM      9  H   UNL     1       8.114   5.950  16.280  0.00  0.00    +0.000 HD
ENDROOT
BRANCH   5  10
ATOM     10  C   UNL     1       4.126   4.018  17.234  0.00  0.00    +0.000 C 
BRANCH  10  11
ATOM     11  O   UNL     1       4.092   2.619  17.536  0.00  0.00    +0.000 OA
BRANCH  11  12
ATOM     12  C   UNL     1       3.360   2.394  18.751  0.00  0.00    +0.000 C 
BRANCH  12  13
ATOM     13  C   UNL     1       4.273   2.663  19.942  0.00  0.00    +0.000 C 
BRANCH  13  14
ATOM     14  O   UNL     1       5.180   1.579  20.122  0.00  0.00    +0.000 OA
ATOM     15  H   UNL     1       5.312   1.193  19.236  0.00  0.00    +0.000 HD
ENDBRANCH  13  14
ENDBRANCH  12  13
ENDBRANCH  11  12
ENDBRANCH  10  11
ENDBRANCH   5  10
TORSDOF 5
ENDMDL
MODEL 5
REMARK VINA RESULT:      -5.0      3.671      5.112
REMARK  Name = 
REMARK  5 active torsions:
REMARK  status: ('A' for Active; 'I' for Inactive)
REMARK    1  A    between atoms: N_5  and  C_6
REMARK    2  A    between atoms: C_6  and  O_7
REMARK    3  A    between atoms: O_7  and  C_8
REMARK    4  A    between atoms: C_8  and  C_9
REMARK    5  A    between atoms: C_9  and  O_10
REMARK                            x       y       z     vdW  Elec       q    Type
REMARK                         _______ _______ _______ _____ _____    ______ ____
ROOT
ATOM      1  O   UNL     1       0.366   2.270  18.742  0.00  0.00    +0.000 OA
ATOM      2  C   UNL     1       1.446   2.839  18.810  0.00  0.00    +0.000 A 
ATOM      3  C   UNL     1       2.682   2.107  19.109  0.00  0.00    +0.000 A 
ATOM      4  C   UNL     1       3.829   2.780  19.213  0.00  0.00    +0.000 A 
ATOM      5  N   UNL     1       3.914   4.155  19.030  0.00  0.00    +0.000 N 
ATOM      6  C   UNL     1       2.761   4.904  18.767  0.00  0.00    +0.000 A 
ATOM      7  S   UNL     1       2.653   6.570  18.604  0.00  0.00    +0.000 S 
ATOM      8  N   UNL     1       1.594   4.188  18.644  0.00  0.00    +0.000 N 
ATOM      9  H   UNL     1       0.744   4.704  18.461  0.00  0.00    +0.000 HD
ENDROOT
BRANCH   5  10
ATOM     10  C   UNL     1       5.203   4.823  19.270  0.00  0.00    +0.000 C 
BRANCH  10  11
ATOM     11  O   UNL     1       6.282   4.127  18.636  0.00  0.00    +0.000 OA
BRANCH  11  12
ATOM     12  C   UNL     1       6.541   4.691  17.342  0.00  0.00    +0.000 C 
BRANCH  12  13
ATOM     13  C   UNL     1       7.111   6.094  17.512  0.00  0.00    +0.000 C 
BRANCH  13  14
ATOM     14  O   UNL     1       7.604   6.580  16.267  0.00  0.00    +0.000 OA
ATOM     15  H   UNL     1       7.688   7.546  16.373  0.00  0.00    +0.000 HD
ENDBRANCH  13  14
ENDBRANCH  12  13
ENDBRANCH  11  12
ENDBRANCH  10  11
ENDBRANCH   5  10
TORSDOF 5
ENDMDL
MODEL 6
REMARK VINA RESULT:      -5.0      3.315      5.145
REMARK  Name = 
REMARK  5 active torsions:
REMARK  status: ('A' for Active; 'I' for Inactive)
REMARK    1  A    between atoms: N_5  and  C_6
REMARK    2  A    between atoms: C_6  and  O_7
REMARK    3  A    between atoms: O_7  and  C_8
REMARK    4  A    between atoms: C_8  and  C_9
REMARK    5  A    between atoms: C_9  and  O_10
REMARK                            x       y       z     vdW  Elec       q    Type
REMARK                         _______ _______ _______ _____ _____    ______ ____
ROOT
ATOM      1  O   UNL     1       7.859   5.394  14.360  0.00  0.00    +0.000 OA
ATOM      2  C   UNL     1       7.062   5.012  15.205  0.00  0.00    +0.000 A 
ATOM      3  C   UNL     1       5.855   4.263  14.837  0.00  0.00    +0.000 A 
ATOM      4  C   UNL     1       4.996   3.903  15.792  0.00  0.00    +0.000 A 
ATOM      5  N   UNL     1       5.201   4.189  17.136  0.00  0.00    +0.000 N 
ATOM      6  C   UNL     1       6.325   4.923  17.537  0.00  0.00    +0.000 A 
ATOM      7  S   UNL     1       6.695   5.435  19.090  0.00  0.00    +0.000 S 
ATOM      8  N   UNL     1       7.207   5.265  16.540  0.00  0.00    +0.000 N 
ATOM      9  H   UNL     1       8.023   5.800  16.800  0.00  0.00    +0.000 HD
ENDROOT
BRANCH   5  10
ATOM     10  C   UNL     1       4.146   3.846  18.103  0.00  0.00    +0.000 C 
BRANCH  10  11
ATOM     11  O   UNL     1       3.012   3.259  17.457  0.00  0.00    +0.000 OA
BRANCH  11  12
ATOM     12  C   UNL     1       2.122   2.698  18.434  0.00  0.00    +0.000 C 
BRANCH  12  13
ATOM     13  C   UNL     1       1.633   3.807  19.360  0.00  0.00    +0.000 C 
BRANCH  13  14
ATOM     14  O   UNL     1       0.557   3.337  20.167  0.00  0.00    +0.000 OA
ATOM     15  H   UNL     1       0.712   3.705  21.056  0.00  0.00    +0.000 HD
ENDBRANCH  13  14
ENDBRANCH  12  13
ENDBRANCH  11  12
ENDBRANCH  10  11
ENDBRANCH   5  10
TORSDOF 5
ENDMDL
MODEL 7
REMARK VINA RESULT:      -5.0      3.704      5.094
REMARK  Name = 
REMARK  5 active torsions:
REMARK  status: ('A' for Active; 'I' for Inactive)
REMARK    1  A    between atoms: N_5  and  C_6
REMARK    2  A    between atoms: C_6  and  O_7
REMARK    3  A    between atoms: O_7  and  C_8
REMARK    4  A    between atoms: C_8  and  C_9
REMARK    5  A    between atoms: C_9  and  O_10
REMARK                            x       y       z     vdW  Elec       q    Type
REMARK                         _______ _______ _______ _____ _____    ______ ____
ROOT
ATOM      1  O   UNL     1       0.231   2.233  18.409  0.00  0.00    +0.000 OA
ATOM      2  C   UNL     1       1.306   2.803  18.536  0.00  0.00    +0.000 A 
ATOM      3  C   UNL     1       1.588   4.069  17.849  0.00  0.00    +0.000 A 
ATOM      4  C   UNL     1       2.791   4.630  17.988  0.00  0.00    +0.000 A 
ATOM      5  N   UNL     1       3.793   4.078  18.775  0.00  0.00    +0.000 N 
ATOM      6  C   UNL     1       3.583   2.859  19.431  0.00  0.00    +0.000 A 
ATOM      7  S   UNL     1       4.694   2.001  20.349  0.00  0.00    +0.000 S 
ATOM      8  N   UNL     1       2.331   2.309  19.292  0.00  0.00    +0.000 N 
ATOM      9  H   UNL     1       2.154   1.426  19.750  0.00  0.00    +0.000 HD
ENDROOT
BRANCH   5  10
ATOM     10  C   UNL     1       5.120   4.713  18.781  0.00  0.00    +0.000 C 
BRANCH  10  11
ATOM     11  O   UNL     1       5.855   4.408  17.590  0.00  0.00    +0.000 OA
BRANCH  11  12
ATOM     12  C   UNL     1       7.248   4.697  17.782  0.00  0.00    +0.000 C 
BRANCH  12  13
ATOM     13  C   UNL     1       7.441   6.208  17.841  0.00  0.00    +0.000 C 
BRANCH  13  14
ATOM     14  O   UNL     1       7.612   6.735  16.529  0.00  0.00    +0.000 OA
ATOM     15  H   UNL     1       7.215   6.080  15.925  0.00  0.00    +0.000 HD
ENDBRANCH  13  14
ENDBRANCH  12  13
ENDBRANCH  11  12
ENDBRANCH  10  11
ENDBRANCH   5  10
TORSDOF 5
ENDMDL
MODEL 8
REMARK VINA RESULT:      -5.0      3.947      5.593
REMARK  Name = 
REMARK  5 active torsions:
REMARK  status: ('A' for Active; 'I' for Inactive)
REMARK    1  A    between atoms: N_5  and  C_6
REMARK    2  A    between atoms: C_6  and  O_7
REMARK    3  A    between atoms: O_7  and  C_8
REMARK    4  A    between atoms: C_8  and  C_9
REMARK    5  A    between atoms: C_9  and  O_10
REMARK                            x       y       z     vdW  Elec       q    Type
REMARK                         _______ _______ _______ _____ _____    ______ ____
ROOT
ATOM      1  O   UNL     1       6.638   5.917  15.634  0.00  0.00    +0.000 OA
ATOM      2  C   UNL     1       5.625   5.602  16.243  0.00  0.00    +0.000 A 
ATOM      3  C   UNL     1       5.163   4.210  16.295  0.00  0.00    +0.000 A 
ATOM      4  C   UNL     1       4.029   3.925  16.938  0.00  0.00    +0.000 A 
ATOM      5  N   UNL     1       3.267   4.890  17.584  0.00  0.00    +0.000 N 
ATOM      6  C   UNL     1       3.651   6.236  17.544  0.00  0.00    +0.000 A 
ATOM      7  S   UNL     1       2.820   7.543  18.186  0.00  0.00    +0.000 S 
ATOM      8  N   UNL     1       4.832   6.505  16.894  0.00  0.00    +0.000 N 
ATOM      9  H   UNL     1       5.131   7.469  16.844  0.00  0.00    +0.000 HD
ENDROOT
BRANCH   5  10
ATOM     10  C   UNL     1       1.978   4.496  18.175  0.00  0.00    +0.000 C 
BRANCH  10  11
ATOM     11  O   UNL     1       1.555   3.211  17.706  0.00  0.00    +0.000 OA
BRANCH  11  12
ATOM     12  C   UNL     1       0.833   2.522  18.738  0.00  0.00    +0.000 C 
BRANCH  12  13
ATOM     13  C   UNL     1       1.639   2.571  20.031  0.00  0.00    +0.000 C 
BRANCH  13  14
ATOM     14  O   UNL     1       0.795   2.917  21.125  0.00  0.00    +0.000 OA
ATOM     15  H   UNL     1      -0.046   2.447  20.971  0.00  0.00    +0.000 HD
ENDBRANCH  13  14
ENDBRANCH  12  13
ENDBRANCH  11  12
ENDBRANCH  10  11
ENDBRANCH   5  10
TORSDOF 5
ENDMDL
MODEL 9
REMARK VINA RESULT:      -4.9      3.464      4.746
REMARK  Name = 
REMARK  5 active torsions:
REMARK  status: ('A' for Active; 'I' for Inactive)
REMARK    1  A    between atoms: N_5  and  C_6
REMARK    2  A    between atoms: C_6  and  O_7
REMARK    3  A    between atoms: O_7  and  C_8
REMARK    4  A    between atoms: C_8  and  C_9
REMARK    5  A    between atoms: C_9  and  O_10
REMARK                            x       y       z     vdW  Elec       q    Type
REMARK                         _______ _______ _______ _____ _____    ______ ____
ROOT
ATOM      1  O   UNL     1       8.208   4.323  17.963  0.00  0.00    +0.000 OA
ATOM      2  C   UNL     1       7.044   4.698  17.942  0.00  0.00    +0.000 A 
ATOM      3  C   UNL     1       6.669   5.999  17.376  0.00  0.00    +0.000 A 
ATOM      4  C   UNL     1       5.390   6.380  17.414  0.00  0.00    +0.000 A 
ATOM      5  N   UNL     1       4.384   5.588  17.951  0.00  0.00    +0.000 N 
ATOM      6  C   UNL     1       4.693   4.348  18.526  0.00  0.00    +0.000 A 
ATOM      7  S   UNL     1       3.635   3.299  19.294  0.00  0.00    +0.000 S 
ATOM      8  N   UNL     1       6.012   3.966  18.458  0.00  0.00    +0.000 N 
ATOM      9  H   UNL     1       6.265   3.079  18.870  0.00  0.00    +0.000 HD
ENDROOT
BRANCH   5  10
ATOM     10  C   UNL     1       3.022   6.138  18.044  0.00  0.00    +0.000 C 
BRANCH  10  11
ATOM     11  O   UNL     1       2.798   6.777  19.306  0.00  0.00    +0.000 OA
BRANCH  11  12
ATOM     12  C   UNL     1       2.118   8.026  19.112  0.00  0.00    +0.000 C 
BRANCH  12  13
ATOM     13  C   UNL     1       2.274   8.461  17.659  0.00  0.00    +0.000 C 
BRANCH  13  14
ATOM     14  O   UNL     1       1.759   9.777  17.481  0.00  0.00    +0.000 OA
ATOM     15  H   UNL     1       1.150   9.724  16.721  0.00  0.00    +0.000 HD
ENDBRANCH  13  14
ENDBRANCH  12  13
ENDBRANCH  11  12
ENDBRANCH  10  11
ENDBRANCH   5  10
TORSDOF 5
ENDMDL
