MODEL 1
REMARK VINA RESULT:      -7.0      0.000      0.000
REMARK  Name = 
REMARK  9 active torsions:
REMARK  status: ('A' for Active; 'I' for Inactive)
REMARK    1  A    between atoms: C_1  and  O_2
REMARK    2  A    between atoms: O_2  and  C_3
REMARK    3  A    between atoms: C_8  and  C_9
REMARK    4  A    between atoms: C_9  and  N_10
REMARK    5  A    between atoms: C_11  and  C_13
REMARK    6  A    between atoms: C_13  and  O_14
REMARK    7  A    between atoms: O_14  and  C_15
REMARK    8  A    between atoms: C_15  and  C_17
REMARK    9  A    between atoms: C_17  and  C_18
REMARK                            x       y       z     vdW  Elec       q    Type
REMARK                         _______ _______ _______ _____ _____    ______ ____
ROOT
ATOM      1  N   UNL     1       2.041   4.833  20.136  0.00  0.00    +0.000 N 
ATOM      2  C   UNL     1       2.120   3.639  20.813  0.00  0.00    +0.000 C 
ATOM      3  O   UNL     1       2.072   3.539  22.036  0.00  0.00    +0.000 OA
ATOM      4  H   UNL     1       1.880   4.808  19.131  0.00  0.00    +0.000 HD
ENDROOT
BRANCH   1   5
ATOM      5  C   UNL     1       1.846   6.098  20.805  0.00  0.00    +0.000 C 
BRANCH   5  11
ATOM      6  C   UNL     1       1.224   8.483  20.112  0.00  0.00    +0.000 A 
ATOM      7  C   UNL     1       1.227   9.489  19.133  0.00  0.00    +0.000 A 
ATOM      8  C   UNL     1       1.956   9.332  17.953  0.00  0.00    +0.000 A 
ATOM      9  C   UNL     1       2.695   8.177  17.739  0.00  0.00    +0.000 A 
ATOM     10  C   UNL     1       2.661   7.151  18.684  0.00  0.00    +0.000 A 
ATOM     11  C   UNL     1       1.903   7.276  19.864  0.00  0.00    +0.000 A 
BRANCH   6  13
ATOM     12  C   UNL     1       1.062   9.604  22.192  0.00  0.00    +0.000 C 
ATOM     13  O   UNL     1       0.561   8.599  21.304  0.00  0.00    +0.000 OA
ENDBRANCH   6  13
ENDBRANCH   5  11
ENDBRANCH   1   5
BRANCH   2  14
ATOM     14  C   UNL     1       2.297   2.415  19.909  0.00  0.00    +0.000 C 
BRANCH  14  15
ATOM     15  O   UNL     1       2.114   2.716  18.527  0.00  0.00    +0.000 OA
BRANCH  15  16
ATOM     16  C   UNL     1       3.227   2.572  17.756  0.00  0.00    +0.000 C 
ATOM     17  O   UNL     1       3.944   1.578  17.743  0.00  0.00    +0.000 OA
BRANCH  16  18
ATOM     18  C   UNL     1       3.484   3.821  16.943  0.00  0.00    +0.000 C 
BRANCH  18  19
ATOM     19  C   UNL     1       4.756   4.526  17.344  0.00  0.00    +0.000 A 
ATOM     20  C   UNL     1       5.178   4.515  18.681  0.00  0.00    +0.000 A 
ATOM     21  C   UNL     1       6.333   5.196  19.060  0.00  0.00    +0.000 A 
ATOM     22  C   UNL     1       7.060   5.902  18.111  0.00  0.00    +0.000 A 
ATOM     23  F   UNL     1       8.143   6.594  18.491  0.00  0.00    +0.000 F 
ATOM     24  C   UNL     1       6.677   5.900  16.778  0.00  0.00    +0.000 A 
ATOM     25  C   UNL     1       5.530   5.205  16.390  0.00  0.00    +0.000 A 
ENDBRANCH  18  19
ENDBRANCH  16  18
ENDBRANCH  15  16
ENDBRANCH  14  15
ENDBRANCH   2  14
TORSDOF 8
ENDMDL
MODEL 2
REMARK VINA RESULT:      -6.9      1.078      1.497
REMARK  Name = 
REMARK  9 active torsions:
REMARK  status: ('A' for Active; 'I' for Inactive)
REMARK    1  A    between atoms: C_1  and  O_2
REMARK    2  A    between atoms: O_2  and  C_3
REMARK    3  A    between atoms: C_8  and  C_9
REMARK    4  A    between atoms: C_9  and  N_10
REMARK    5  A    between atoms: C_11  and  C_13
REMARK    6  A    between atoms: C_13  and  O_14
REMARK    7  A    between atoms: O_14  and  C_15
REMARK    8  A    between atoms: C_15  and  C_17
REMARK    9  A    between atoms: C_17  and  C_18
REMARK                            x       y       z     vdW  Elec       q    Type
REMARK                         _______ _______ _______ _____ _____    ______ ____
ROOT
ATOM      1  N   UNL     1       3.038   5.257  20.241  0.00  0.00    +0.000 N 
ATOM      2  C   UNL     1       2.860   3.894  20.282  0.00  0.00    +0.000 C 
ATOM      3  O   UNL     1       1.878   3.344  20.773  0.00  0.00    +0.000 OA
ATOM      4  H   UNL     1       3.769   5.629  19.637  0.00  0.00    +0.000 HD
ENDROOT
BRANCH   1   5
ATOM      5  C   UNL     1       2.053   6.188  20.737  0.00  0.00    +0.000 C 
BRANCH   5  11
ATOM      6  C   UNL     1       1.332   8.615  20.352  0.00  0.00    +0.000 A 
ATOM      7  C   UNL     1       1.161   9.691  19.468  0.00  0.00    +0.000 A 
ATOM      8  C   UNL     1       1.655   9.627  18.165  0.00  0.00    +0.000 A 
ATOM      9  C   UNL     1       2.331   8.495  17.730  0.00  0.00    +0.000 A 
ATOM     10  C   UNL     1       2.465   7.402  18.586  0.00  0.00    +0.000 A 
ATOM     11  C   UNL     1       1.942   7.434  19.893  0.00  0.00    +0.000 A 
BRANCH   6  13
ATOM     12  C   UNL     1      -0.514   8.679  21.834  0.00  0.00    +0.000 C 
ATOM     13  O   UNL     1       0.905   8.638  21.653  0.00  0.00    +0.000 OA
ENDBRANCH   6  13
ENDBRANCH   5  11
ENDBRANCH   1   5
BRANCH   2  14
ATOM     14  C   UNL     1       4.015   3.091  19.674  0.00  0.00    +0.000 C 
BRANCH  14  15
ATOM     15  O   UNL     1       3.732   2.624  18.356  0.00  0.00    +0.000 OA
BRANCH  15  16
ATOM     16  C   UNL     1       3.583   3.601  17.420  0.00  0.00    +0.000 C 
ATOM     17  O   UNL     1       2.558   4.252  17.246  0.00  0.00    +0.000 OA
BRANCH  16  18
ATOM     18  C   UNL     1       4.840   3.751  16.593  0.00  0.00    +0.000 C 
BRANCH  18  19
ATOM     19  C   UNL     1       5.734   4.860  17.087  0.00  0.00    +0.000 A 
ATOM     20  C   UNL     1       5.500   6.184  16.692  0.00  0.00    +0.000 A 
ATOM     21  C   UNL     1       6.347   7.206  17.118  0.00  0.00    +0.000 A 
ATOM     22  C   UNL     1       7.436   6.907  17.925  0.00  0.00    +0.000 A 
ATOM     23  F   UNL     1       8.274   7.887  18.291  0.00  0.00    +0.000 F 
ATOM     24  C   UNL     1       7.668   5.608  18.352  0.00  0.00    +0.000 A 
ATOM     25  C   UNL     1       6.813   4.584  17.942  0.00  0.00    +0.000 A 
ENDBRANCH  18  19
ENDBRANCH  16  18
ENDBRANCH  15  16
ENDBRANCH  14  15
ENDBRANCH   2  14
TORSDOF 8
ENDMDL
MODEL 3
REMARK VINA RESULT:      -6.9      5.652      7.546
REMARK  Name = 
REMARK  9 active torsions:
REMARK  status: ('A' for Active; 'I' for Inactive)
REMARK    1  A    between atoms: C_1  and  O_2
REMARK    2  A    between atoms: O_2  and  C_3
REMARK    3  A    between atoms: C_8  and  C_9
REMARK    4  A    between atoms: C_9  and  N_10
REMARK    5  A    between atoms: C_11  and  C_13
REMARK    6  A    between atoms: C_13  and  O_14
REMARK    7  A    between atoms: O_14  and  C_15
REMARK    8  A    between atoms: C_15  and  C_17
REMARK    9  A    between atoms: C_17  and  C_18
REMARK                            x       y       z     vdW  Elec       q    Type
REMARK                         _______ _______ _______ _____ _____    ______ ____
ROOT
ATOM      1  N   UNL     1       8.593   8.682  18.506  0.00  0.00    +0.000 N 
ATOM      2  C   UNL     1       7.744   7.811  17.864  0.00  0.00    +0.000 C 
ATOM      3  O   UNL     1       7.075   8.108  16.877  0.00  0.00    +0.000 OA
ATOM      4  H   UNL     1       9.257   8.300  19.177  0.00  0.00    +0.000 HD
ENDROOT
BRANCH   1   5
ATOM      5  C   UNL     1       8.817  10.033  18.050  0.00  0.00    +0.000 C 
BRANCH   5  11
ATOM      6  C   UNL     1      10.611  11.688  18.822  0.00  0.00    +0.000 A 
ATOM      7  C   UNL     1      11.237  12.379  19.872  0.00  0.00    +0.000 A 
ATOM      8  C   UNL     1      10.701  12.353  21.160  0.00  0.00    +0.000 A 
ATOM      9  C   UNL     1       9.533  11.648  21.415  0.00  0.00    +0.000 A 
ATOM     10  C   UNL     1       8.929  10.920  20.389  0.00  0.00    +0.000 A 
ATOM     11  C   UNL     1       9.475  10.904  19.091  0.00  0.00    +0.000 A 
BRANCH   6  13
ATOM     12  C   UNL     1      11.807  12.880  17.161  0.00  0.00    +0.000 C 
ATOM     13  O   UNL     1      11.070  11.711  17.532  0.00  0.00    +0.000 OA
ENDBRANCH   6  13
ENDBRANCH   5  11
ENDBRANCH   1   5
BRANCH   2  14
ATOM     14  C   UNL     1       7.676   6.418  18.496  0.00  0.00    +0.000 C 
BRANCH  14  15
ATOM     15  O   UNL     1       7.153   5.431  17.610  0.00  0.00    +0.000 OA
BRANCH  15  16
ATOM     16  C   UNL     1       6.129   4.690  18.116  0.00  0.00    +0.000 C 
ATOM     17  O   UNL     1       5.967   4.442  19.306  0.00  0.00    +0.000 OA
BRANCH  16  18
ATOM     18  C   UNL     1       5.236   4.178  17.009  0.00  0.00    +0.000 C 
BRANCH  18  19
ATOM     19  C   UNL     1       3.891   3.717  17.511  0.00  0.00    +0.000 A 
ATOM     20  C   UNL     1       2.839   4.633  17.657  0.00  0.00    +0.000 A 
ATOM     21  C   UNL     1       1.606   4.217  18.155  0.00  0.00    +0.000 A 
ATOM     22  C   UNL     1       1.424   2.890  18.523  0.00  0.00    +0.000 A 
ATOM     23  F   UNL     1       0.252   2.507  19.047  0.00  0.00    +0.000 F 
ATOM     24  C   UNL     1       2.441   1.962  18.358  0.00  0.00    +0.000 A 
ATOM     25  C   UNL     1       3.673   2.371  17.843  0.00  0.00    +0.000 A 
ENDBRANCH  18  19
ENDBRANCH  16  18
ENDBRANCH  15  16
ENDBRANCH  14  15
ENDBRANCH   2  14
TORSDOF 8
ENDMDL
MODEL 4
REMARK VINA RESULT:      -6.8      2.303      5.675
REMARK  Name = 
REMARK  9 active torsions:
REMARK  status: ('A' for Active; 'I' for Inactive)
REMARK    1  A    between atoms: C_1  and  O_2
REMARK    2  A    between atoms: O_2  and  C_3
REMARK    3  A    between atoms: C_8  and  C_9
REMARK    4  A    between atoms: C_9  and  N_10
REMARK    5  A    between atoms: C_11  and  C_13
REMARK    6  A    between atoms: C_13  and  O_14
REMARK    7  A    between atoms: O_14  and  C_15
REMARK    8  A    between atoms: C_15  and  C_17
REMARK    9  A    between atoms: C_17  and  C_18
REMARK                            x       y       z     vdW  Elec       q    Type
REMARK                         _______ _______ _______ _____ _____    ______ ____
ROOT
ATOM      1  N   UNL     1       3.962   3.058  17.735  0.00  0.00    +0.000 N 
ATOM      2  C   UNL     1       2.626   2.992  17.415  0.00  0.00    +0.000 C 
ATOM      3  O   UNL     1       2.167   3.300  16.318  0.00  0.00    +0.000 OA
ATOM      4  H   UNL     1       4.278   2.591  18.583  0.00  0.00    +0.000 HD
ENDROOT
BRANCH   1   5
ATOM      5  C   UNL     1       4.973   3.459  16.785  0.00  0.00    +0.000 C 
BRANCH   5  11
ATOM      6  C   UNL     1       6.401   5.558  16.451  0.00  0.00    +0.000 A 
ATOM      7  C   UNL     1       7.301   6.495  16.981  0.00  0.00    +0.000 A 
ATOM      8  C   UNL     1       7.593   6.509  18.345  0.00  0.00    +0.000 A 
ATOM      9  C   UNL     1       6.988   5.596  19.197  0.00  0.00    +0.000 A 
ATOM     10  C   UNL     1       6.127   4.630  18.674  0.00  0.00    +0.000 A 
ATOM     11  C   UNL     1       5.848   4.578  17.295  0.00  0.00    +0.000 A 
BRANCH   6  13
ATOM     12  C   UNL     1       6.931   4.793  14.273  0.00  0.00    +0.000 C 
ATOM     13  O   UNL     1       6.046   5.523  15.129  0.00  0.00    +0.000 OA
ENDBRANCH   6  13
ENDBRANCH   5  11
ENDBRANCH   1   5
BRANCH   2  14
ATOM     14  C   UNL     1       1.729   2.513  18.560  0.00  0.00    +0.000 C 
BRANCH  14  15
ATOM     15  O   UNL     1       1.149   3.588  19.296  0.00  0.00    +0.000 OA
BRANCH  15  16
ATOM     16  C   UNL     1       1.590   3.710  20.578  0.00  0.00    +0.000 C 
ATOM     17  O   UNL     1       1.109   3.123  21.542  0.00  0.00    +0.000 OA
BRANCH  16  18
ATOM     18  C   UNL     1       2.730   4.699  20.664  0.00  0.00    +0.000 C 
BRANCH  18  19
ATOM     19  C   UNL     1       2.394   6.031  20.042  0.00  0.00    +0.000 A 
ATOM     20  C   UNL     1       2.820   6.330  18.740  0.00  0.00    +0.000 A 
ATOM     21  C   UNL     1       2.543   7.574  18.176  0.00  0.00    +0.000 A 
ATOM     22  C   UNL     1       1.854   8.527  18.915  0.00  0.00    +0.000 A 
ATOM     23  F   UNL     1       1.633   9.738  18.384  0.00  0.00    +0.000 F 
ATOM     24  C   UNL     1       1.397   8.241  20.192  0.00  0.00    +0.000 A 
ATOM     25  C   UNL     1       1.658   6.991  20.755  0.00  0.00    +0.000 A 
ENDBRANCH  18  19
ENDBRANCH  16  18
ENDBRANCH  15  16
ENDBRANCH  14  15
ENDBRANCH   2  14
TORSDOF 8
ENDMDL
MODEL 5
REMARK VINA RESULT:      -6.8      2.382      5.200
REMARK  Name = 
REMARK  9 active torsions:
REMARK  status: ('A' for Active; 'I' for Inactive)
REMARK    1  A    between atoms: C_1  and  O_2
REMARK    2  A    between atoms: O_2  and  C_3
REMARK    3  A    between atoms: C_8  and  C_9
REMARK    4  A    between atoms: C_9  and  N_10
REMARK    5  A    between atoms: C_11  and  C_13
REMARK    6  A    between atoms: C_13  and  O_14
REMARK    7  A    between atoms: O_14  and  C_15
REMARK    8  A    between atoms: C_15  and  C_17
REMARK    9  A    between atoms: C_17  and  C_18
REMARK                            x       y       z     vdW  Elec       q    Type
REMARK                         _______ _______ _______ _____ _____    ______ ____
ROOT
ATOM      1  N   UNL     1       5.095   3.514  18.964  0.00  0.00    +0.000 N 
ATOM      2  C   UNL     1       4.212   2.464  19.056  0.00  0.00    +0.000 C 
ATOM      3  O   UNL     1       3.827   1.805  18.094  0.00  0.00    +0.000 OA
ATOM      4  H   UNL     1       5.517   3.865  19.822  0.00  0.00    +0.000 HD
ENDROOT
BRANCH   1   5
ATOM      5  C   UNL     1       5.699   3.920  17.717  0.00  0.00    +0.000 C 
BRANCH   5  11
ATOM      6  C   UNL     1       6.354   6.235  16.843  0.00  0.00    +0.000 A 
ATOM      7  C   UNL     1       7.168   7.374  16.951  0.00  0.00    +0.000 A 
ATOM      8  C   UNL     1       8.006   7.548  18.052  0.00  0.00    +0.000 A 
ATOM      9  C   UNL     1       8.037   6.596  19.062  0.00  0.00    +0.000 A 
ATOM     10  C   UNL     1       7.267   5.439  18.942  0.00  0.00    +0.000 A 
ATOM     11  C   UNL     1       6.442   5.228  17.821  0.00  0.00    +0.000 A 
BRANCH   6  13
ATOM     12  C   UNL     1       6.034   5.377  14.659  0.00  0.00    +0.000 C 
ATOM     13  O   UNL     1       5.483   6.031  15.806  0.00  0.00    +0.000 OA
ENDBRANCH   6  13
ENDBRANCH   5  11
ENDBRANCH   1   5
BRANCH   2  14
ATOM     14  C   UNL     1       3.716   2.184  20.478  0.00  0.00    +0.000 C 
BRANCH  14  15
ATOM     15  O   UNL     1       2.329   1.855  20.526  0.00  0.00    +0.000 OA
BRANCH  15  16
ATOM     16  C   UNL     1       1.561   2.709  21.257  0.00  0.00    +0.000 C 
ATOM     17  O   UNL     1       1.555   2.771  22.481  0.00  0.00    +0.000 OA
BRANCH  16  18
ATOM     18  C   UNL     1       0.684   3.549  20.356  0.00  0.00    +0.000 C 
BRANCH  18  19
ATOM     19  C   UNL     1       1.436   4.677  19.696  0.00  0.00    +0.000 A 
ATOM     20  C   UNL     1       1.794   5.814  20.435  0.00  0.00    +0.000 A 
ATOM     21  C   UNL     1       2.457   6.874  19.819  0.00  0.00    +0.000 A 
ATOM     22  C   UNL     1       2.750   6.809  18.463  0.00  0.00    +0.000 A 
ATOM     23  F   UNL     1       3.344   7.852  17.866  0.00  0.00    +0.000 F 
ATOM     24  C   UNL     1       2.431   5.682  17.721  0.00  0.00    +0.000 A 
ATOM     25  C   UNL     1       1.782   4.610  18.337  0.00  0.00    +0.000 A 
ENDBRANCH  18  19
ENDBRANCH  16  18
ENDBRANCH  15  16
ENDBRANCH  14  15
ENDBRANCH   2  14
TORSDOF 8
ENDMDL
MODEL 6
REMARK VINA RESULT:      -6.8      1.112      1.225
REMARK  Name = 
REMARK  9 active torsions:
REMARK  status: ('A' for Active; 'I' for Inactive)
REMARK    1  A    between atoms: C_1  and  O_2
REMARK    2  A    between atoms: O_2  and  C_3
REMARK    3  A    between atoms: C_8  and  C_9
REMARK    4  A    between atoms: C_9  and  N_10
REMARK    5  A    between atoms: C_11  and  C_13
REMARK    6  A    between atoms: C_13  and  O_14
REMARK    7  A    between atoms: O_14  and  C_15
REMARK    8  A    between atoms: C_15  and  C_17
REMARK    9  A    between atoms: C_17  and  C_18
REMARK                            x       y       z     vdW  Elec       q    Type
REMARK                         _______ _______ _______ _____ _____    ______ ____
ROOT
ATOM      1  N   UNL     1       2.657   4.888  20.324  0.00  0.00    +0.000 N 
ATOM      2  C   UNL     1       1.994   3.741  19.952  0.00  0.00    +0.000 C 
ATOM      3  O   UNL     1       0.787   3.568  20.098  0.00  0.00    +0.000 OA
ATOM      4  H   UNL     1       3.605   5.029  19.980  0.00  0.00    +0.000 HD
ENDROOT
BRANCH   1   5
ATOM      5  C   UNL     1       1.980   6.032  20.887  0.00  0.00    +0.000 C 
BRANCH   5  11
ATOM      6  C   UNL     1       1.413   8.464  20.320  0.00  0.00    +0.000 A 
ATOM      7  C   UNL     1       1.333   9.487  19.363  0.00  0.00    +0.000 A 
ATOM      8  C   UNL     1       1.864   9.309  18.085  0.00  0.00    +0.000 A 
ATOM      9  C   UNL     1       2.487   8.116  17.749  0.00  0.00    +0.000 A 
ATOM     10  C   UNL     1       2.531   7.076  18.678  0.00  0.00    +0.000 A 
ATOM     11  C   UNL     1       1.969   7.223  19.960  0.00  0.00    +0.000 A 
BRANCH   6  13
ATOM     12  C   UNL     1      -0.347   9.196  21.725  0.00  0.00    +0.000 C 
ATOM     13  O   UNL     1       0.946   8.597  21.601  0.00  0.00    +0.000 OA
ENDBRANCH   6  13
ENDBRANCH   5  11
ENDBRANCH   1   5
BRANCH   2  14
ATOM     14  C   UNL     1       2.898   2.662  19.348  0.00  0.00    +0.000 C 
BRANCH  14  15
ATOM     15  O   UNL     1       3.931   3.200  18.525  0.00  0.00    +0.000 OA
BRANCH  15  16
ATOM     16  C   UNL     1       3.567   3.447  17.236  0.00  0.00    +0.000 C 
ATOM     17  O   UNL     1       2.411   3.467  16.827  0.00  0.00    +0.000 OA
BRANCH  16  18
ATOM     18  C   UNL     1       4.785   3.653  16.364  0.00  0.00    +0.000 C 
BRANCH  18  19
ATOM     19  C   UNL     1       5.693   4.742  16.878  0.00  0.00    +0.000 A 
ATOM     20  C   UNL     1       6.827   4.416  17.635  0.00  0.00    +0.000 A 
ATOM     21  C   UNL     1       7.648   5.422  18.143  0.00  0.00    +0.000 A 
ATOM     22  C   UNL     1       7.330   6.753  17.910  0.00  0.00    +0.000 A 
ATOM     23  F   UNL     1       8.096   7.716  18.441  0.00  0.00    +0.000 F 
ATOM     24  C   UNL     1       6.230   7.096  17.138  0.00  0.00    +0.000 A 
ATOM     25  C   UNL     1       5.415   6.092  16.613  0.00  0.00    +0.000 A 
ENDBRANCH  18  19
ENDBRANCH  16  18
ENDBRANCH  15  16
ENDBRANCH  14  15
ENDBRANCH   2  14
TORSDOF 8
ENDMDL
MODEL 7
REMARK VINA RESULT:      -6.7      5.448      7.246
REMARK  Name = 
REMARK  9 active torsions:
REMARK  status: ('A' for Active; 'I' for Inactive)
REMARK    1  A    between atoms: C_1  and  O_2
REMARK    2  A    between atoms: O_2  and  C_3
REMARK    3  A    between atoms: C_8  and  C_9
REMARK    4  A    between atoms: C_9  and  N_10
REMARK    5  A    between atoms: C_11  and  C_13
REMARK    6  A    between atoms: C_13  and  O_14
REMARK    7  A    between atoms: O_14  and  C_15
REMARK    8  A    between atoms: C_15  and  C_17
REMARK    9  A    between atoms: C_17  and  C_18
REMARK                            x       y       z     vdW  Elec       q    Type
REMARK                         _______ _______ _______ _____ _____    ______ ____
ROOT
ATOM      1  N   UNL     1       8.635   8.852  18.668  0.00  0.00    +0.000 N 
ATOM      2  C   UNL     1       7.934   7.867  18.013  0.00  0.00    +0.000 C 
ATOM      3  O   UNL     1       7.327   8.041  16.959  0.00  0.00    +0.000 OA
ATOM      4  H   UNL     1       9.273   8.575  19.411  0.00  0.00    +0.000 HD
ENDROOT
BRANCH   1   5
ATOM      5  C   UNL     1       8.764  10.194  18.151  0.00  0.00    +0.000 C 
BRANCH   5  11
ATOM      6  C   UNL     1       9.799  11.483  20.106  0.00  0.00    +0.000 A 
ATOM      7  C   UNL     1      10.834  12.295  20.595  0.00  0.00    +0.000 A 
ATOM      8  C   UNL     1      11.974  12.536  19.828  0.00  0.00    +0.000 A 
ATOM      9  C   UNL     1      12.100  11.965  18.569  0.00  0.00    +0.000 A 
ATOM     10  C   UNL     1      11.058  11.194  18.054  0.00  0.00    +0.000 A 
ATOM     11  C   UNL     1       9.884  10.969  18.799  0.00  0.00    +0.000 A 
BRANCH   6  13
ATOM     12  C   UNL     1       8.700  11.589  22.201  0.00  0.00    +0.000 C 
ATOM     13  O   UNL     1       8.677  11.180  20.830  0.00  0.00    +0.000 OA
ENDBRANCH   6  13
ENDBRANCH   5  11
ENDBRANCH   1   5
BRANCH   2  14
ATOM     14  C   UNL     1       7.950   6.509  18.720  0.00  0.00    +0.000 C 
BRANCH  14  15
ATOM     15  O   UNL     1       7.911   5.410  17.812  0.00  0.00    +0.000 OA
BRANCH  15  16
ATOM     16  C   UNL     1       6.689   4.826  17.670  0.00  0.00    +0.000 C 
ATOM     17  O   UNL     1       6.312   4.229  16.667  0.00  0.00    +0.000 OA
BRANCH  16  18
ATOM     18  C   UNL     1       5.841   5.045  18.902  0.00  0.00    +0.000 C 
BRANCH  18  19
ATOM     19  C   UNL     1       4.452   4.473  18.763  0.00  0.00    +0.000 A 
ATOM     20  C   UNL     1       4.156   3.205  19.282  0.00  0.00    +0.000 A 
ATOM     21  C   UNL     1       2.884   2.658  19.124  0.00  0.00    +0.000 A 
ATOM     22  C   UNL     1       1.910   3.368  18.433  0.00  0.00    +0.000 A 
ATOM     23  F   UNL     1       0.704   2.817  18.242  0.00  0.00    +0.000 F 
ATOM     24  C   UNL     1       2.173   4.637  17.939  0.00  0.00    +0.000 A 
ATOM     25  C   UNL     1       3.441   5.196  18.110  0.00  0.00    +0.000 A 
ENDBRANCH  18  19
ENDBRANCH  16  18
ENDBRANCH  15  16
ENDBRANCH  14  15
ENDBRANCH   2  14
TORSDOF 8
ENDMDL
MODEL 8
REMARK VINA RESULT:      -6.6      0.819      1.344
REMARK  Name = 
REMARK  9 active torsions:
REMARK  status: ('A' for Active; 'I' for Inactive)
REMARK    1  A    between atoms: C_1  and  O_2
REMARK    2  A    between atoms: O_2  and  C_3
REMARK    3  A    between atoms: C_8  and  C_9
REMARK    4  A    between atoms: C_9  and  N_10
REMARK    5  A    between atoms: C_11  and  C_13
REMARK    6  A    between atoms: C_13  and  O_14
REMARK    7  A    between atoms: O_14  and  C_15
REMARK    8  A    between atoms: C_15  and  C_17
REMARK    9  A    between atoms: C_17  and  C_18
REMARK                            x       y       z     vdW  Elec       q    Type
REMARK                         _______ _______ _______ _____ _____    ______ ____
ROOT
ATOM      1  N   UNL     1       1.599   4.872  20.311  0.00  0.00    +0.000 N 
ATOM      2  C   UNL     1       1.873   3.694  20.966  0.00  0.00    +0.000 C 
ATOM      3  O   UNL     1       2.271   3.630  22.126  0.00  0.00    +0.000 OA
ATOM      4  H   UNL     1       1.081   4.828  19.436  0.00  0.00    +0.000 HD
ENDROOT
BRANCH   1   5
ATOM      5  C   UNL     1       1.712   6.163  20.948  0.00  0.00    +0.000 C 
BRANCH   5  11
ATOM      6  C   UNL     1       1.173   8.533  20.143  0.00  0.00    +0.000 A 
ATOM      7  C   UNL     1       1.225   9.497  19.123  0.00  0.00    +0.000 A 
ATOM      8  C   UNL     1       1.972   9.270  17.967  0.00  0.00    +0.000 A 
ATOM      9  C   UNL     1       2.682   8.086  17.817  0.00  0.00    +0.000 A 
ATOM     10  C   UNL     1       2.599   7.103  18.803  0.00  0.00    +0.000 A 
ATOM     11  C   UNL     1       1.822   7.299  19.960  0.00  0.00    +0.000 A 
BRANCH   6  13
ATOM     12  C   UNL     1       1.003   9.744  22.171  0.00  0.00    +0.000 C 
ATOM     13  O   UNL     1       0.490   8.719  21.316  0.00  0.00    +0.000 OA
ENDBRANCH   6  13
ENDBRANCH   5  11
ENDBRANCH   1   5
BRANCH   2  14
ATOM     14  C   UNL     1       1.659   2.439  20.115  0.00  0.00    +0.000 C 
BRANCH  14  15
ATOM     15  O   UNL     1       1.399   2.736  18.745  0.00  0.00    +0.000 OA
BRANCH  15  16
ATOM     16  C   UNL     1       2.387   2.373  17.881  0.00  0.00    +0.000 C 
ATOM     17  O   UNL     1       2.204   1.989  16.731  0.00  0.00    +0.000 OA
BRANCH  16  18
ATOM     18  C   UNL     1       3.743   2.468  18.544  0.00  0.00    +0.000 C 
BRANCH  18  19
ATOM     19  C   UNL     1       4.471   3.743  18.201  0.00  0.00    +0.000 A 
ATOM     20  C   UNL     1       4.383   4.281  16.909  0.00  0.00    +0.000 A 
ATOM     21  C   UNL     1       5.084   5.439  16.579  0.00  0.00    +0.000 A 
ATOM     22  C   UNL     1       5.887   6.053  17.531  0.00  0.00    +0.000 A 
ATOM     23  F   UNL     1       6.597   7.139  17.193  0.00  0.00    +0.000 F 
ATOM     24  C   UNL     1       5.964   5.555  18.823  0.00  0.00    +0.000 A 
ATOM     25  C   UNL     1       5.250   4.405  19.163  0.00  0.00    +0.000 A 
ENDBRANCH  18  19
ENDBRANCH  16  18
ENDBRANCH  15  16
ENDBRANCH  14  15
ENDBRANCH   2  14
TORSDOF 8
ENDMDL
MODEL 9
REMARK VINA RESULT:      -6.5      5.284      7.063
REMARK  Name = 
REMARK  9 active torsions:
REMARK  status: ('A' for Active; 'I' for Inactive)
REMARK    1  A    between atoms: C_1  and  O_2
REMARK    2  A    between atoms: O_2  and  C_3
REMARK    3  A    between atoms: C_8  and  C_9
REMARK    4  A    between atoms: C_9  and  N_10
REMARK    5  A    between atoms: C_11  and  C_13
REMARK    6  A    between atoms: C_13  and  O_14
REMARK    7  A    between atoms: O_14  and  C_15
REMARK    8  A    between atoms: C_15  and  C_17
REMARK    9  A    between atoms: C_17  and  C_18
REMARK                            x       y       z     vdW  Elec       q    Type
REMARK                         _______ _______ _______ _____ _____    ______ ____
ROOT
ATOM      1  N   UNL     1       6.132   5.949  18.761  0.00  0.00    +0.000 N 
ATOM      2  C   UNL     1       7.196   5.914  17.890  0.00  0.00    +0.000 C 
ATOM      3  O   UNL     1       7.749   4.880  17.524  0.00  0.00    +0.000 OA
ATOM      4  H   UNL     1       5.607   6.818  18.845  0.00  0.00    +0.000 HD
ENDROOT
BRANCH   1   5
ATOM      5  C   UNL     1       5.525   4.755  19.300  0.00  0.00    +0.000 C 
BRANCH   5  11
ATOM      6  C   UNL     1       3.174   5.309  18.449  0.00  0.00    +0.000 A 
ATOM      7  C   UNL     1       1.956   4.866  17.912  0.00  0.00    +0.000 A 
ATOM      8  C   UNL     1       1.807   3.549  17.476  0.00  0.00    +0.000 A 
ATOM      9  C   UNL     1       2.871   2.662  17.562  0.00  0.00    +0.000 A 
ATOM     10  C   UNL     1       4.071   3.079  18.138  0.00  0.00    +0.000 A 
ATOM     11  C   UNL     1       4.229   4.394  18.617  0.00  0.00    +0.000 A 
BRANCH   6  13
ATOM     12  C   UNL     1       2.333   7.189  19.618  0.00  0.00    +0.000 C 
ATOM     13  O   UNL     1       3.390   6.599  18.855  0.00  0.00    +0.000 OA
ENDBRANCH   6  13
ENDBRANCH   5  11
ENDBRANCH   1   5
BRANCH   2  14
ATOM     14  C   UNL     1       7.665   7.293  17.416  0.00  0.00    +0.000 C 
BRANCH  14  15
ATOM     15  O   UNL     1       8.390   8.006  18.416  0.00  0.00    +0.000 OA
BRANCH  15  16
ATOM     16  C   UNL     1       8.370   9.361  18.283  0.00  0.00    +0.000 C 
ATOM     17  O   UNL     1       7.693   9.973  17.464  0.00  0.00    +0.000 OA
BRANCH  16  18
ATOM     18  C   UNL     1       9.328  10.011  19.256  0.00  0.00    +0.000 C 
BRANCH  18  19
ATOM     19  C   UNL     1       9.782  11.376  18.802  0.00  0.00    +0.000 A 
ATOM     20  C   UNL     1       9.288  12.529  19.428  0.00  0.00    +0.000 A 
ATOM     21  C   UNL     1       9.678  13.792  18.987  0.00  0.00    +0.000 A 
ATOM     22  C   UNL     1      10.548  13.908  17.911  0.00  0.00    +0.000 A 
ATOM     23  F   UNL     1      10.881  15.125  17.461  0.00  0.00    +0.000 F 
ATOM     24  C   UNL     1      11.072  12.780  17.297  0.00  0.00    +0.000 A 
ATOM     25  C   UNL     1      10.698  11.512  17.747  0.00  0.00    +0.000 A 
ENDBRANCH  18  19
ENDBRANCH  16  18
ENDBRANCH  15  16
ENDBRANCH  14  15
ENDBRANCH   2  14
TORSDOF 8
ENDMDL
