MODEL 1
REMARK VINA RESULT:      -8.5      0.000      0.000
REMARK  Name = 
REMARK  10 active torsions:
REMARK  status: ('A' for Active; 'I' for Inactive)
REMARK    1  A    between atoms: C_1  and  O_2
REMARK    2  A    between atoms: O_2  and  C_3
REMARK    3  A    between atoms: C_6  and  C_7
REMARK    4  A    between atoms: C_11  and  C_12
REMARK    5  A    between atoms: C_12  and  N_13
REMARK    6  A    between atoms: N_13  and  C_14
REMARK    7  A    between atoms: N_13  and  C_15
REMARK    8  A    between atoms: N_20  and  C_21
REMARK    9  A    between atoms: C_28  and  O_29
REMARK   10  A    between atoms: O_29  and  C_30
REMARK                            x       y       z     vdW  Elec       q    Type
REMARK                         _______ _______ _______ _____ _____    ______ ____
ROOT
ATOM      1  C   UNL     1       2.691   3.920  18.988  0.00  0.00    +0.000 A 
ATOM      2  N   UNL     1       1.951   2.799  18.972  0.00  0.00    +0.000 NA
ATOM      3  N   UNL     1       0.991   3.020  19.877  0.00  0.00    +0.000 N 
ATOM      4  C   UNL     1       1.063   4.240  20.463  0.00  0.00    +0.000 A 
ATOM      5  C   UNL     1       2.114   4.900  19.873  0.00  0.00    +0.000 A 
ATOM      6  H   UNL     1       0.313   2.280  20.041  0.00  0.00    +0.000 HD
ENDROOT
BRANCH   1  10
ATOM      7  C   UNL     1       6.241   4.435  16.652  0.00  0.00    +0.000 A 
ATOM      8  C   UNL     1       5.025   4.085  16.037  0.00  0.00    +0.000 A 
ATOM      9  C   UNL     1       3.858   3.924  16.787  0.00  0.00    +0.000 A 
ATOM     10  C   UNL     1       3.901   4.032  18.175  0.00  0.00    +0.000 A 
ATOM     11  C   UNL     1       5.143   4.240  18.782  0.00  0.00    +0.000 A 
ATOM     12  C   UNL     1       6.308   4.477  18.047  0.00  0.00    +0.000 A 
BRANCH   7  14
ATOM     13  C   UNL     1       7.119   4.868  14.507  0.00  0.00    +0.000 C 
ATOM     14  O   UNL     1       7.355   4.719  15.908  0.00  0.00    +0.000 OA
ENDBRANCH   7  14
BRANCH  12  15
ATOM     15  O   UNL     1       7.357   4.754  18.879  0.00  0.00    +0.000 OA
ATOM     16  C   UNL     1       7.849   6.077  18.966  0.00  0.00    +0.000 C 
ENDBRANCH  12  15
ENDBRANCH   1  10
BRANCH   5  17
ATOM     17  C   UNL     1       2.603   6.309  20.084  0.00  0.00    +0.000 C 
BRANCH  17  18
ATOM     18  N   UNL     1       1.954   7.312  19.211  0.00  0.00    +0.000 NA
ATOM     19  C   UNL     1       2.677   7.438  17.945  0.00  0.00    +0.000 C 
BRANCH  18  20
ATOM     20  C   UNL     1       1.753   8.600  19.943  0.00  0.00    +0.000 C 
ATOM     21  C   UNL     1       1.327   9.831  19.100  0.00  0.00    +0.000 C 
ATOM     22  C   UNL     1      -0.178   9.994  18.950  0.00  0.00    +0.000 C 
ATOM     23  C   UNL     1      -0.757  10.777  20.089  0.00  0.00    +0.000 A 
ATOM     24  N   UNL     1      -1.641  11.712  19.895  0.00  0.00    +0.000 NA
ATOM     25  N   UNL     1      -1.909  12.169  21.158  0.00  0.00    +0.000 N 
ATOM     26  C   UNL     1      -2.772  13.284  21.416  0.00  0.00    +0.000 C 
ATOM     27  C   UNL     1      -1.127  11.497  22.096  0.00  0.00    +0.000 A 
ATOM     28  O   UNL     1      -1.049  11.717  23.293  0.00  0.00    +0.000 OA
ATOM     29  N   UNL     1      -0.432  10.549  21.374  0.00  0.00    +0.000 N 
ATOM     30  C   UNL     1       0.592   9.697  21.961  0.00  0.00    +0.000 C 
ATOM     31  C   UNL     1       0.857   8.403  21.191  0.00  0.00    +0.000 C 
ENDBRANCH  18  20
ENDBRANCH  17  18
ENDBRANCH   5  17
TORSDOF 6
ENDMDL
MODEL 2
REMARK VINA RESULT:      -7.8      1.729      2.335
REMARK  Name = 
REMARK  10 active torsions:
REMARK  status: ('A' for Active; 'I' for Inactive)
REMARK    1  A    between atoms: C_1  and  O_2
REMARK    2  A    between atoms: O_2  and  C_3
REMARK    3  A    between atoms: C_6  and  C_7
REMARK    4  A    between atoms: C_11  and  C_12
REMARK    5  A    between atoms: C_12  and  N_13
REMARK    6  A    between atoms: N_13  and  C_14
REMARK    7  A    between atoms: N_13  and  C_15
REMARK    8  A    between atoms: N_20  and  C_21
REMARK    9  A    between atoms: C_28  and  O_29
REMARK   10  A    between atoms: O_29  and  C_30
REMARK                            x       y       z     vdW  Elec       q    Type
REMARK                         _______ _______ _______ _____ _____    ______ ____
ROOT
ATOM      1  C   UNL     1       3.525   3.491  17.586  0.00  0.00    +0.000 A 
ATOM      2  N   UNL     1       3.543   2.190  17.251  0.00  0.00    +0.000 NA
ATOM      3  N   UNL     1       2.399   1.701  17.743  0.00  0.00    +0.000 N 
ATOM      4  C   UNL     1       1.631   2.630  18.362  0.00  0.00    +0.000 A 
ATOM      5  C   UNL     1       2.283   3.833  18.233  0.00  0.00    +0.000 A 
ATOM      6  H   UNL     1       2.211   0.711  17.613  0.00  0.00    +0.000 HD
ENDROOT
BRANCH   1  10
ATOM      7  C   UNL     1       6.827   6.121  16.877  0.00  0.00    +0.000 A 
ATOM      8  C   UNL     1       5.672   6.191  16.077  0.00  0.00    +0.000 A 
ATOM      9  C   UNL     1       4.584   5.346  16.305  0.00  0.00    +0.000 A 
ATOM     10  C   UNL     1       4.661   4.360  17.286  0.00  0.00    +0.000 A 
ATOM     11  C   UNL     1       5.867   4.210  17.977  0.00  0.00    +0.000 A 
ATOM     12  C   UNL     1       6.940   5.091  17.816  0.00  0.00    +0.000 A 
BRANCH   7  14
ATOM     13  C   UNL     1       7.693   8.215  17.525  0.00  0.00    +0.000 C 
ATOM     14  O   UNL     1       7.840   7.031  16.740  0.00  0.00    +0.000 OA
ENDBRANCH   7  14
BRANCH  12  15
ATOM     15  O   UNL     1       7.952   4.785  18.682  0.00  0.00    +0.000 OA
ATOM     16  C   UNL     1       8.086   5.515  19.886  0.00  0.00    +0.000 C 
ENDBRANCH  12  15
ENDBRANCH   1  10
BRANCH   5  17
ATOM     17  C   UNL     1       1.853   5.209  18.667  0.00  0.00    +0.000 C 
BRANCH  17  18
ATOM     18  N   UNL     1       2.507   5.685  19.906  0.00  0.00    +0.000 NA
ATOM     19  C   UNL     1       1.964   4.989  21.075  0.00  0.00    +0.000 C 
BRANCH  18  20
ATOM     20  C   UNL     1       2.457   7.176  19.993  0.00  0.00    +0.000 C 
ATOM     21  C   UNL     1       2.504   7.962  18.656  0.00  0.00    +0.000 C 
ATOM     22  C   UNL     1       1.139   8.222  18.037  0.00  0.00    +0.000 C 
ATOM     23  C   UNL     1       0.531   9.484  18.569  0.00  0.00    +0.000 A 
ATOM     24  N   UNL     1      -0.059  10.341  17.788  0.00  0.00    +0.000 NA
ATOM     25  N   UNL     1      -0.471  11.327  18.644  0.00  0.00    +0.000 N 
ATOM     26  C   UNL     1      -1.093  12.538  18.194  0.00  0.00    +0.000 C 
ATOM     27  C   UNL     1      -0.072  11.040  19.947  0.00  0.00    +0.000 A 
ATOM     28  O   UNL     1      -0.195  11.745  20.935  0.00  0.00    +0.000 OA
ATOM     29  N   UNL     1       0.523   9.797  19.877  0.00  0.00    +0.000 N 
ATOM     30  C   UNL     1       1.184   9.168  21.011  0.00  0.00    +0.000 C 
ATOM     31  C   UNL     1       1.303   7.647  20.912  0.00  0.00    +0.000 C 
ENDBRANCH  18  20
ENDBRANCH  17  18
ENDBRANCH   5  17
TORSDOF 6
ENDMDL
MODEL 3
REMARK VINA RESULT:      -7.6      1.794      2.741
REMARK  Name = 
REMARK  10 active torsions:
REMARK  status: ('A' for Active; 'I' for Inactive)
REMARK    1  A    between atoms: C_1  and  O_2
REMARK    2  A    between atoms: O_2  and  C_3
REMARK    3  A    between atoms: C_6  and  C_7
REMARK    4  A    between atoms: C_11  and  C_12
REMARK    5  A    between atoms: C_12  and  N_13
REMARK    6  A    between atoms: N_13  and  C_14
REMARK    7  A    between atoms: N_13  and  C_15
REMARK    8  A    between atoms: N_20  and  C_21
REMARK    9  A    between atoms: C_28  and  O_29
REMARK   10  A    between atoms: O_29  and  C_30
REMARK                            x       y       z     vdW  Elec       q    Type
REMARK                         _______ _______ _______ _____ _____    ______ ____
ROOT
ATOM      1  C   UNL     1       3.953   3.170  18.410  0.00  0.00    +0.000 A 
ATOM      2  N   UNL     1       3.980   2.012  17.732  0.00  0.00    +0.000 NA
ATOM      3  N   UNL     1       2.985   1.291  18.260  0.00  0.00    +0.000 N 
ATOM      4  C   UNL     1       2.301   1.937  19.237  0.00  0.00    +0.000 A 
ATOM      5  C   UNL     1       2.846   3.196  19.333  0.00  0.00    +0.000 A 
ATOM      6  H   UNL     1       2.831   0.354  17.897  0.00  0.00    +0.000 HD
ENDROOT
BRANCH   1  10
ATOM      7  C   UNL     1       7.000   6.070  17.617  0.00  0.00    +0.000 A 
ATOM      8  C   UNL     1       6.691   5.701  18.939  0.00  0.00    +0.000 A 
ATOM      9  C   UNL     1       5.706   4.748  19.210  0.00  0.00    +0.000 A 
ATOM     10  C   UNL     1       4.957   4.205  18.169  0.00  0.00    +0.000 A 
ATOM     11  C   UNL     1       5.179   4.687  16.875  0.00  0.00    +0.000 A 
ATOM     12  C   UNL     1       6.208   5.583  16.574  0.00  0.00    +0.000 A 
BRANCH   7  14
ATOM     13  C   UNL     1       7.797   8.288  17.590  0.00  0.00    +0.000 C 
ATOM     14  O   UNL     1       8.050   6.905  17.342  0.00  0.00    +0.000 OA
ENDBRANCH   7  14
BRANCH  12  15
ATOM     15  O   UNL     1       6.274   5.808  15.227  0.00  0.00    +0.000 OA
ATOM     16  C   UNL     1       6.582   4.738  14.354  0.00  0.00    +0.000 C 
ENDBRANCH  12  15
ENDBRANCH   1  10
BRANCH   5  17
ATOM     17  C   UNL     1       2.432   4.357  20.198  0.00  0.00    +0.000 C 
BRANCH  17  18
ATOM     18  N   UNL     1       1.647   5.391  19.489  0.00  0.00    +0.000 NA
ATOM     19  C   UNL     1       1.697   5.174  18.042  0.00  0.00    +0.000 C 
BRANCH  18  20
ATOM     20  C   UNL     1       2.059   6.761  19.925  0.00  0.00    +0.000 C 
ATOM     21  C   UNL     1       2.525   7.743  18.818  0.00  0.00    +0.000 C 
ATOM     22  C   UNL     1       1.404   8.569  18.206  0.00  0.00    +0.000 C 
ATOM     23  C   UNL     1       1.160   9.823  18.990  0.00  0.00    +0.000 A 
ATOM     24  N   UNL     1       0.977  10.970  18.404  0.00  0.00    +0.000 NA
ATOM     25  N   UNL     1       0.788  11.838  19.447  0.00  0.00    +0.000 N 
ATOM     26  C   UNL     1       0.644  13.253  19.265  0.00  0.00    +0.000 C 
ATOM     27  C   UNL     1       0.904  11.170  20.664  0.00  0.00    +0.000 A 
ATOM     28  O   UNL     1       0.881  11.655  21.783  0.00  0.00    +0.000 OA
ATOM     29  N   UNL     1       1.081   9.843  20.333  0.00  0.00    +0.000 N 
ATOM     30  C   UNL     1       1.356   8.808  21.318  0.00  0.00    +0.000 C 
ATOM     31  C   UNL     1       1.002   7.391  20.866  0.00  0.00    +0.000 C 
ENDBRANCH  18  20
ENDBRANCH  17  18
ENDBRANCH   5  17
TORSDOF 6
ENDMDL
MODEL 4
REMARK VINA RESULT:      -7.5      1.556      1.866
REMARK  Name = 
REMARK  10 active torsions:
REMARK  status: ('A' for Active; 'I' for Inactive)
REMARK    1  A    between atoms: C_1  and  O_2
REMARK    2  A    between atoms: O_2  and  C_3
REMARK    3  A    between atoms: C_6  and  C_7
REMARK    4  A    between atoms: C_11  and  C_12
REMARK    5  A    between atoms: C_12  and  N_13
REMARK    6  A    between atoms: N_13  and  C_14
REMARK    7  A    between atoms: N_13  and  C_15
REMARK    8  A    between atoms: N_20  and  C_21
REMARK    9  A    between atoms: C_28  and  O_29
REMARK   10  A    between atoms: O_29  and  C_30
REMARK                            x       y       z     vdW  Elec       q    Type
REMARK                         _______ _______ _______ _____ _____    ______ ____
ROOT
ATOM      1  C   UNL     1       4.061   3.091  17.907  0.00  0.00    +0.000 A 
ATOM      2  N   UNL     1       3.681   1.809  17.783  0.00  0.00    +0.000 NA
ATOM      3  N   UNL     1       2.826   1.615  18.794  0.00  0.00    +0.000 N 
ATOM      4  C   UNL     1       2.619   2.718  19.554  0.00  0.00    +0.000 A 
ATOM      5  C   UNL     1       3.348   3.733  18.982  0.00  0.00    +0.000 A 
ATOM      6  H   UNL     1       2.419   0.689  18.901  0.00  0.00    +0.000 HD
ENDROOT
BRANCH   1  10
ATOM      7  C   UNL     1       6.930   4.943  15.325  0.00  0.00    +0.000 A 
ATOM      8  C   UNL     1       6.013   4.003  14.819  0.00  0.00    +0.000 A 
ATOM      9  C   UNL     1       5.065   3.401  15.649  0.00  0.00    +0.000 A 
ATOM     10  C   UNL     1       5.068   3.665  17.016  0.00  0.00    +0.000 A 
ATOM     11  C   UNL     1       6.075   4.491  17.526  0.00  0.00    +0.000 A 
ATOM     12  C   UNL     1       6.985   5.161  16.705  0.00  0.00    +0.000 A 
BRANCH   7  14
ATOM     13  C   UNL     1       7.771   5.184  13.136  0.00  0.00    +0.000 C 
ATOM     14  O   UNL     1       7.773   5.630  14.493  0.00  0.00    +0.000 OA
ENDBRANCH   7  14
BRANCH  12  15
ATOM     15  O   UNL     1       7.790   5.982  17.444  0.00  0.00    +0.000 OA
ATOM     16  C   UNL     1       7.503   7.365  17.512  0.00  0.00    +0.000 C 
ENDBRANCH  12  15
ENDBRANCH   1  10
BRANCH   5  17
ATOM     17  C   UNL     1       3.432   5.188  19.366  0.00  0.00    +0.000 C 
BRANCH  17  18
ATOM     18  N   UNL     1       2.184   5.947  19.136  0.00  0.00    +0.000 NA
ATOM     19  C   UNL     1       1.753   5.822  17.742  0.00  0.00    +0.000 C 
BRANCH  18  20
ATOM     20  C   UNL     1       2.325   7.356  19.617  0.00  0.00    +0.000 C 
ATOM     21  C   UNL     1       2.398   8.467  18.537  0.00  0.00    +0.000 C 
ATOM     22  C   UNL     1       1.045   9.028  18.126  0.00  0.00    +0.000 C 
ATOM     23  C   UNL     1       0.628  10.154  19.023  0.00  0.00    +0.000 A 
ATOM     24  N   UNL     1       0.109  11.249  18.549  0.00  0.00    +0.000 NA
ATOM     25  N   UNL     1      -0.132  12.002  19.666  0.00  0.00    +0.000 N 
ATOM     26  C   UNL     1      -0.621  13.349  19.607  0.00  0.00    +0.000 C 
ATOM     27  C   UNL     1       0.297  11.330  20.809  0.00  0.00    +0.000 A 
ATOM     28  O   UNL     1       0.315  11.748  21.955  0.00  0.00    +0.000 OA
ATOM     29  N   UNL     1       0.728  10.098  20.363  0.00  0.00    +0.000 N 
ATOM     30  C   UNL     1       1.365   9.117  21.230  0.00  0.00    +0.000 C 
ATOM     31  C   UNL     1       1.288   7.678  20.722  0.00  0.00    +0.000 C 
ENDBRANCH  18  20
ENDBRANCH  17  18
ENDBRANCH   5  17
TORSDOF 6
ENDMDL
MODEL 5
REMARK VINA RESULT:      -7.4      1.280      1.709
REMARK  Name = 
REMARK  10 active torsions:
REMARK  status: ('A' for Active; 'I' for Inactive)
REMARK    1  A    between atoms: C_1  and  O_2
REMARK    2  A    between atoms: O_2  and  C_3
REMARK    3  A    between atoms: C_6  and  C_7
REMARK    4  A    between atoms: C_11  and  C_12
REMARK    5  A    between atoms: C_12  and  N_13
REMARK    6  A    between atoms: N_13  and  C_14
REMARK    7  A    between atoms: N_13  and  C_15
REMARK    8  A    between atoms: N_20  and  C_21
REMARK    9  A    between atoms: C_28  and  O_29
REMARK   10  A    between atoms: O_29  and  C_30
REMARK                            x       y       z     vdW  Elec       q    Type
REMARK                         _______ _______ _______ _____ _____    ______ ____
ROOT
ATOM      1  C   UNL     1       2.864   4.263  19.152  0.00  0.00    +0.000 A 
ATOM      2  N   UNL     1       2.205   3.119  19.396  0.00  0.00    +0.000 NA
ATOM      3  N   UNL     1       1.269   3.456  20.290  0.00  0.00    +0.000 N 
ATOM      4  C   UNL     1       1.277   4.771  20.619  0.00  0.00    +0.000 A 
ATOM      5  C   UNL     1       2.255   5.363  19.856  0.00  0.00    +0.000 A 
ATOM      6  H   UNL     1       0.652   2.724  20.631  0.00  0.00    +0.000 HD
ENDROOT
BRANCH   1  10
ATOM      7  C   UNL     1       6.298   4.513  16.609  0.00  0.00    +0.000 A 
ATOM      8  C   UNL     1       5.031   4.226  16.072  0.00  0.00    +0.000 A 
ATOM      9  C   UNL     1       3.900   4.153  16.890  0.00  0.00    +0.000 A 
ATOM     10  C   UNL     1       4.030   4.285  18.270  0.00  0.00    +0.000 A 
ATOM     11  C   UNL     1       5.316   4.428  18.802  0.00  0.00    +0.000 A 
ATOM     12  C   UNL     1       6.448   4.578  17.997  0.00  0.00    +0.000 A 
BRANCH   7  14
ATOM     13  C   UNL     1       7.078   4.830  14.407  0.00  0.00    +0.000 C 
ATOM     14  O   UNL     1       7.383   4.713  15.797  0.00  0.00    +0.000 OA
ENDBRANCH   7  14
BRANCH  12  15
ATOM     15  O   UNL     1       7.558   4.807  18.762  0.00  0.00    +0.000 OA
ATOM     16  C   UNL     1       7.970   6.136  19.016  0.00  0.00    +0.000 C 
ENDBRANCH  12  15
ENDBRANCH   1  10
BRANCH   5  17
ATOM     17  C   UNL     1       2.650   6.813  19.759  0.00  0.00    +0.000 C 
BRANCH  17  18
ATOM     18  N   UNL     1       2.080   7.520  18.591  0.00  0.00    +0.000 NA
ATOM     19  C   UNL     1       3.130   8.218  17.848  0.00  0.00    +0.000 C 
BRANCH  18  20
ATOM     20  C   UNL     1       0.931   8.383  19.004  0.00  0.00    +0.000 C 
ATOM     21  C   UNL     1       0.751   8.638  20.524  0.00  0.00    +0.000 C 
ATOM     22  C   UNL     1       1.502   9.854  21.045  0.00  0.00    +0.000 C 
ATOM     23  C   UNL     1       0.684  11.102  20.903  0.00  0.00    +0.000 A 
ATOM     24  N   UNL     1       0.609  11.981  21.859  0.00  0.00    +0.000 NA
ATOM     25  N   UNL     1      -0.213  12.948  21.344  0.00  0.00    +0.000 N 
ATOM     26  C   UNL     1      -0.654  14.081  22.104  0.00  0.00    +0.000 C 
ATOM     27  C   UNL     1      -0.647  12.590  20.069  0.00  0.00    +0.000 A 
ATOM     28  O   UNL     1      -1.454  13.176  19.367  0.00  0.00    +0.000 OA
ATOM     29  N   UNL     1       0.008  11.410  19.783  0.00  0.00    +0.000 N 
ATOM     30  C   UNL     1      -0.249  10.631  18.580  0.00  0.00    +0.000 C 
ATOM     31  C   UNL     1       0.889   9.693  18.178  0.00  0.00    +0.000 C 
ENDBRANCH  18  20
ENDBRANCH  17  18
ENDBRANCH   5  17
TORSDOF 6
ENDMDL
MODEL 6
REMARK VINA RESULT:      -7.4      1.562      2.025
REMARK  Name = 
REMARK  10 active torsions:
REMARK  status: ('A' for Active; 'I' for Inactive)
REMARK    1  A    between atoms: C_1  and  O_2
REMARK    2  A    between atoms: O_2  and  C_3
REMARK    3  A    between atoms: C_6  and  C_7
REMARK    4  A    between atoms: C_11  and  C_12
REMARK    5  A    between atoms: C_12  and  N_13
REMARK    6  A    between atoms: N_13  and  C_14
REMARK    7  A    between atoms: N_13  and  C_15
REMARK    8  A    between atoms: N_20  and  C_21
REMARK    9  A    between atoms: C_28  and  O_29
REMARK   10  A    between atoms: O_29  and  C_30
REMARK                            x       y       z     vdW  Elec       q    Type
REMARK                         _______ _______ _______ _____ _____    ______ ____
ROOT
ATOM      1  C   UNL     1       3.425   3.405  17.268  0.00  0.00    +0.000 A 
ATOM      2  N   UNL     1       3.161   2.094  17.391  0.00  0.00    +0.000 NA
ATOM      3  N   UNL     1       2.070   2.043  18.163  0.00  0.00    +0.000 N 
ATOM      4  C   UNL     1       1.602   3.262  18.528  0.00  0.00    +0.000 A 
ATOM      5  C   UNL     1       2.407   4.193  17.917  0.00  0.00    +0.000 A 
ATOM      6  H   UNL     1       1.697   1.127  18.399  0.00  0.00    +0.000 HD
ENDROOT
BRANCH   1  10
ATOM      7  C   UNL     1       6.858   4.939  15.223  0.00  0.00    +0.000 A 
ATOM      8  C   UNL     1       5.775   4.407  14.501  0.00  0.00    +0.000 A 
ATOM      9  C   UNL     1       4.644   3.913  15.156  0.00  0.00    +0.000 A 
ATOM     10  C   UNL     1       4.610   3.869  16.549  0.00  0.00    +0.000 A 
ATOM     11  C   UNL     1       5.751   4.270  17.250  0.00  0.00    +0.000 A 
ATOM     12  C   UNL     1       6.861   4.835  16.618  0.00  0.00    +0.000 A 
BRANCH   7  14
ATOM     13  C   UNL     1       7.990   5.275  13.183  0.00  0.00    +0.000 C 
ATOM     14  O   UNL     1       7.910   5.541  14.584  0.00  0.00    +0.000 OA
ENDBRANCH   7  14
BRANCH  12  15
ATOM     15  O   UNL     1       7.790   5.235  17.537  0.00  0.00    +0.000 OA
ATOM     16  C   UNL     1       7.387   5.503  18.867  0.00  0.00    +0.000 C 
ENDBRANCH  12  15
ENDBRANCH   1  10
BRANCH   5  17
ATOM     17  C   UNL     1       2.306   5.696  17.914  0.00  0.00    +0.000 C 
BRANCH  17  18
ATOM     18  N   UNL     1       3.308   6.372  18.767  0.00  0.00    +0.000 NA
ATOM     19  C   UNL     1       3.699   5.511  19.884  0.00  0.00    +0.000 C 
BRANCH  18  20
ATOM     20  C   UNL     1       2.832   7.732  19.166  0.00  0.00    +0.000 C 
ATOM     21  C   UNL     1       2.473   8.717  18.023  0.00  0.00    +0.000 C 
ATOM     22  C   UNL     1       1.024   8.640  17.567  0.00  0.00    +0.000 C 
ATOM     23  C   UNL     1       0.145   9.530  18.392  0.00  0.00    +0.000 A 
ATOM     24  N   UNL     1      -0.767  10.283  17.849  0.00  0.00    +0.000 NA
ATOM     25  N   UNL     1      -1.338  10.921  18.918  0.00  0.00    +0.000 N 
ATOM     26  C   UNL     1      -2.342  11.935  18.775  0.00  0.00    +0.000 C 
ATOM     27  C   UNL     1      -0.706  10.546  20.103  0.00  0.00    +0.000 A 
ATOM     28  O   UNL     1      -0.903  10.989  21.222  0.00  0.00    +0.000 OA
ATOM     29  N   UNL     1       0.214   9.588  19.734  0.00  0.00    +0.000 N 
ATOM     30  C   UNL     1       1.172   9.007  20.663  0.00  0.00    +0.000 C 
ATOM     31  C   UNL     1       1.719   7.644  20.240  0.00  0.00    +0.000 C 
ENDBRANCH  18  20
ENDBRANCH  17  18
ENDBRANCH   5  17
TORSDOF 6
ENDMDL
MODEL 7
REMARK VINA RESULT:      -7.2      1.723      2.076
REMARK  Name = 
REMARK  10 active torsions:
REMARK  status: ('A' for Active; 'I' for Inactive)
REMARK    1  A    between atoms: C_1  and  O_2
REMARK    2  A    between atoms: O_2  and  C_3
REMARK    3  A    between atoms: C_6  and  C_7
REMARK    4  A    between atoms: C_11  and  C_12
REMARK    5  A    between atoms: C_12  and  N_13
REMARK    6  A    between atoms: N_13  and  C_14
REMARK    7  A    between atoms: N_13  and  C_15
REMARK    8  A    between atoms: N_20  and  C_21
REMARK    9  A    between atoms: C_28  and  O_29
REMARK   10  A    between atoms: O_29  and  C_30
REMARK                            x       y       z     vdW  Elec       q    Type
REMARK                         _______ _______ _______ _____ _____    ______ ____
ROOT
ATOM      1  C   UNL     1       2.891   4.760  19.396  0.00  0.00    +0.000 A 
ATOM      2  N   UNL     1       2.271   3.656  19.845  0.00  0.00    +0.000 NA
ATOM      3  N   UNL     1       1.326   4.115  20.671  0.00  0.00    +0.000 N 
ATOM      4  C   UNL     1       1.291   5.467  20.763  0.00  0.00    +0.000 A 
ATOM      5  C   UNL     1       2.247   5.946  19.900  0.00  0.00    +0.000 A 
ATOM      6  H   UNL     1       0.734   3.435  21.142  0.00  0.00    +0.000 HD
ENDROOT
BRANCH   1  10
ATOM      7  C   UNL     1       6.306   4.667  16.817  0.00  0.00    +0.000 A 
ATOM      8  C   UNL     1       5.056   4.210  16.364  0.00  0.00    +0.000 A 
ATOM      9  C   UNL     1       3.932   4.245  17.193  0.00  0.00    +0.000 A 
ATOM     10  C   UNL     1       4.054   4.663  18.516  0.00  0.00    +0.000 A 
ATOM     11  C   UNL     1       5.330   4.980  18.992  0.00  0.00    +0.000 A 
ATOM     12  C   UNL     1       6.453   5.022  18.161  0.00  0.00    +0.000 A 
BRANCH   7  14
ATOM     13  C   UNL     1       7.043   4.820  14.583  0.00  0.00    +0.000 C 
ATOM     14  O   UNL     1       7.378   4.755  15.970  0.00  0.00    +0.000 OA
ENDBRANCH   7  14
BRANCH  12  15
ATOM     15  O   UNL     1       7.548   5.461  18.851  0.00  0.00    +0.000 OA
ATOM     16  C   UNL     1       8.040   6.768  18.624  0.00  0.00    +0.000 C 
ENDBRANCH  12  15
ENDBRANCH   1  10
BRANCH   5  17
ATOM     17  C   UNL     1       2.594   7.369  19.545  0.00  0.00    +0.000 C 
BRANCH  17  18
ATOM     18  N   UNL     1       2.134   7.787  18.203  0.00  0.00    +0.000 NA
ATOM     19  C   UNL     1       3.249   7.796  17.255  0.00  0.00    +0.000 C 
BRANCH  18  20
ATOM     20  C   UNL     1       1.374   9.072  18.281  0.00  0.00    +0.000 C 
ATOM     21  C   UNL     1       0.316   9.199  19.408  0.00  0.00    +0.000 C 
ATOM     22  C   UNL     1       0.860   9.755  20.715  0.00  0.00    +0.000 C 
ATOM     23  C   UNL     1       0.818  11.253  20.730  0.00  0.00    +0.000 A 
ATOM     24  N   UNL     1       0.412  11.915  21.774  0.00  0.00    +0.000 NA
ATOM     25  N   UNL     1       0.528  13.225  21.390  0.00  0.00    +0.000 N 
ATOM     26  C   UNL     1       0.092  14.317  22.210  0.00  0.00    +0.000 C 
ATOM     27  C   UNL     1       0.979  13.309  20.074  0.00  0.00    +0.000 A 
ATOM     28  O   UNL     1       1.105  14.314  19.395  0.00  0.00    +0.000 OA
ATOM     29  N   UNL     1       1.222  12.007  19.691  0.00  0.00    +0.000 N 
ATOM     30  C   UNL     1       1.606  11.636  18.337  0.00  0.00    +0.000 C 
ATOM     31  C   UNL     1       2.327  10.292  18.229  0.00  0.00    +0.000 C 
ENDBRANCH  18  20
ENDBRANCH  17  18
ENDBRANCH   5  17
TORSDOF 6
ENDMDL
MODEL 8
REMARK VINA RESULT:      -7.1      2.643      4.276
REMARK  Name = 
REMARK  10 active torsions:
REMARK  status: ('A' for Active; 'I' for Inactive)
REMARK    1  A    between atoms: C_1  and  O_2
REMARK    2  A    between atoms: O_2  and  C_3
REMARK    3  A    between atoms: C_6  and  C_7
REMARK    4  A    between atoms: C_11  and  C_12
REMARK    5  A    between atoms: C_12  and  N_13
REMARK    6  A    between atoms: N_13  and  C_14
REMARK    7  A    between atoms: N_13  and  C_15
REMARK    8  A    between atoms: N_20  and  C_21
REMARK    9  A    between atoms: C_28  and  O_29
REMARK   10  A    between atoms: O_29  and  C_30
REMARK                            x       y       z     vdW  Elec       q    Type
REMARK                         _______ _______ _______ _____ _____    ______ ____
ROOT
ATOM      1  C   UNL     1       7.029   4.725  17.236  0.00  0.00    +0.000 A 
ATOM      2  N   UNL     1       8.162   4.309  17.826  0.00  0.00    +0.000 NA
ATOM      3  N   UNL     1       8.140   4.882  19.034  0.00  0.00    +0.000 N 
ATOM      4  C   UNL     1       7.035   5.633  19.262  0.00  0.00    +0.000 A 
ATOM      5  C   UNL     1       6.240   5.515  18.147  0.00  0.00    +0.000 A 
ATOM      6  H   UNL     1       8.925   4.710  19.656  0.00  0.00    +0.000 HD
ENDROOT
BRANCH   1  10
ATOM      7  C   UNL     1       6.069   3.850  13.157  0.00  0.00    +0.000 A 
ATOM      8  C   UNL     1       5.469   3.127  14.204  0.00  0.00    +0.000 A 
ATOM      9  C   UNL     1       5.766   3.410  15.539  0.00  0.00    +0.000 A 
ATOM     10  C   UNL     1       6.729   4.368  15.851  0.00  0.00    +0.000 A 
ATOM     11  C   UNL     1       7.418   4.978  14.798  0.00  0.00    +0.000 A 
ATOM     12  C   UNL     1       7.084   4.763  13.458  0.00  0.00    +0.000 A 
BRANCH   7  14
ATOM     13  C   UNL     1       4.308   3.327  11.679  0.00  0.00    +0.000 C 
ATOM     14  O   UNL     1       5.685   3.664  11.856  0.00  0.00    +0.000 OA
ENDBRANCH   7  14
BRANCH  12  15
ATOM     15  O   UNL     1       7.837   5.557  12.639  0.00  0.00    +0.000 OA
ATOM     16  C   UNL     1       9.125   5.969  13.056  0.00  0.00    +0.000 C 
ENDBRANCH  12  15
ENDBRANCH   1  10
BRANCH   5  17
ATOM     17  C   UNL     1       4.867   6.076  17.883  0.00  0.00    +0.000 C 
BRANCH  17  18
ATOM     18  N   UNL     1       3.809   5.526  18.759  0.00  0.00    +0.000 NA
ATOM     19  C   UNL     1       3.623   4.096  18.507  0.00  0.00    +0.000 C 
BRANCH  18  20
ATOM     20  C   UNL     1       2.561   6.343  18.658  0.00  0.00    +0.000 C 
ATOM     21  C   UNL     1       1.612   6.334  19.886  0.00  0.00    +0.000 C 
ATOM     22  C   UNL     1       1.913   7.414  20.914  0.00  0.00    +0.000 C 
ATOM     23  C   UNL     1       1.208   8.694  20.582  0.00  0.00    +0.000 A 
ATOM     24  N   UNL     1       0.600   9.396  21.493  0.00  0.00    +0.000 NA
ATOM     25  N   UNL     1       0.100  10.465  20.798  0.00  0.00    +0.000 N 
ATOM     26  C   UNL     1      -0.737  11.462  21.399  0.00  0.00    +0.000 C 
ATOM     27  C   UNL     1       0.404  10.349  19.443  0.00  0.00    +0.000 A 
ATOM     28  O   UNL     1       0.036  11.076  18.535  0.00  0.00    +0.000 OA
ATOM     29  N   UNL     1       1.184   9.217  19.343  0.00  0.00    +0.000 N 
ATOM     30  C   UNL     1       1.628   8.668  18.069  0.00  0.00    +0.000 C 
ATOM     31  C   UNL     1       2.867   7.777  18.161  0.00  0.00    +0.000 C 
ENDBRANCH  18  20
ENDBRANCH  17  18
ENDBRANCH   5  17
TORSDOF 6
ENDMDL
MODEL 9
REMARK VINA RESULT:      -7.1      1.510      2.194
REMARK  Name = 
REMARK  10 active torsions:
REMARK  status: ('A' for Active; 'I' for Inactive)
REMARK    1  A    between atoms: C_1  and  O_2
REMARK    2  A    between atoms: O_2  and  C_3
REMARK    3  A    between atoms: C_6  and  C_7
REMARK    4  A    between atoms: C_11  and  C_12
REMARK    5  A    between atoms: C_12  and  N_13
REMARK    6  A    between atoms: N_13  and  C_14
REMARK    7  A    between atoms: N_13  and  C_15
REMARK    8  A    between atoms: N_20  and  C_21
REMARK    9  A    between atoms: C_28  and  O_29
REMARK   10  A    between atoms: O_29  and  C_30
REMARK                            x       y       z     vdW  Elec       q    Type
REMARK                         _______ _______ _______ _____ _____    ______ ____
ROOT
ATOM      1  C   UNL     1       3.702   3.643  17.548  0.00  0.00    +0.000 A 
ATOM      2  N   UNL     1       3.475   2.345  17.809  0.00  0.00    +0.000 NA
ATOM      3  N   UNL     1       2.413   2.348  18.622  0.00  0.00    +0.000 N 
ATOM      4  C   UNL     1       1.929   3.587  18.883  0.00  0.00    +0.000 A 
ATOM      5  C   UNL     1       2.689   4.470  18.155  0.00  0.00    +0.000 A 
ATOM      6  H   UNL     1       2.071   1.452  18.961  0.00  0.00    +0.000 HD
ENDROOT
BRANCH   1  10
ATOM      7  C   UNL     1       7.002   5.039  15.206  0.00  0.00    +0.000 A 
ATOM      8  C   UNL     1       6.018   4.211  14.634  0.00  0.00    +0.000 A 
ATOM      9  C   UNL     1       4.931   3.758  15.385  0.00  0.00    +0.000 A 
ATOM     10  C   UNL     1       4.849   4.058  16.743  0.00  0.00    +0.000 A 
ATOM     11  C   UNL     1       5.907   4.761  17.328  0.00  0.00    +0.000 A 
ATOM     12  C   UNL     1       6.964   5.286  16.581  0.00  0.00    +0.000 A 
BRANCH   7  14
ATOM     13  C   UNL     1       7.932   5.268  13.052  0.00  0.00    +0.000 C 
ATOM     14  O   UNL     1       7.997   5.589  14.442  0.00  0.00    +0.000 OA
ENDBRANCH   7  14
BRANCH  12  15
ATOM     15  O   UNL     1       7.802   6.017  17.376  0.00  0.00    +0.000 OA
ATOM     16  C   UNL     1       7.567   7.400  17.555  0.00  0.00    +0.000 C 
ENDBRANCH  12  15
ENDBRANCH   1  10
BRANCH   5  17
ATOM     17  C   UNL     1       2.551   5.962  18.009  0.00  0.00    +0.000 C 
BRANCH  17  18
ATOM     18  N   UNL     1       2.623   6.705  19.287  0.00  0.00    +0.000 NA
ATOM     19  C   UNL     1       2.886   5.791  20.400  0.00  0.00    +0.000 C 
BRANCH  18  20
ATOM     20  C   UNL     1       1.417   7.570  19.465  0.00  0.00    +0.000 C 
ATOM     21  C   UNL     1       0.824   7.666  20.896  0.00  0.00    +0.000 C 
ATOM     22  C   UNL     1       1.417   8.783  21.742  0.00  0.00    +0.000 C 
ATOM     23  C   UNL     1       0.688  10.075  21.528  0.00  0.00    +0.000 A 
ATOM     24  N   UNL     1       0.361  10.848  22.522  0.00  0.00    +0.000 NA
ATOM     25  N   UNL     1      -0.271  11.901  21.918  0.00  0.00    +0.000 N 
ATOM     26  C   UNL     1      -0.891  12.964  22.654  0.00  0.00    +0.000 C 
ATOM     27  C   UNL     1      -0.338  11.704  20.540  0.00  0.00    +0.000 A 
ATOM     28  O   UNL     1      -0.910  12.398  19.716  0.00  0.00    +0.000 OA
ATOM     29  N   UNL     1       0.354  10.534  20.309  0.00  0.00    +0.000 N 
ATOM     30  C   UNL     1       0.431   9.902  19.000  0.00  0.00    +0.000 C 
ATOM     31  C   UNL     1       1.624   8.962  18.819  0.00  0.00    +0.000 C 
ENDBRANCH  18  20
ENDBRANCH  17  18
ENDBRANCH   5  17
TORSDOF 6
ENDMDL
