MODEL 1
REMARK VINA RESULT:      -6.8      0.000      0.000
REMARK  Name = 
REMARK  8 active torsions:
REMARK  status: ('A' for Active; 'I' for Inactive)
REMARK    1  A    between atoms: C_1  and  C_2
REMARK    2  A    between atoms: C_2  and  C_3
REMARK    3  A    between atoms: C_3  and  C_4
REMARK    4  A    between atoms: C_4  and  N_5
REMARK    5  A    between atoms: N_9  and  C_10
REMARK    6  A    between atoms: N_9  and  O_11
REMARK    7  A    between atoms: N_14  and  C_15
REMARK    8  A    between atoms: N_14  and  O_16
REMARK                            x       y       z     vdW  Elec       q    Type
REMARK                         _______ _______ _______ _____ _____    ______ ____
ROOT
ATOM      1  N   UNL     1       7.710   7.023  18.376  0.00  0.00    +0.000 N 
ATOM      2  C   UNL     1       7.059   6.067  17.613  0.00  0.00    +0.000 A 
ATOM      3  N   UNL     1       7.332   5.938  16.325  0.00  0.00    +0.000 NA
ATOM      4  C   UNL     1       6.682   4.973  15.677  0.00  0.00    +0.000 A 
ATOM      5  N   UNL     1       6.920   4.886  14.306  0.00  0.00    +0.000 N 
ATOM      6  C   UNL     1       6.454   3.768  13.517  0.00  0.00    +0.000 C 
ATOM      7  N   UNL     1       5.818   4.156  16.263  0.00  0.00    +0.000 NA
ATOM      8  C   UNL     1       5.576   4.377  17.556  0.00  0.00    +0.000 A 
ATOM      9  N   UNL     1       4.587   3.575  18.129  0.00  0.00    +0.000 N 
ATOM     10  C   UNL     1       4.353   3.592  19.558  0.00  0.00    +0.000 C 
ATOM     11  N   UNL     1       6.176   5.328  18.261  0.00  0.00    +0.000 NA
ATOM     12  H   UNL     1       7.168   7.163  19.222  0.00  0.00    +0.000 HD
ENDROOT
BRANCH   5  13
ATOM     13  O   UNL     1       7.903   5.662  13.682  0.00  0.00    +0.000 OA
ATOM     14  H   UNL     1       8.336   5.019  13.083  0.00  0.00    +0.000 HD
ENDBRANCH   5  13
BRANCH   9  15
ATOM     15  O   UNL     1       4.191   2.380  17.512  0.00  0.00    +0.000 OA
ATOM     16  H   UNL     1       4.876   2.260  16.821  0.00  0.00    +0.000 HD
ENDBRANCH   9  15
BRANCH   1  17
ATOM     17  C   UNL     1       8.150   8.224  17.691  0.00  0.00    +0.000 C 
BRANCH  17  18
ATOM     18  C   UNL     1       8.716   9.224  18.702  0.00  0.00    +0.000 C 
BRANCH  18  20
ATOM     19  C   UNL     1      10.215  11.255  18.655  0.00  0.00    +0.000 C 
ATOM     20  C   UNL     1       8.968  10.603  18.083  0.00  0.00    +0.000 C 
ENDBRANCH  18  20
ENDBRANCH  17  18
ENDBRANCH   1  17
TORSDOF 5
ENDMDL
MODEL 2
REMARK VINA RESULT:      -6.5      3.797      6.735
REMARK  Name = 
REMARK  8 active torsions:
REMARK  status: ('A' for Active; 'I' for Inactive)
REMARK    1  A    between atoms: C_1  and  C_2
REMARK    2  A    between atoms: C_2  and  C_3
REMARK    3  A    between atoms: C_3  and  C_4
REMARK    4  A    between atoms: C_4  and  N_5
REMARK    5  A    between atoms: N_9  and  C_10
REMARK    6  A    between atoms: N_9  and  O_11
REMARK    7  A    between atoms: N_14  and  C_15
REMARK    8  A    between atoms: N_14  and  O_16
REMARK                            x       y       z     vdW  Elec       q    Type
REMARK                         _______ _______ _______ _____ _____    ______ ____
ROOT
ATOM      1  N   UNL     1       5.023   2.995  19.350  0.00  0.00    +0.000 N 
ATOM      2  C   UNL     1       4.647   4.144  18.674  0.00  0.00    +0.000 A 
ATOM      3  N   UNL     1       3.809   5.005  19.228  0.00  0.00    +0.000 NA
ATOM      4  C   UNL     1       3.529   6.096  18.520  0.00  0.00    +0.000 A 
ATOM      5  N   UNL     1       2.591   6.965  19.077  0.00  0.00    +0.000 N 
ATOM      6  C   UNL     1       2.346   8.281  18.529  0.00  0.00    +0.000 C 
ATOM      7  N   UNL     1       4.057   6.349  17.330  0.00  0.00    +0.000 NA
ATOM      8  C   UNL     1       4.865   5.414  16.830  0.00  0.00    +0.000 A 
ATOM      9  N   UNL     1       5.328   5.649  15.534  0.00  0.00    +0.000 N 
ATOM     10  C   UNL     1       6.347   4.805  14.944  0.00  0.00    +0.000 C 
ATOM     11  N   UNL     1       5.179   4.297  17.474  0.00  0.00    +0.000 NA
ATOM     12  H   UNL     1       5.408   2.349  18.669  0.00  0.00    +0.000 HD
ENDROOT
BRANCH   5  13
ATOM     13  O   UNL     1       2.099   6.779  20.373  0.00  0.00    +0.000 OA
ATOM     14  H   UNL     1       2.918   6.655  20.898  0.00  0.00    +0.000 HD
ENDBRANCH   5  13
BRANCH   9  15
ATOM     15  O   UNL     1       5.282   6.938  14.982  0.00  0.00    +0.000 OA
ATOM     16  H   UNL     1       5.516   7.505  15.746  0.00  0.00    +0.000 HD
ENDBRANCH   9  15
BRANCH   1  17
ATOM     17  C   UNL     1       4.066   2.441  20.290  0.00  0.00    +0.000 C 
BRANCH  17  18
ATOM     18  C   UNL     1       2.849   1.898  19.536  0.00  0.00    +0.000 C 
BRANCH  18  20
ATOM     19  C   UNL     1       1.581   2.719  21.559  0.00  0.00    +0.000 C 
ATOM     20  C   UNL     1       1.531   2.477  20.059  0.00  0.00    +0.000 C 
ENDBRANCH  18  20
ENDBRANCH  17  18
ENDBRANCH   1  17
TORSDOF 5
ENDMDL
MODEL 3
REMARK VINA RESULT:      -6.3      2.269      6.404
REMARK  Name = 
REMARK  8 active torsions:
REMARK  status: ('A' for Active; 'I' for Inactive)
REMARK    1  A    between atoms: C_1  and  C_2
REMARK    2  A    between atoms: C_2  and  C_3
REMARK    3  A    between atoms: C_3  and  C_4
REMARK    4  A    between atoms: C_4  and  N_5
REMARK    5  A    between atoms: N_9  and  C_10
REMARK    6  A    between atoms: N_9  and  O_11
REMARK    7  A    between atoms: N_14  and  C_15
REMARK    8  A    between atoms: N_14  and  O_16
REMARK                            x       y       z     vdW  Elec       q    Type
REMARK                         _______ _______ _______ _____ _____    ______ ____
ROOT
ATOM      1  N   UNL     1       4.146   2.416  17.387  0.00  0.00    +0.000 N 
ATOM      2  C   UNL     1       5.082   3.402  17.117  0.00  0.00    +0.000 A 
ATOM      3  N   UNL     1       5.612   4.111  18.101  0.00  0.00    +0.000 NA
ATOM      4  C   UNL     1       6.525   5.014  17.752  0.00  0.00    +0.000 A 
ATOM      5  N   UNL     1       7.029   5.807  18.783  0.00  0.00    +0.000 N 
ATOM      6  C   UNL     1       8.168   6.677  18.593  0.00  0.00    +0.000 C 
ATOM      7  N   UNL     1       6.920   5.206  16.501  0.00  0.00    +0.000 NA
ATOM      8  C   UNL     1       6.312   4.474  15.568  0.00  0.00    +0.000 A 
ATOM      9  N   UNL     1       6.665   4.763  14.249  0.00  0.00    +0.000 N 
ATOM     10  C   UNL     1       6.213   3.927  13.158  0.00  0.00    +0.000 C 
ATOM     11  N   UNL     1       5.384   3.565  15.841  0.00  0.00    +0.000 NA
ATOM     12  H   UNL     1       3.658   2.210  16.522  0.00  0.00    +0.000 HD
ENDROOT
BRANCH   5  13
ATOM     13  O   UNL     1       6.711   5.557  20.122  0.00  0.00    +0.000 OA
ATOM     14  H   UNL     1       5.767   5.297  20.074  0.00  0.00    +0.000 HD
ENDBRANCH   5  13
BRANCH   9  15
ATOM     15  O   UNL     1       7.848   5.462  13.965  0.00  0.00    +0.000 OA
ATOM     16  H   UNL     1       7.622   6.379  14.227  0.00  0.00    +0.000 HD
ENDBRANCH   9  15
BRANCH   1  17
ATOM     17  C   UNL     1       3.316   2.602  18.563  0.00  0.00    +0.000 C 
BRANCH  17  18
ATOM     18  C   UNL     1       1.926   3.091  18.147  0.00  0.00    +0.000 C 
BRANCH  18  20
ATOM     19  C   UNL     1       1.150   3.257  20.544  0.00  0.00    +0.000 C 
ATOM     20  C   UNL     1       0.843   2.707  19.161  0.00  0.00    +0.000 C 
ENDBRANCH  18  20
ENDBRANCH  17  18
ENDBRANCH   1  17
TORSDOF 5
ENDMDL
MODEL 4
REMARK VINA RESULT:      -6.3      3.911      5.996
REMARK  Name = 
REMARK  8 active torsions:
REMARK  status: ('A' for Active; 'I' for Inactive)
REMARK    1  A    between atoms: C_1  and  C_2
REMARK    2  A    between atoms: C_2  and  C_3
REMARK    3  A    between atoms: C_3  and  C_4
REMARK    4  A    between atoms: C_4  and  N_5
REMARK    5  A    between atoms: N_9  and  C_10
REMARK    6  A    between atoms: N_9  and  O_11
REMARK    7  A    between atoms: N_14  and  C_15
REMARK    8  A    between atoms: N_14  and  O_16
REMARK                            x       y       z     vdW  Elec       q    Type
REMARK                         _______ _______ _______ _____ _____    ______ ____
ROOT
ATOM      1  N   UNL     1       5.810   5.429  16.672  0.00  0.00    +0.000 N 
ATOM      2  C   UNL     1       4.933   5.175  17.714  0.00  0.00    +0.000 A 
ATOM      3  N   UNL     1       4.963   4.015  18.348  0.00  0.00    +0.000 NA
ATOM      4  C   UNL     1       4.107   3.870  19.357  0.00  0.00    +0.000 A 
ATOM      5  N   UNL     1       4.094   2.621  19.976  0.00  0.00    +0.000 N 
ATOM      6  C   UNL     1       3.375   2.384  21.208  0.00  0.00    +0.000 C 
ATOM      7  N   UNL     1       3.269   4.822  19.744  0.00  0.00    +0.000 NA
ATOM      8  C   UNL     1       3.280   5.947  19.030  0.00  0.00    +0.000 A 
ATOM      9  N   UNL     1       2.320   6.896  19.386  0.00  0.00    +0.000 N 
ATOM     10  C   UNL     1       2.339   8.225  18.811  0.00  0.00    +0.000 C 
ATOM     11  N   UNL     1       4.097   6.156  18.005  0.00  0.00    +0.000 NA
ATOM     12  H   UNL     1       5.441   6.213  16.143  0.00  0.00    +0.000 HD
ENDROOT
BRANCH   5  13
ATOM     13  O   UNL     1       5.036   1.636  19.661  0.00  0.00    +0.000 OA
ATOM     14  H   UNL     1       5.777   1.845  20.267  0.00  0.00    +0.000 HD
ENDBRANCH   5  13
BRANCH   9  15
ATOM     15  O   UNL     1       1.690   6.839  20.638  0.00  0.00    +0.000 OA
ATOM     16  H   UNL     1       0.853   6.372  20.434  0.00  0.00    +0.000 HD
ENDBRANCH   9  15
BRANCH   1  17
ATOM     17  C   UNL     1       6.259   4.287  15.897  0.00  0.00    +0.000 C 
BRANCH  17  18
ATOM     18  C   UNL     1       5.537   4.257  14.547  0.00  0.00    +0.000 C 
BRANCH  18  20
ATOM     19  C   UNL     1       5.749   3.255  12.239  0.00  0.00    +0.000 C 
ATOM     20  C   UNL     1       6.482   3.931  13.385  0.00  0.00    +0.000 C 
ENDBRANCH  18  20
ENDBRANCH  17  18
ENDBRANCH   1  17
TORSDOF 5
ENDMDL
MODEL 5
REMARK VINA RESULT:      -6.2      3.802      4.839
REMARK  Name = 
REMARK  8 active torsions:
REMARK  status: ('A' for Active; 'I' for Inactive)
REMARK    1  A    between atoms: C_1  and  C_2
REMARK    2  A    between atoms: C_2  and  C_3
REMARK    3  A    between atoms: C_3  and  C_4
REMARK    4  A    between atoms: C_4  and  N_5
REMARK    5  A    between atoms: N_9  and  C_10
REMARK    6  A    between atoms: N_9  and  O_11
REMARK    7  A    between atoms: N_14  and  C_15
REMARK    8  A    between atoms: N_14  and  O_16
REMARK                            x       y       z     vdW  Elec       q    Type
REMARK                         _______ _______ _______ _____ _____    ______ ____
ROOT
ATOM      1  N   UNL     1       2.437   7.276  18.971  0.00  0.00    +0.000 N 
ATOM      2  C   UNL     1       3.343   6.250  18.757  0.00  0.00    +0.000 A 
ATOM      3  N   UNL     1       4.344   6.405  17.905  0.00  0.00    +0.000 NA
ATOM      4  C   UNL     1       5.184   5.379  17.787  0.00  0.00    +0.000 A 
ATOM      5  N   UNL     1       6.194   5.520  16.836  0.00  0.00    +0.000 N 
ATOM      6  C   UNL     1       7.295   4.587  16.745  0.00  0.00    +0.000 C 
ATOM      7  N   UNL     1       5.066   4.257  18.483  0.00  0.00    +0.000 NA
ATOM      8  C   UNL     1       4.012   4.170  19.294  0.00  0.00    +0.000 A 
ATOM      9  N   UNL     1       3.847   2.943  19.939  0.00  0.00    +0.000 N 
ATOM     10  C   UNL     1       2.850   2.776  20.975  0.00  0.00    +0.000 C 
ATOM     11  N   UNL     1       3.127   5.147  19.453  0.00  0.00    +0.000 NA
ATOM     12  H   UNL     1       1.613   6.873  19.404  0.00  0.00    +0.000 HD
ENDROOT
BRANCH   5  13
ATOM     13  O   UNL     1       6.406   6.729  16.166  0.00  0.00    +0.000 OA
ATOM     14  H   UNL     1       6.796   7.297  16.863  0.00  0.00    +0.000 HD
ENDBRANCH   5  13
BRANCH   9  15
ATOM     15  O   UNL     1       4.918   2.043  20.043  0.00  0.00    +0.000 OA
ATOM     16  H   UNL     1       5.034   1.741  19.118  0.00  0.00    +0.000 HD
ENDBRANCH   9  15
BRANCH   1  17
ATOM     17  C   UNL     1       2.201   8.186  17.865  0.00  0.00    +0.000 C 
BRANCH  17  18
ATOM     18  C   UNL     1       1.562   9.478  18.381  0.00  0.00    +0.000 C 
BRANCH  18  20
ATOM     19  C   UNL     1      -0.348  10.011  19.944  0.00  0.00    +0.000 C 
ATOM     20  C   UNL     1       1.002   9.328  19.799  0.00  0.00    +0.000 C 
ENDBRANCH  18  20
ENDBRANCH  17  18
ENDBRANCH   1  17
TORSDOF 5
ENDMDL
MODEL 6
REMARK VINA RESULT:      -6.1      4.066      4.890
REMARK  Name = 
REMARK  8 active torsions:
REMARK  status: ('A' for Active; 'I' for Inactive)
REMARK    1  A    between atoms: C_1  and  C_2
REMARK    2  A    between atoms: C_2  and  C_3
REMARK    3  A    between atoms: C_3  and  C_4
REMARK    4  A    between atoms: C_4  and  N_5
REMARK    5  A    between atoms: N_9  and  C_10
REMARK    6  A    between atoms: N_9  and  O_11
REMARK    7  A    between atoms: N_14  and  C_15
REMARK    8  A    between atoms: N_14  and  O_16
REMARK                            x       y       z     vdW  Elec       q    Type
REMARK                         _______ _______ _______ _____ _____    ______ ____
ROOT
ATOM      1  N   UNL     1       2.323   7.343  18.743  0.00  0.00    +0.000 N 
ATOM      2  C   UNL     1       2.835   6.192  18.165  0.00  0.00    +0.000 A 
ATOM      3  N   UNL     1       3.920   6.246  17.410  0.00  0.00    +0.000 NA
ATOM      4  C   UNL     1       4.359   5.088  16.923  0.00  0.00    +0.000 A 
ATOM      5  N   UNL     1       5.459   5.158  16.070  0.00  0.00    +0.000 N 
ATOM      6  C   UNL     1       6.170   3.976  15.637  0.00  0.00    +0.000 C 
ATOM      7  N   UNL     1       3.777   3.923  17.176  0.00  0.00    +0.000 NA
ATOM      8  C   UNL     1       2.671   3.962  17.918  0.00  0.00    +0.000 A 
ATOM      9  N   UNL     1       2.015   2.741  18.087  0.00  0.00    +0.000 N 
ATOM     10  C   UNL     1       0.907   2.614  19.011  0.00  0.00    +0.000 C 
ATOM     11  N   UNL     1       2.169   5.081  18.426  0.00  0.00    +0.000 NA
ATOM     12  H   UNL     1       1.365   7.151  19.016  0.00  0.00    +0.000 HD
ENDROOT
BRANCH   5  13
ATOM     13  O   UNL     1       6.156   6.355  15.870  0.00  0.00    +0.000 OA
ATOM     14  H   UNL     1       5.443   7.027  15.906  0.00  0.00    +0.000 HD
ENDBRANCH   5  13
BRANCH   9  15
ATOM     15  O   UNL     1       2.686   1.533  17.849  0.00  0.00    +0.000 OA
ATOM     16  H   UNL     1       2.138   1.119  17.150  0.00  0.00    +0.000 HD
ENDBRANCH   9  15
BRANCH   1  17
ATOM     17  C   UNL     1       2.550   8.590  18.036  0.00  0.00    +0.000 C 
BRANCH  17  18
ATOM     18  C   UNL     1       1.238   9.371  17.921  0.00  0.00    +0.000 C 
BRANCH  18  20
ATOM     19  C   UNL     1      -0.379  10.104  19.716  0.00  0.00    +0.000 C 
ATOM     20  C   UNL     1       1.003  10.300  19.116  0.00  0.00    +0.000 C 
ENDBRANCH  18  20
ENDBRANCH  17  18
ENDBRANCH   1  17
TORSDOF 5
ENDMDL
MODEL 7
REMARK VINA RESULT:      -6.0      2.283      5.871
REMARK  Name = 
REMARK  8 active torsions:
REMARK  status: ('A' for Active; 'I' for Inactive)
REMARK    1  A    between atoms: C_1  and  C_2
REMARK    2  A    between atoms: C_2  and  C_3
REMARK    3  A    between atoms: C_3  and  C_4
REMARK    4  A    between atoms: C_4  and  N_5
REMARK    5  A    between atoms: N_9  and  C_10
REMARK    6  A    between atoms: N_9  and  O_11
REMARK    7  A    between atoms: N_14  and  C_15
REMARK    8  A    between atoms: N_14  and  O_16
REMARK                            x       y       z     vdW  Elec       q    Type
REMARK                         _______ _______ _______ _____ _____    ______ ____
ROOT
ATOM      1  N   UNL     1       4.137   2.390  17.319  0.00  0.00    +0.000 N 
ATOM      2  C   UNL     1       5.077   3.378  17.075  0.00  0.00    +0.000 A 
ATOM      3  N   UNL     1       5.591   4.077  18.074  0.00  0.00    +0.000 NA
ATOM      4  C   UNL     1       6.511   4.983  17.750  0.00  0.00    +0.000 A 
ATOM      5  N   UNL     1       6.998   5.765  18.797  0.00  0.00    +0.000 N 
ATOM      6  C   UNL     1       8.140   6.636  18.635  0.00  0.00    +0.000 C 
ATOM      7  N   UNL     1       6.926   5.188  16.508  0.00  0.00    +0.000 NA
ATOM      8  C   UNL     1       6.332   4.466  15.557  0.00  0.00    +0.000 A 
ATOM      9  N   UNL     1       6.707   4.768  14.247  0.00  0.00    +0.000 N 
ATOM     10  C   UNL     1       6.272   3.943  13.140  0.00  0.00    +0.000 C 
ATOM     11  N   UNL     1       5.400   3.554  15.806  0.00  0.00    +0.000 NA
ATOM     12  H   UNL     1       3.663   2.193  16.444  0.00  0.00    +0.000 HD
ENDROOT
BRANCH   5  13
ATOM     13  O   UNL     1       6.658   5.501  20.128  0.00  0.00    +0.000 OA
ATOM     14  H   UNL     1       5.714   5.245  20.063  0.00  0.00    +0.000 HD
ENDBRANCH   5  13
BRANCH   9  15
ATOM     15  O   UNL     1       7.894   5.469  13.989  0.00  0.00    +0.000 OA
ATOM     16  H   UNL     1       8.262   4.990  13.218  0.00  0.00    +0.000 HD
ENDBRANCH   9  15
BRANCH   1  17
ATOM     17  C   UNL     1       3.288   2.563  18.483  0.00  0.00    +0.000 C 
BRANCH  17  18
ATOM     18  C   UNL     1       2.090   3.448  18.128  0.00  0.00    +0.000 C 
BRANCH  18  20
ATOM     19  C   UNL     1       2.461   5.946  18.133  0.00  0.00    +0.000 C 
ATOM     20  C   UNL     1       2.049   4.737  18.956  0.00  0.00    +0.000 C 
ENDBRANCH  18  20
ENDBRANCH  17  18
ENDBRANCH   1  17
TORSDOF 5
ENDMDL
MODEL 8
REMARK VINA RESULT:      -6.0      3.926      7.142
REMARK  Name = 
REMARK  8 active torsions:
REMARK  status: ('A' for Active; 'I' for Inactive)
REMARK    1  A    between atoms: C_1  and  C_2
REMARK    2  A    between atoms: C_2  and  C_3
REMARK    3  A    between atoms: C_3  and  C_4
REMARK    4  A    between atoms: C_4  and  N_5
REMARK    5  A    between atoms: N_9  and  C_10
REMARK    6  A    between atoms: N_9  and  O_11
REMARK    7  A    between atoms: N_14  and  C_15
REMARK    8  A    between atoms: N_14  and  O_16
REMARK                            x       y       z     vdW  Elec       q    Type
REMARK                         _______ _______ _______ _____ _____    ______ ____
ROOT
ATOM      1  N   UNL     1       3.271   4.377  20.352  0.00  0.00    +0.000 N 
ATOM      2  C   UNL     1       3.306   5.365  19.381  0.00  0.00    +0.000 A 
ATOM      3  N   UNL     1       2.607   6.479  19.533  0.00  0.00    +0.000 NA
ATOM      4  C   UNL     1       2.726   7.387  18.566  0.00  0.00    +0.000 A 
ATOM      5  N   UNL     1       1.934   8.527  18.695  0.00  0.00    +0.000 N 
ATOM      6  C   UNL     1       2.110   9.681  17.843  0.00  0.00    +0.000 C 
ATOM      7  N   UNL     1       3.506   7.225  17.507  0.00  0.00    +0.000 NA
ATOM      8  C   UNL     1       4.149   6.061  17.415  0.00  0.00    +0.000 A 
ATOM      9  N   UNL     1       4.882   5.867  16.243  0.00  0.00    +0.000 N 
ATOM     10  C   UNL     1       5.763   4.728  16.097  0.00  0.00    +0.000 C 
ATOM     11  N   UNL     1       4.068   5.106  18.334  0.00  0.00    +0.000 NA
ATOM     12  H   UNL     1       3.609   3.519  19.930  0.00  0.00    +0.000 HD
ENDROOT
BRANCH   5  13
ATOM     13  O   UNL     1       1.185   8.772  19.850  0.00  0.00    +0.000 OA
ATOM     14  H   UNL     1       0.705   7.927  19.979  0.00  0.00    +0.000 HD
ENDBRANCH   5  13
BRANCH   9  15
ATOM     15  O   UNL     1       5.242   6.959  15.439  0.00  0.00    +0.000 OA
ATOM     16  H   UNL     1       5.106   6.610  14.533  0.00  0.00    +0.000 HD
ENDBRANCH   9  15
BRANCH   1  17
ATOM     17  C   UNL     1       2.055   4.269  21.137  0.00  0.00    +0.000 C 
BRANCH  17  18
ATOM     18  C   UNL     1       1.554   2.822  21.126  0.00  0.00    +0.000 C 
BRANCH  18  20
ATOM     19  C   UNL     1       0.655   2.514  18.786  0.00  0.00    +0.000 C 
ATOM     20  C   UNL     1       1.756   2.144  19.766  0.00  0.00    +0.000 C 
ENDBRANCH  18  20
ENDBRANCH  17  18
ENDBRANCH   1  17
TORSDOF 5
ENDMDL
MODEL 9
REMARK VINA RESULT:      -5.9      4.305      7.053
REMARK  Name = 
REMARK  8 active torsions:
REMARK  status: ('A' for Active; 'I' for Inactive)
REMARK    1  A    between atoms: C_1  and  C_2
REMARK    2  A    between atoms: C_2  and  C_3
REMARK    3  A    between atoms: C_3  and  C_4
REMARK    4  A    between atoms: C_4  and  N_5
REMARK    5  A    between atoms: N_9  and  C_10
REMARK    6  A    between atoms: N_9  and  O_11
REMARK    7  A    between atoms: N_14  and  C_15
REMARK    8  A    between atoms: N_14  and  O_16
REMARK                            x       y       z     vdW  Elec       q    Type
REMARK                         _______ _______ _______ _____ _____    ______ ____
ROOT
ATOM      1  N   UNL     1       1.601   5.324  20.723  0.00  0.00    +0.000 N 
ATOM      2  C   UNL     1       2.180   6.093  19.726  0.00  0.00    +0.000 A 
ATOM      3  N   UNL     1       3.107   5.578  18.935  0.00  0.00    +0.000 NA
ATOM      4  C   UNL     1       3.584   6.378  17.985  0.00  0.00    +0.000 A 
ATOM      5  N   UNL     1       4.611   5.855  17.200  0.00  0.00    +0.000 N 
ATOM      6  C   UNL     1       5.078   6.523  16.006  0.00  0.00    +0.000 C 
ATOM      7  N   UNL     1       3.163   7.621  17.800  0.00  0.00    +0.000 NA
ATOM      8  C   UNL     1       2.251   8.073  18.662  0.00  0.00    +0.000 A 
ATOM      9  N   UNL     1       1.896   9.415  18.516  0.00  0.00    +0.000 N 
ATOM     10  C   UNL     1       0.795   9.979  19.268  0.00  0.00    +0.000 C 
ATOM     11  N   UNL     1       1.740   7.336  19.640  0.00  0.00    +0.000 NA
ATOM     12  H   UNL     1       1.161   5.956  21.383  0.00  0.00    +0.000 HD
ENDROOT
BRANCH   5  13
ATOM     13  O   UNL     1       5.001   4.515  17.302  0.00  0.00    +0.000 OA
ATOM     14  H   UNL     1       5.702   4.443  16.620  0.00  0.00    +0.000 HD
ENDBRANCH   5  13
BRANCH   9  15
ATOM     15  O   UNL     1       2.164  10.098  17.320  0.00  0.00    +0.000 OA
ATOM     16  H   UNL     1       2.240  11.029  17.618  0.00  0.00    +0.000 HD
ENDBRANCH   9  15
BRANCH   1  17
ATOM     17  C   UNL     1       2.415   4.266  21.294  0.00  0.00    +0.000 C 
BRANCH  17  18
ATOM     18  C   UNL     1       1.688   2.924  21.171  0.00  0.00    +0.000 C 
BRANCH  18  20
ATOM     19  C   UNL     1       0.810   2.443  18.853  0.00  0.00    +0.000 C 
ATOM     20  C   UNL     1       1.956   2.236  19.828  0.00  0.00    +0.000 C 
ENDBRANCH  18  20
ENDBRANCH  17  18
ENDBRANCH   1  17
TORSDOF 5
ENDMDL
