MODEL 1
REMARK VINA RESULT:      -7.9      0.000      0.000
REMARK  Name = 
REMARK  8 active torsions:
REMARK  status: ('A' for Active; 'I' for Inactive)
REMARK    1  A    between atoms: C_1  and  C_2
REMARK    2  A    between atoms: C_2  and  C_3
REMARK    3  A    between atoms: C_3  and  C_4
REMARK    4  A    between atoms: C_3  and  C_5
REMARK    5  A    between atoms: C_5  and  N_6
REMARK    6  A    between atoms: C_5  and  C_7
REMARK    7  A    between atoms: N_9  and  C_10
REMARK    8  A    between atoms: C_14  and  C_15
REMARK                            x       y       z     vdW  Elec       q    Type
REMARK                         _______ _______ _______ _____ _____    ______ ____
ROOT
ATOM      1  C   UNL     1       5.001   5.099  15.694  0.00  0.00    +0.000 A 
ATOM      2  C   UNL     1       5.182   6.476  15.718  0.00  0.00    +0.000 A 
ATOM      3  C   UNL     1       4.687   7.205  16.795  0.00  0.00    +0.000 A 
ATOM      4  C   UNL     1       4.072   6.552  17.874  0.00  0.00    +0.000 A 
ATOM      5  C   UNL     1       3.957   5.152  17.915  0.00  0.00    +0.000 A 
ATOM      6  C   UNL     1       4.437   4.449  16.794  0.00  0.00    +0.000 A 
ENDROOT
BRANCH   5   7
ATOM      7  C   UNL     1       3.378   4.442  19.075  0.00  0.00    +0.000 A 
ATOM      8  C   UNL     1       2.273   4.890  19.782  0.00  0.00    +0.000 A 
ATOM      9  N   UNL     1       1.685   4.233  20.810  0.00  0.00    +0.000 NA
ATOM     10  C   UNL     1       2.228   3.066  21.154  0.00  0.00    +0.000 A 
ATOM     11  N   UNL     1       1.643   2.374  22.193  0.00  0.00    +0.000 N 
ATOM     12  N   UNL     1       3.315   2.540  20.589  0.00  0.00    +0.000 NA
ATOM     13  C   UNL     1       3.854   3.236  19.560  0.00  0.00    +0.000 A 
ATOM     14  H   UNL     1       1.119   3.016  22.771  0.00  0.00    +0.000 HD
ATOM     15  H   UNL     1       2.335   1.793  22.646  0.00  0.00    +0.000 HD
ENDBRANCH   5   7
BRANCH   1  18
ATOM     16  C   UNL     1       6.648   4.534  14.004  0.00  0.00    +0.000 C 
ATOM     17  O   UNL     1       7.544   5.199  14.521  0.00  0.00    +0.000 OA
ATOM     18  N   UNL     1       5.381   4.372  14.549  0.00  0.00    +0.000 N 
ATOM     19  H   UNL     1       4.985   3.450  14.398  0.00  0.00    +0.000 HD
BRANCH  16  20
ATOM     20  C   UNL     1       6.863   3.716  12.707  0.00  0.00    +0.000 C 
BRANCH  20  21
ATOM     21  N   UNL     1       7.368   4.660  11.685  0.00  0.00    +0.000 NA
ATOM     22  H   UNL     1       7.989   5.328  12.149  0.00  0.00    +0.000 HD
ATOM     23  H   UNL     1       6.597   5.218  11.321  0.00  0.00    +0.000 HD
ENDBRANCH  20  21
BRANCH  20  24
ATOM     24  C   UNL     1       5.547   2.990  12.303  0.00  0.00    +0.000 C 
ATOM     25  C   UNL     1       5.873   1.710  11.506  0.00  0.00    +0.000 C 
BRANCH  24  27
ATOM     26  C   UNL     1       3.500   3.124  10.760  0.00  0.00    +0.000 C 
ATOM     27  C   UNL     1       4.603   3.895  11.480  0.00  0.00    +0.000 C 
ENDBRANCH  24  27
ENDBRANCH  20  24
ENDBRANCH  16  20
ENDBRANCH   1  18
TORSDOF 6
ENDMDL
MODEL 2
REMARK VINA RESULT:      -7.9      0.182      1.009
REMARK  Name = 
REMARK  8 active torsions:
REMARK  status: ('A' for Active; 'I' for Inactive)
REMARK    1  A    between atoms: C_1  and  C_2
REMARK    2  A    between atoms: C_2  and  C_3
REMARK    3  A    between atoms: C_3  and  C_4
REMARK    4  A    between atoms: C_3  and  C_5
REMARK    5  A    between atoms: C_5  and  N_6
REMARK    6  A    between atoms: C_5  and  C_7
REMARK    7  A    between atoms: N_9  and  C_10
REMARK    8  A    between atoms: C_14  and  C_15
REMARK                            x       y       z     vdW  Elec       q    Type
REMARK                         _______ _______ _______ _____ _____    ______ ____
ROOT
ATOM      1  C   UNL     1       4.945   4.965  15.768  0.00  0.00    +0.000 A 
ATOM      2  C   UNL     1       5.175   6.333  15.828  0.00  0.00    +0.000 A 
ATOM      3  C   UNL     1       4.663   7.061  16.898  0.00  0.00    +0.000 A 
ATOM      4  C   UNL     1       3.980   6.411  17.938  0.00  0.00    +0.000 A 
ATOM      5  C   UNL     1       3.812   5.016  17.946  0.00  0.00    +0.000 A 
ATOM      6  C   UNL     1       4.311   4.317  16.831  0.00  0.00    +0.000 A 
ENDROOT
BRANCH   5   7
ATOM      7  C   UNL     1       3.158   4.307  19.066  0.00  0.00    +0.000 A 
ATOM      8  C   UNL     1       3.636   3.130  19.620  0.00  0.00    +0.000 A 
ATOM      9  N   UNL     1       3.092   2.491  20.683  0.00  0.00    +0.000 NA
ATOM     10  C   UNL     1       2.012   3.053  21.223  0.00  0.00    +0.000 A 
ATOM     11  N   UNL     1       1.444   2.425  22.311  0.00  0.00    +0.000 N 
ATOM     12  N   UNL     1       1.423   4.158  20.764  0.00  0.00    +0.000 NA
ATOM     13  C   UNL     1       2.016   4.759  19.706  0.00  0.00    +0.000 A 
ATOM     14  H   UNL     1       1.710   1.450  22.312  0.00  0.00    +0.000 HD
ATOM     15  H   UNL     1       0.458   2.642  22.351  0.00  0.00    +0.000 HD
ENDBRANCH   5   7
BRANCH   1  18
ATOM     16  C   UNL     1       6.569   4.507  14.026  0.00  0.00    +0.000 C 
ATOM     17  O   UNL     1       7.421   5.262  14.491  0.00  0.00    +0.000 OA
ATOM     18  N   UNL     1       5.344   4.246  14.626  0.00  0.00    +0.000 N 
ATOM     19  H   UNL     1       5.028   3.288  14.512  0.00  0.00    +0.000 HD
BRANCH  16  20
ATOM     20  C   UNL     1       6.808   3.678  12.740  0.00  0.00    +0.000 C 
BRANCH  20  21
ATOM     21  N   UNL     1       7.356   4.608  11.728  0.00  0.00    +0.000 NA
ATOM     22  H   UNL     1       7.329   4.138  10.818  0.00  0.00    +0.000 HD
ATOM     23  H   UNL     1       8.344   4.776  11.914  0.00  0.00    +0.000 HD
ENDBRANCH  20  21
BRANCH  20  24
ATOM     24  C   UNL     1       5.492   2.971  12.304  0.00  0.00    +0.000 C 
ATOM     25  C   UNL     1       5.820   1.704  11.486  0.00  0.00    +0.000 C 
BRANCH  24  27
ATOM     26  C   UNL     1       3.464   3.151  10.740  0.00  0.00    +0.000 C 
ATOM     27  C   UNL     1       4.567   3.898  11.484  0.00  0.00    +0.000 C 
ENDBRANCH  24  27
ENDBRANCH  20  24
ENDBRANCH  16  20
ENDBRANCH   1  18
TORSDOF 6
ENDMDL
MODEL 3
REMARK VINA RESULT:      -7.9      4.129      8.947
REMARK  Name = 
REMARK  8 active torsions:
REMARK  status: ('A' for Active; 'I' for Inactive)
REMARK    1  A    between atoms: C_1  and  C_2
REMARK    2  A    between atoms: C_2  and  C_3
REMARK    3  A    between atoms: C_3  and  C_4
REMARK    4  A    between atoms: C_3  and  C_5
REMARK    5  A    between atoms: C_5  and  N_6
REMARK    6  A    between atoms: C_5  and  C_7
REMARK    7  A    between atoms: N_9  and  C_10
REMARK    8  A    between atoms: C_14  and  C_15
REMARK                            x       y       z     vdW  Elec       q    Type
REMARK                         _______ _______ _______ _____ _____    ______ ____
ROOT
ATOM      1  C   UNL     1       2.042   6.108  20.214  0.00  0.00    +0.000 A 
ATOM      2  C   UNL     1       1.291   4.950  20.362  0.00  0.00    +0.000 A 
ATOM      3  C   UNL     1       1.506   3.885  19.492  0.00  0.00    +0.000 A 
ATOM      4  C   UNL     1       2.514   3.955  18.519  0.00  0.00    +0.000 A 
ATOM      5  C   UNL     1       3.348   5.081  18.406  0.00  0.00    +0.000 A 
ATOM      6  C   UNL     1       3.079   6.152  19.279  0.00  0.00    +0.000 A 
ENDROOT
BRANCH   5   7
ATOM      7  C   UNL     1       4.460   5.144  17.434  0.00  0.00    +0.000 A 
ATOM      8  C   UNL     1       5.110   4.028  16.931  0.00  0.00    +0.000 A 
ATOM      9  N   UNL     1       6.092   4.052  15.998  0.00  0.00    +0.000 NA
ATOM     10  C   UNL     1       6.447   5.252  15.542  0.00  0.00    +0.000 A 
ATOM     11  N   UNL     1       7.438   5.303  14.586  0.00  0.00    +0.000 N 
ATOM     12  N   UNL     1       5.936   6.408  15.971  0.00  0.00    +0.000 NA
ATOM     13  C   UNL     1       4.952   6.322  16.897  0.00  0.00    +0.000 A 
ATOM     14  H   UNL     1       7.996   4.462  14.637  0.00  0.00    +0.000 HD
ATOM     15  H   UNL     1       7.920   6.190  14.643  0.00  0.00    +0.000 HD
ENDBRANCH   5   7
BRANCH   1  18
ATOM     16  C   UNL     1       1.469   8.457  20.406  0.00  0.00    +0.000 C 
ATOM     17  O   UNL     1       1.351   8.624  19.193  0.00  0.00    +0.000 OA
ATOM     18  N   UNL     1       1.741   7.234  21.003  0.00  0.00    +0.000 N 
ATOM     19  H   UNL     1       1.271   7.099  21.893  0.00  0.00    +0.000 HD
BRANCH  16  20
ATOM     20  C   UNL     1       1.235   9.597  21.427  0.00  0.00    +0.000 C 
BRANCH  20  21
ATOM     21  N   UNL     1       1.885   9.180  22.690  0.00  0.00    +0.000 NA
ATOM     22  H   UNL     1       1.152   9.034  23.390  0.00  0.00    +0.000 HD
ATOM     23  H   UNL     1       2.454   9.943  23.051  0.00  0.00    +0.000 HD
ENDBRANCH  20  21
BRANCH  20  24
ATOM     24  C   UNL     1      -0.287   9.892  21.566  0.00  0.00    +0.000 C 
ATOM     25  C   UNL     1      -0.681  11.075  20.656  0.00  0.00    +0.000 C 
BRANCH  24  27
ATOM     26  C   UNL     1      -1.636  11.390  23.154  0.00  0.00    +0.000 C 
ATOM     27  C   UNL     1      -0.699  10.193  23.024  0.00  0.00    +0.000 C 
ENDBRANCH  24  27
ENDBRANCH  20  24
ENDBRANCH  16  20
ENDBRANCH   1  18
TORSDOF 6
ENDMDL
MODEL 4
REMARK VINA RESULT:      -7.9      4.189      8.943
REMARK  Name = 
REMARK  8 active torsions:
REMARK  status: ('A' for Active; 'I' for Inactive)
REMARK    1  A    between atoms: C_1  and  C_2
REMARK    2  A    between atoms: C_2  and  C_3
REMARK    3  A    between atoms: C_3  and  C_4
REMARK    4  A    between atoms: C_3  and  C_5
REMARK    5  A    between atoms: C_5  and  N_6
REMARK    6  A    between atoms: C_5  and  C_7
REMARK    7  A    between atoms: N_9  and  C_10
REMARK    8  A    between atoms: C_14  and  C_15
REMARK                            x       y       z     vdW  Elec       q    Type
REMARK                         _______ _______ _______ _____ _____    ______ ____
ROOT
ATOM      1  C   UNL     1       2.023   6.174  20.213  0.00  0.00    +0.000 A 
ATOM      2  C   UNL     1       1.257   5.029  20.390  0.00  0.00    +0.000 A 
ATOM      3  C   UNL     1       1.423   3.960  19.514  0.00  0.00    +0.000 A 
ATOM      4  C   UNL     1       2.397   4.012  18.505  0.00  0.00    +0.000 A 
ATOM      5  C   UNL     1       3.246   5.123  18.361  0.00  0.00    +0.000 A 
ATOM      6  C   UNL     1       3.027   6.199  19.242  0.00  0.00    +0.000 A 
ENDROOT
BRANCH   5   7
ATOM      7  C   UNL     1       4.323   5.165  17.351  0.00  0.00    +0.000 A 
ATOM      8  C   UNL     1       4.871   6.338  16.855  0.00  0.00    +0.000 A 
ATOM      9  N   UNL     1       5.898   6.407  15.973  0.00  0.00    +0.000 NA
ATOM     10  C   UNL     1       6.405   5.246  15.562  0.00  0.00    +0.000 A 
ATOM     11  N   UNL     1       7.455   5.290  14.671  0.00  0.00    +0.000 N 
ATOM     12  N   UNL     1       5.945   4.048  15.924  0.00  0.00    +0.000 NA
ATOM     13  C   UNL     1       4.925   4.040  16.814  0.00  0.00    +0.000 A 
ATOM     14  H   UNL     1       7.447   6.177  14.186  0.00  0.00    +0.000 HD
ATOM     15  H   UNL     1       7.460   4.450  14.109  0.00  0.00    +0.000 HD
ENDBRANCH   5   7
BRANCH   1  18
ATOM     16  C   UNL     1       1.414   8.512  20.424  0.00  0.00    +0.000 C 
ATOM     17  O   UNL     1       1.179   8.657  19.226  0.00  0.00    +0.000 OA
ATOM     18  N   UNL     1       1.769   7.305  21.011  0.00  0.00    +0.000 N 
ATOM     19  H   UNL     1       1.388   7.175  21.943  0.00  0.00    +0.000 HD
BRANCH  16  20
ATOM     20  C   UNL     1       1.249   9.663  21.447  0.00  0.00    +0.000 C 
BRANCH  20  21
ATOM     21  N   UNL     1       1.803   9.178  22.730  0.00  0.00    +0.000 NA
ATOM     22  H   UNL     1       2.016   8.182  22.628  0.00  0.00    +0.000 HD
ATOM     23  H   UNL     1       1.088   9.227  23.454  0.00  0.00    +0.000 HD
ENDBRANCH  20  21
BRANCH  20  24
ATOM     24  C   UNL     1      -0.242  10.103  21.527  0.00  0.00    +0.000 C 
ATOM     25  C   UNL     1      -0.445  11.426  20.760  0.00  0.00    +0.000 C 
BRANCH  24  27
ATOM     26  C   UNL     1      -1.717  11.411  23.170  0.00  0.00    +0.000 C 
ATOM     27  C   UNL     1      -0.733  10.261  22.984  0.00  0.00    +0.000 C 
ENDBRANCH  24  27
ENDBRANCH  20  24
ENDBRANCH  16  20
ENDBRANCH   1  18
TORSDOF 6
ENDMDL
MODEL 5
REMARK VINA RESULT:      -7.7      3.614      5.470
REMARK  Name = 
REMARK  8 active torsions:
REMARK  status: ('A' for Active; 'I' for Inactive)
REMARK    1  A    between atoms: C_1  and  C_2
REMARK    2  A    between atoms: C_2  and  C_3
REMARK    3  A    between atoms: C_3  and  C_4
REMARK    4  A    between atoms: C_3  and  C_5
REMARK    5  A    between atoms: C_5  and  N_6
REMARK    6  A    between atoms: C_5  and  C_7
REMARK    7  A    between atoms: N_9  and  C_10
REMARK    8  A    between atoms: C_14  and  C_15
REMARK                            x       y       z     vdW  Elec       q    Type
REMARK                         _______ _______ _______ _____ _____    ______ ____
ROOT
ATOM      1  C   UNL     1       3.564   4.858  18.910  0.00  0.00    +0.000 A 
ATOM      2  C   UNL     1       3.030   3.822  19.666  0.00  0.00    +0.000 A 
ATOM      3  C   UNL     1       2.114   4.117  20.670  0.00  0.00    +0.000 A 
ATOM      4  C   UNL     1       1.683   5.437  20.874  0.00  0.00    +0.000 A 
ATOM      5  C   UNL     1       2.140   6.491  20.065  0.00  0.00    +0.000 A 
ATOM      6  C   UNL     1       3.093   6.161  19.082  0.00  0.00    +0.000 A 
ENDROOT
BRANCH   5   7
ATOM      7  C   UNL     1       1.645   7.875  20.219  0.00  0.00    +0.000 A 
ATOM      8  C   UNL     1       1.252   8.425  21.429  0.00  0.00    +0.000 A 
ATOM      9  N   UNL     1       0.850   9.706  21.610  0.00  0.00    +0.000 NA
ATOM     10  C   UNL     1       0.837  10.481  20.527  0.00  0.00    +0.000 A 
ATOM     11  N   UNL     1       0.439  11.791  20.687  0.00  0.00    +0.000 N 
ATOM     12  N   UNL     1       1.147  10.070  19.297  0.00  0.00    +0.000 NA
ATOM     13  C   UNL     1       1.551   8.783  19.178  0.00  0.00    +0.000 A 
ATOM     14  H   UNL     1      -0.126  11.870  21.521  0.00  0.00    +0.000 HD
ATOM     15  H   UNL     1       0.046  12.135  19.821  0.00  0.00    +0.000 HD
ENDBRANCH   5   7
BRANCH   1  18
ATOM     16  C   UNL     1       5.920   4.699  18.355  0.00  0.00    +0.000 C 
ATOM     17  O   UNL     1       6.302   4.921  19.503  0.00  0.00    +0.000 OA
ATOM     18  N   UNL     1       4.587   4.581  17.984  0.00  0.00    +0.000 N 
ATOM     19  H   UNL     1       4.423   3.888  17.262  0.00  0.00    +0.000 HD
BRANCH  16  20
ATOM     20  C   UNL     1       6.904   4.432  17.190  0.00  0.00    +0.000 C 
BRANCH  20  21
ATOM     21  N   UNL     1       8.213   4.111  17.800  0.00  0.00    +0.000 NA
ATOM     22  H   UNL     1       8.850   3.823  17.052  0.00  0.00    +0.000 HD
ATOM     23  H   UNL     1       8.121   3.295  18.403  0.00  0.00    +0.000 HD
ENDBRANCH  20  21
BRANCH  20  24
ATOM     24  C   UNL     1       6.937   5.651  16.223  0.00  0.00    +0.000 C 
ATOM     25  C   UNL     1       6.913   6.966  17.030  0.00  0.00    +0.000 C 
BRANCH  24  27
ATOM     26  C   UNL     1       5.645   4.320  14.450  0.00  0.00    +0.000 C 
ATOM     27  C   UNL     1       5.769   5.635  15.212  0.00  0.00    +0.000 C 
ENDBRANCH  24  27
ENDBRANCH  20  24
ENDBRANCH  16  20
ENDBRANCH   1  18
TORSDOF 6
ENDMDL
MODEL 6
REMARK VINA RESULT:      -7.7      3.650      5.496
REMARK  Name = 
REMARK  8 active torsions:
REMARK  status: ('A' for Active; 'I' for Inactive)
REMARK    1  A    between atoms: C_1  and  C_2
REMARK    2  A    between atoms: C_2  and  C_3
REMARK    3  A    between atoms: C_3  and  C_4
REMARK    4  A    between atoms: C_3  and  C_5
REMARK    5  A    between atoms: C_5  and  N_6
REMARK    6  A    between atoms: C_5  and  C_7
REMARK    7  A    between atoms: N_9  and  C_10
REMARK    8  A    between atoms: C_14  and  C_15
REMARK                            x       y       z     vdW  Elec       q    Type
REMARK                         _______ _______ _______ _____ _____    ______ ____
ROOT
ATOM      1  C   UNL     1       3.462   4.950  18.888  0.00  0.00    +0.000 A 
ATOM      2  C   UNL     1       2.867   3.902  19.578  0.00  0.00    +0.000 A 
ATOM      3  C   UNL     1       1.955   4.188  20.590  0.00  0.00    +0.000 A 
ATOM      4  C   UNL     1       1.592   5.514  20.866  0.00  0.00    +0.000 A 
ATOM      5  C   UNL     1       2.112   6.588  20.122  0.00  0.00    +0.000 A 
ATOM      6  C   UNL     1       3.057   6.264  19.130  0.00  0.00    +0.000 A 
ENDROOT
BRANCH   5   7
ATOM      7  C   UNL     1       1.688   7.985  20.352  0.00  0.00    +0.000 A 
ATOM      8  C   UNL     1       1.459   8.899  19.336  0.00  0.00    +0.000 A 
ATOM      9  N   UNL     1       1.014  10.166  19.513  0.00  0.00    +0.000 NA
ATOM     10  C   UNL     1       0.786  10.544  20.770  0.00  0.00    +0.000 A 
ATOM     11  N   UNL     1       0.325  11.827  20.976  0.00  0.00    +0.000 N 
ATOM     12  N   UNL     1       1.006   9.782  21.842  0.00  0.00    +0.000 NA
ATOM     13  C   UNL     1       1.441   8.522  21.604  0.00  0.00    +0.000 A 
ATOM     14  H   UNL     1       0.574  12.403  20.183  0.00  0.00    +0.000 HD
ATOM     15  H   UNL     1       0.606  12.145  21.893  0.00  0.00    +0.000 HD
ENDBRANCH   5   7
BRANCH   1  18
ATOM     16  C   UNL     1       5.813   4.710  18.341  0.00  0.00    +0.000 C 
ATOM     17  O   UNL     1       6.194   4.855  19.501  0.00  0.00    +0.000 OA
ATOM     18  N   UNL     1       4.480   4.674  17.955  0.00  0.00    +0.000 N 
ATOM     19  H   UNL     1       4.290   4.026  17.197  0.00  0.00    +0.000 HD
BRANCH  16  20
ATOM     20  C   UNL     1       6.794   4.456  17.171  0.00  0.00    +0.000 C 
BRANCH  20  21
ATOM     21  N   UNL     1       8.106   4.130  17.774  0.00  0.00    +0.000 NA
ATOM     22  H   UNL     1       7.938   3.565  18.611  0.00  0.00    +0.000 HD
ATOM     23  H   UNL     1       8.551   4.982  18.110  0.00  0.00    +0.000 HD
ENDBRANCH  20  21
BRANCH  20  24
ATOM     24  C   UNL     1       6.825   5.687  16.218  0.00  0.00    +0.000 C 
ATOM     25  C   UNL     1       6.713   6.991  17.035  0.00  0.00    +0.000 C 
BRANCH  24  27
ATOM     26  C   UNL     1       5.659   4.322  14.383  0.00  0.00    +0.000 C 
ATOM     27  C   UNL     1       5.705   5.637  15.154  0.00  0.00    +0.000 C 
ENDBRANCH  24  27
ENDBRANCH  20  24
ENDBRANCH  16  20
ENDBRANCH   1  18
TORSDOF 6
ENDMDL
MODEL 7
REMARK VINA RESULT:      -7.5      4.632      7.229
REMARK  Name = 
REMARK  8 active torsions:
REMARK  status: ('A' for Active; 'I' for Inactive)
REMARK    1  A    between atoms: C_1  and  C_2
REMARK    2  A    between atoms: C_2  and  C_3
REMARK    3  A    between atoms: C_3  and  C_4
REMARK    4  A    between atoms: C_3  and  C_5
REMARK    5  A    between atoms: C_5  and  N_6
REMARK    6  A    between atoms: C_5  and  C_7
REMARK    7  A    between atoms: N_9  and  C_10
REMARK    8  A    between atoms: C_14  and  C_15
REMARK                            x       y       z     vdW  Elec       q    Type
REMARK                         _______ _______ _______ _____ _____    ______ ____
ROOT
ATOM      1  C   UNL     1       2.537   7.052  19.495  0.00  0.00    +0.000 A 
ATOM      2  C   UNL     1       2.787   7.489  18.201  0.00  0.00    +0.000 A 
ATOM      3  C   UNL     1       2.153   8.638  17.738  0.00  0.00    +0.000 A 
ATOM      4  C   UNL     1       1.323   9.384  18.590  0.00  0.00    +0.000 A 
ATOM      5  C   UNL     1       1.125   9.013  19.930  0.00  0.00    +0.000 A 
ATOM      6  C   UNL     1       1.753   7.827  20.353  0.00  0.00    +0.000 A 
ENDROOT
BRANCH   5   7
ATOM      7  C   UNL     1       0.312   9.824  20.861  0.00  0.00    +0.000 A 
ATOM      8  C   UNL     1       0.375   9.714  22.241  0.00  0.00    +0.000 A 
ATOM      9  N   UNL     1      -0.313  10.483  23.118  0.00  0.00    +0.000 NA
ATOM     10  C   UNL     1      -1.110  11.412  22.592  0.00  0.00    +0.000 A 
ATOM     11  N   UNL     1      -1.816  12.212  23.464  0.00  0.00    +0.000 N 
ATOM     12  N   UNL     1      -1.299  11.597  21.285  0.00  0.00    +0.000 NA
ATOM     13  C   UNL     1      -0.577  10.806  20.456  0.00  0.00    +0.000 A 
ATOM     14  H   UNL     1      -1.904  11.742  24.355  0.00  0.00    +0.000 HD
ATOM     15  H   UNL     1      -2.664  12.534  23.019  0.00  0.00    +0.000 HD
ENDBRANCH   5   7
BRANCH   1  18
ATOM     16  C   UNL     1       3.378   4.831  19.002  0.00  0.00    +0.000 C 
ATOM     17  O   UNL     1       3.332   4.982  17.783  0.00  0.00    +0.000 OA
ATOM     18  N   UNL     1       3.070   5.822  19.924  0.00  0.00    +0.000 N 
ATOM     19  H   UNL     1       3.649   5.802  20.758  0.00  0.00    +0.000 HD
BRANCH  16  20
ATOM     20  C   UNL     1       3.881   3.522  19.658  0.00  0.00    +0.000 C 
BRANCH  20  21
ATOM     21  N   UNL     1       5.216   3.240  19.085  0.00  0.00    +0.000 NA
ATOM     22  H   UNL     1       5.175   3.429  18.080  0.00  0.00    +0.000 HD
ATOM     23  H   UNL     1       5.421   2.246  19.164  0.00  0.00    +0.000 HD
ENDBRANCH  20  21
BRANCH  20  24
ATOM     24  C   UNL     1       2.845   2.380  19.443  0.00  0.00    +0.000 C 
ATOM     25  C   UNL     1       2.792   1.990  17.951  0.00  0.00    +0.000 C 
BRANCH  24  27
ATOM     26  C   UNL     1       1.316   2.832  21.454  0.00  0.00    +0.000 C 
ATOM     27  C   UNL     1       1.432   2.764  19.935  0.00  0.00    +0.000 C 
ENDBRANCH  24  27
ENDBRANCH  20  24
ENDBRANCH  16  20
ENDBRANCH   1  18
TORSDOF 6
ENDMDL
MODEL 8
REMARK VINA RESULT:      -7.4      4.591      7.181
REMARK  Name = 
REMARK  8 active torsions:
REMARK  status: ('A' for Active; 'I' for Inactive)
REMARK    1  A    between atoms: C_1  and  C_2
REMARK    2  A    between atoms: C_2  and  C_3
REMARK    3  A    between atoms: C_3  and  C_4
REMARK    4  A    between atoms: C_3  and  C_5
REMARK    5  A    between atoms: C_5  and  N_6
REMARK    6  A    between atoms: C_5  and  C_7
REMARK    7  A    between atoms: N_9  and  C_10
REMARK    8  A    between atoms: C_14  and  C_15
REMARK                            x       y       z     vdW  Elec       q    Type
REMARK                         _______ _______ _______ _____ _____    ______ ____
ROOT
ATOM      1  C   UNL     1       2.519   6.977  19.506  0.00  0.00    +0.000 A 
ATOM      2  C   UNL     1       2.785   7.403  18.211  0.00  0.00    +0.000 A 
ATOM      3  C   UNL     1       2.194   8.574  17.748  0.00  0.00    +0.000 A 
ATOM      4  C   UNL     1       1.393   9.352  18.598  0.00  0.00    +0.000 A 
ATOM      5  C   UNL     1       1.181   8.990  19.940  0.00  0.00    +0.000 A 
ATOM      6  C   UNL     1       1.765   7.781  20.364  0.00  0.00    +0.000 A 
ENDROOT
BRANCH   5   7
ATOM      7  C   UNL     1       0.399   9.832  20.869  0.00  0.00    +0.000 A 
ATOM      8  C   UNL     1      -0.480  10.822  20.461  0.00  0.00    +0.000 A 
ATOM      9  N   UNL     1      -1.252  11.569  21.286  0.00  0.00    +0.000 NA
ATOM     10  C   UNL     1      -1.141  11.317  22.589  0.00  0.00    +0.000 A 
ATOM     11  N   UNL     1      -1.922  12.059  23.450  0.00  0.00    +0.000 N 
ATOM     12  N   UNL     1      -0.304  10.426  23.121  0.00  0.00    +0.000 NA
ATOM     13  C   UNL     1       0.435   9.702  22.247  0.00  0.00    +0.000 A 
ATOM     14  H   UNL     1      -2.190  12.923  22.999  0.00  0.00    +0.000 HD
ATOM     15  H   UNL     1      -1.469  12.121  24.351  0.00  0.00    +0.000 HD
ENDBRANCH   5   7
BRANCH   1  18
ATOM     16  C   UNL     1       3.377   4.763  19.011  0.00  0.00    +0.000 C 
ATOM     17  O   UNL     1       3.429   4.952  17.797  0.00  0.00    +0.000 OA
ATOM     18  N   UNL     1       3.005   5.728  19.937  0.00  0.00    +0.000 N 
ATOM     19  H   UNL     1       3.517   5.675  20.812  0.00  0.00    +0.000 HD
BRANCH  16  20
ATOM     20  C   UNL     1       3.814   3.428  19.663  0.00  0.00    +0.000 C 
BRANCH  20  21
ATOM     21  N   UNL     1       5.167   3.123  19.147  0.00  0.00    +0.000 NA
ATOM     22  H   UNL     1       5.069   2.754  18.197  0.00  0.00    +0.000 HD
ATOM     23  H   UNL     1       5.578   2.364  19.689  0.00  0.00    +0.000 HD
ENDBRANCH  20  21
BRANCH  20  24
ATOM     24  C   UNL     1       2.762   2.318  19.375  0.00  0.00    +0.000 C 
ATOM     25  C   UNL     1       2.570   2.154  17.853  0.00  0.00    +0.000 C 
BRANCH  24  27
ATOM     26  C   UNL     1       1.496   2.789  21.558  0.00  0.00    +0.000 C 
ATOM     27  C   UNL     1       1.400   2.607  20.046  0.00  0.00    +0.000 C 
ENDBRANCH  24  27
ENDBRANCH  20  24
ENDBRANCH  16  20
ENDBRANCH   1  18
TORSDOF 6
ENDMDL
MODEL 9
REMARK VINA RESULT:      -7.3      1.323      1.650
REMARK  Name = 
REMARK  8 active torsions:
REMARK  status: ('A' for Active; 'I' for Inactive)
REMARK    1  A    between atoms: C_1  and  C_2
REMARK    2  A    between atoms: C_2  and  C_3
REMARK    3  A    between atoms: C_3  and  C_4
REMARK    4  A    between atoms: C_3  and  C_5
REMARK    5  A    between atoms: C_5  and  N_6
REMARK    6  A    between atoms: C_5  and  C_7
REMARK    7  A    between atoms: N_9  and  C_10
REMARK    8  A    between atoms: C_14  and  C_15
REMARK                            x       y       z     vdW  Elec       q    Type
REMARK                         _______ _______ _______ _____ _____    ______ ____
ROOT
ATOM      1  C   UNL     1       6.569   4.248  16.450  0.00  0.00    +0.000 A 
ATOM      2  C   UNL     1       7.464   5.196  16.928  0.00  0.00    +0.000 A 
ATOM      3  C   UNL     1       7.201   5.826  18.140  0.00  0.00    +0.000 A 
ATOM      4  C   UNL     1       6.081   5.461  18.903  0.00  0.00    +0.000 A 
ATOM      5  C   UNL     1       5.209   4.442  18.485  0.00  0.00    +0.000 A 
ATOM      6  C   UNL     1       5.486   3.851  17.237  0.00  0.00    +0.000 A 
ENDROOT
BRANCH   5   7
ATOM      7  C   UNL     1       4.065   3.996  19.308  0.00  0.00    +0.000 A 
ATOM      8  C   UNL     1       3.887   2.692  19.741  0.00  0.00    +0.000 A 
ATOM      9  N   UNL     1       2.882   2.267  20.543  0.00  0.00    +0.000 NA
ATOM     10  C   UNL     1       2.005   3.190  20.935  0.00  0.00    +0.000 A 
ATOM     11  N   UNL     1       0.977   2.784  21.758  0.00  0.00    +0.000 N 
ATOM     12  N   UNL     1       2.033   4.469  20.558  0.00  0.00    +0.000 NA
ATOM     13  C   UNL     1       3.066   4.839  19.764  0.00  0.00    +0.000 A 
ATOM     14  H   UNL     1       0.833   1.790  21.649  0.00  0.00    +0.000 HD
ATOM     15  H   UNL     1       0.179   3.391  21.629  0.00  0.00    +0.000 HD
ENDBRANCH   5   7
BRANCH   1  18
ATOM     16  C   UNL     1       6.628   4.503  14.038  0.00  0.00    +0.000 C 
ATOM     17  O   UNL     1       6.468   5.722  14.069  0.00  0.00    +0.000 OA
ATOM     18  N   UNL     1       6.759   3.703  15.165  0.00  0.00    +0.000 N 
ATOM     19  H   UNL     1       7.411   2.934  15.049  0.00  0.00    +0.000 HD
BRANCH  16  20
ATOM     20  C   UNL     1       6.795   3.721  12.712  0.00  0.00    +0.000 C 
BRANCH  20  21
ATOM     21  N   UNL     1       7.256   4.694  11.697  0.00  0.00    +0.000 NA
ATOM     22  H   UNL     1       6.562   5.445  11.639  0.00  0.00    +0.000 HD
ATOM     23  H   UNL     1       7.255   4.257  10.776  0.00  0.00    +0.000 HD
ENDBRANCH  20  21
BRANCH  20  24
ATOM     24  C   UNL     1       5.467   3.000  12.341  0.00  0.00    +0.000 C 
ATOM     25  C   UNL     1       5.763   1.766  11.464  0.00  0.00    +0.000 C 
BRANCH  24  27
ATOM     26  C   UNL     1       3.490   3.188  10.715  0.00  0.00    +0.000 C 
ATOM     27  C   UNL     1       4.472   3.932  11.615  0.00  0.00    +0.000 C 
ENDBRANCH  24  27
ENDBRANCH  20  24
ENDBRANCH  16  20
ENDBRANCH   1  18
TORSDOF 6
ENDMDL
