MODEL 1
REMARK VINA RESULT:      -8.5      0.000      0.000
REMARK  Name = 
REMARK  6 active torsions:
REMARK  status: ('A' for Active; 'I' for Inactive)
REMARK    1  A    between atoms: C_1  and  C_2
REMARK    2  A    between atoms: C_5  and  C_6
REMARK    3  A    between atoms: C_6  and  C_7
REMARK    4  A    between atoms: C_7  and  C_8
REMARK    5  A    between atoms: C_7  and  N_14
REMARK    6  A    between atoms: N_17  and  C_18
REMARK                            x       y       z     vdW  Elec       q    Type
REMARK                         _______ _______ _______ _____ _____    ______ ____
ROOT
ATOM      1  C   UNL     1       3.561   5.849  19.246  0.00  0.00    +0.000 C 
ENDROOT
BRANCH   1   2
ATOM      2  C   UNL     1       2.665   4.816  19.919  0.00  0.00    +0.000 A 
ATOM      3  C   UNL     1       2.915   4.300  21.206  0.00  0.00    +0.000 A 
ATOM      4  C   UNL     1       2.078   3.318  21.750  0.00  0.00    +0.000 A 
ATOM      5  C   UNL     1       0.983   2.847  21.028  0.00  0.00    +0.000 A 
ATOM      6  C   UNL     1       0.714   3.353  19.757  0.00  0.00    +0.000 A 
ATOM      7  C   UNL     1       1.548   4.333  19.206  0.00  0.00    +0.000 A 
ENDBRANCH   1   2
BRANCH   1   8
ATOM      8  N   UNL     1       4.676   5.164  18.548  0.00  0.00    +0.000 NA
ATOM      9  C   UNL     1       4.508   3.760  18.102  0.00  0.00    +0.000 C 
ATOM     10  C   UNL     1       3.995   3.642  16.640  0.00  0.00    +0.000 C 
ATOM     11  N   UNL     1       4.837   4.429  15.726  0.00  0.00    +0.000 NA
ATOM     12  C   UNL     1       4.987   5.846  16.136  0.00  0.00    +0.000 C 
ATOM     13  C   UNL     1       5.435   6.008  17.603  0.00  0.00    +0.000 C 
BRANCH  11  14
ATOM     14  C   UNL     1       5.749   3.704  14.784  0.00  0.00    +0.000 C 
ATOM     15  C   UNL     1       5.185   3.744  13.348  0.00  0.00    +0.000 C 
ATOM     16  C   UNL     1       5.935   3.036  12.217  0.00  0.00    +0.000 C 
ATOM     17  C   UNL     1       7.313   3.601  11.808  0.00  0.00    +0.000 C 
ATOM     18  C   UNL     1       7.442   5.142  11.798  0.00  0.00    +0.000 C 
ATOM     19  C   UNL     1       8.144   5.717  13.046  0.00  0.00    +0.000 C 
ATOM     20  C   UNL     1       7.448   5.602  14.399  0.00  0.00    +0.000 C 
ATOM     21  C   UNL     1       7.212   4.181  14.919  0.00  0.00    +0.000 C 
ENDBRANCH  11  14
ENDBRANCH   1   8
BRANCH   1  22
ATOM     22  C   UNL     1       2.869   6.854  18.308  0.00  0.00    +0.000 C 
BRANCH  22  27
ATOM     23  C   UNL     1      -0.442  10.974  20.669  0.00  0.00    +0.000 C 
ATOM     24  C   UNL     1       0.493   9.967  20.074  0.00  0.00    +0.000 A 
ATOM     25  C   UNL     1       0.861  10.060  18.721  0.00  0.00    +0.000 A 
ATOM     26  C   UNL     1       1.676   9.079  18.151  0.00  0.00    +0.000 A 
ATOM     27  C   UNL     1       2.125   8.000  18.928  0.00  0.00    +0.000 A 
ATOM     28  C   UNL     1       1.774   7.925  20.282  0.00  0.00    +0.000 A 
ATOM     29  C   UNL     1       0.966   8.903  20.856  0.00  0.00    +0.000 A 
ENDBRANCH  22  27
ENDBRANCH   1  22
TORSDOF 5
ENDMDL
MODEL 2
REMARK VINA RESULT:      -8.4      0.148      1.281
REMARK  Name = 
REMARK  6 active torsions:
REMARK  status: ('A' for Active; 'I' for Inactive)
REMARK    1  A    between atoms: C_1  and  C_2
REMARK    2  A    between atoms: C_5  and  C_6
REMARK    3  A    between atoms: C_6  and  C_7
REMARK    4  A    between atoms: C_7  and  C_8
REMARK    5  A    between atoms: C_7  and  N_14
REMARK    6  A    between atoms: N_17  and  C_18
REMARK                            x       y       z     vdW  Elec       q    Type
REMARK                         _______ _______ _______ _____ _____    ______ ____
ROOT
ATOM      1  C   UNL     1       3.591   5.811  19.234  0.00  0.00    +0.000 C 
ENDROOT
BRANCH   1   2
ATOM      2  C   UNL     1       2.671   4.758  19.841  0.00  0.00    +0.000 A 
ATOM      3  C   UNL     1       1.534   4.254  19.180  0.00  0.00    +0.000 A 
ATOM      4  C   UNL     1       0.704   3.320  19.812  0.00  0.00    +0.000 A 
ATOM      5  C   UNL     1       0.998   2.872  21.099  0.00  0.00    +0.000 A 
ATOM      6  C   UNL     1       2.125   3.352  21.764  0.00  0.00    +0.000 A 
ATOM      7  C   UNL     1       2.959   4.288  21.140  0.00  0.00    +0.000 A 
ENDBRANCH   1   2
BRANCH   1   8
ATOM      8  N   UNL     1       4.711   5.147  18.526  0.00  0.00    +0.000 NA
ATOM      9  C   UNL     1       4.568   3.738  18.087  0.00  0.00    +0.000 C 
ATOM     10  C   UNL     1       4.040   3.602  16.633  0.00  0.00    +0.000 C 
ATOM     11  N   UNL     1       4.854   4.403  15.704  0.00  0.00    +0.000 NA
ATOM     12  C   UNL     1       4.978   5.825  16.107  0.00  0.00    +0.000 C 
ATOM     13  C   UNL     1       5.440   6.004  17.567  0.00  0.00    +0.000 C 
BRANCH  11  14
ATOM     14  C   UNL     1       5.770   3.693  14.754  0.00  0.00    +0.000 C 
ATOM     15  C   UNL     1       5.202   3.740  13.321  0.00  0.00    +0.000 C 
ATOM     16  C   UNL     1       5.955   3.047  12.182  0.00  0.00    +0.000 C 
ATOM     17  C   UNL     1       7.326   3.628  11.773  0.00  0.00    +0.000 C 
ATOM     18  C   UNL     1       7.442   5.170  11.775  0.00  0.00    +0.000 C 
ATOM     19  C   UNL     1       8.143   5.741  13.026  0.00  0.00    +0.000 C 
ATOM     20  C   UNL     1       7.450   5.609  14.380  0.00  0.00    +0.000 C 
ATOM     21  C   UNL     1       7.229   4.182  14.890  0.00  0.00    +0.000 C 
ENDBRANCH  11  14
ENDBRANCH   1   8
BRANCH   1  22
ATOM     22  C   UNL     1       2.927   6.867  18.332  0.00  0.00    +0.000 C 
BRANCH  22  27
ATOM     23  C   UNL     1       0.084  11.217  20.884  0.00  0.00    +0.000 C 
ATOM     24  C   UNL     1       0.733  10.045  20.213  0.00  0.00    +0.000 A 
ATOM     25  C   UNL     1       1.091   8.912  20.964  0.00  0.00    +0.000 A 
ATOM     26  C   UNL     1       1.759   7.852  20.349  0.00  0.00    +0.000 A 
ATOM     27  C   UNL     1       2.076   7.917  18.983  0.00  0.00    +0.000 A 
ATOM     28  C   UNL     1       1.696   9.038  18.235  0.00  0.00    +0.000 A 
ATOM     29  C   UNL     1       1.024  10.097  18.842  0.00  0.00    +0.000 A 
ENDBRANCH  22  27
ENDBRANCH   1  22
TORSDOF 5
ENDMDL
MODEL 3
REMARK VINA RESULT:      -7.8      5.158     10.076
REMARK  Name = 
REMARK  6 active torsions:
REMARK  status: ('A' for Active; 'I' for Inactive)
REMARK    1  A    between atoms: C_1  and  C_2
REMARK    2  A    between atoms: C_5  and  C_6
REMARK    3  A    between atoms: C_6  and  C_7
REMARK    4  A    between atoms: C_7  and  C_8
REMARK    5  A    between atoms: C_7  and  N_14
REMARK    6  A    between atoms: N_17  and  C_18
REMARK                            x       y       z     vdW  Elec       q    Type
REMARK                         _______ _______ _______ _____ _____    ______ ____
ROOT
ATOM      1  C   UNL     1      -0.203  11.326  19.039  0.00  0.00    +0.000 C 
ENDROOT
BRANCH   1   2
ATOM      2  C   UNL     1      -1.601  11.118  18.470  0.00  0.00    +0.000 A 
ATOM      3  C   UNL     1      -2.731  11.826  18.922  0.00  0.00    +0.000 A 
ATOM      4  C   UNL     1      -3.997  11.556  18.389  0.00  0.00    +0.000 A 
ATOM      5  C   UNL     1      -4.152  10.588  17.397  0.00  0.00    +0.000 A 
ATOM      6  C   UNL     1      -3.043   9.885  16.930  0.00  0.00    +0.000 A 
ATOM      7  C   UNL     1      -1.774  10.148  17.460  0.00  0.00    +0.000 A 
ENDBRANCH   1   2
BRANCH   1   8
ATOM      8  N   UNL     1      -0.095  12.689  19.612  0.00  0.00    +0.000 NA
ATOM      9  C   UNL     1       0.649  12.894  20.879  0.00  0.00    +0.000 C 
ATOM     10  C   UNL     1       2.143  13.257  20.658  0.00  0.00    +0.000 C 
ATOM     11  N   UNL     1       2.273  14.396  19.736  0.00  0.00    +0.000 NA
ATOM     12  C   UNL     1       1.566  14.194  18.447  0.00  0.00    +0.000 C 
ATOM     13  C   UNL     1       0.093  13.771  18.623  0.00  0.00    +0.000 C 
BRANCH  11  14
ATOM     14  C   UNL     1       2.698  15.723  20.286  0.00  0.00    +0.000 C 
ATOM     15  C   UNL     1       3.662  15.531  21.475  0.00  0.00    +0.000 C 
ATOM     16  C   UNL     1       4.202  16.753  22.221  0.00  0.00    +0.000 C 
ATOM     17  C   UNL     1       5.161  17.692  21.456  0.00  0.00    +0.000 C 
ATOM     18  C   UNL     1       6.182  17.009  20.519  0.00  0.00    +0.000 C 
ATOM     19  C   UNL     1       5.780  17.038  19.029  0.00  0.00    +0.000 C 
ATOM     20  C   UNL     1       4.559  16.238  18.583  0.00  0.00    +0.000 C 
ATOM     21  C   UNL     1       3.215  16.666  19.178  0.00  0.00    +0.000 C 
ENDBRANCH  11  14
ENDBRANCH   1   8
BRANCH   1  22
ATOM     22  C   UNL     1       0.294  10.273  20.045  0.00  0.00    +0.000 C 
BRANCH  22  27
ATOM     23  C   UNL     1       3.499   5.973  17.865  0.00  0.00    +0.000 C 
ATOM     24  C   UNL     1       2.753   7.122  18.469  0.00  0.00    +0.000 A 
ATOM     25  C   UNL     1       2.289   7.042  19.794  0.00  0.00    +0.000 A 
ATOM     26  C   UNL     1       1.533   8.085  20.332  0.00  0.00    +0.000 A 
ATOM     27  C   UNL     1       1.232   9.212  19.550  0.00  0.00    +0.000 A 
ATOM     28  C   UNL     1       1.716   9.296  18.238  0.00  0.00    +0.000 A 
ATOM     29  C   UNL     1       2.476   8.261  17.699  0.00  0.00    +0.000 A 
ENDBRANCH  22  27
ENDBRANCH   1  22
TORSDOF 5
ENDMDL
MODEL 4
REMARK VINA RESULT:      -7.8      3.126      6.805
REMARK  Name = 
REMARK  6 active torsions:
REMARK  status: ('A' for Active; 'I' for Inactive)
REMARK    1  A    between atoms: C_1  and  C_2
REMARK    2  A    between atoms: C_5  and  C_6
REMARK    3  A    between atoms: C_6  and  C_7
REMARK    4  A    between atoms: C_7  and  C_8
REMARK    5  A    between atoms: C_7  and  N_14
REMARK    6  A    between atoms: N_17  and  C_18
REMARK                            x       y       z     vdW  Elec       q    Type
REMARK                         _______ _______ _______ _____ _____    ______ ____
ROOT
ATOM      1  C   UNL     1       0.614  11.008  19.870  0.00  0.00    +0.000 C 
ENDROOT
BRANCH   1   2
ATOM      2  C   UNL     1      -0.464  11.581  20.781  0.00  0.00    +0.000 A 
ATOM      3  C   UNL     1      -0.339  11.639  22.183  0.00  0.00    +0.000 A 
ATOM      4  C   UNL     1      -1.386  12.137  22.967  0.00  0.00    +0.000 A 
ATOM      5  C   UNL     1      -2.562  12.589  22.369  0.00  0.00    +0.000 A 
ATOM      6  C   UNL     1      -2.699  12.549  20.983  0.00  0.00    +0.000 A 
ATOM      7  C   UNL     1      -1.657  12.050  20.192  0.00  0.00    +0.000 A 
ENDBRANCH   1   2
BRANCH   1   8
ATOM      8  N   UNL     1       0.333   9.576  19.603  0.00  0.00    +0.000 NA
ATOM      9  C   UNL     1       0.865   8.943  18.373  0.00  0.00    +0.000 C 
ATOM     10  C   UNL     1       2.245   8.262  18.584  0.00  0.00    +0.000 C 
ATOM     11  N   UNL     1       2.199   7.332  19.725  0.00  0.00    +0.000 NA
ATOM     12  C   UNL     1       1.704   7.958  20.975  0.00  0.00    +0.000 C 
ATOM     13  C   UNL     1       0.364   8.700  20.792  0.00  0.00    +0.000 C 
BRANCH  11  14
ATOM     14  C   UNL     1       2.235   5.859  19.454  0.00  0.00    +0.000 C 
ATOM     15  C   UNL     1       1.896   5.573  17.977  0.00  0.00    +0.000 C 
ATOM     16  C   UNL     1       1.839   4.128  17.476  0.00  0.00    +0.000 C 
ATOM     17  C   UNL     1       3.161   3.330  17.440  0.00  0.00    +0.000 C 
ATOM     18  C   UNL     1       4.419   4.113  16.999  0.00  0.00    +0.000 C 
ATOM     19  C   UNL     1       5.315   4.565  18.171  0.00  0.00    +0.000 C 
ATOM     20  C   UNL     1       4.779   5.614  19.142  0.00  0.00    +0.000 C 
ATOM     21  C   UNL     1       3.546   5.214  19.955  0.00  0.00    +0.000 C 
ENDBRANCH  11  14
ENDBRANCH   1   8
BRANCH   1  22
ATOM     22  C   UNL     1       0.879  11.763  18.556  0.00  0.00    +0.000 C 
BRANCH  22  27
ATOM     23  C   UNL     1       3.760  16.778  18.312  0.00  0.00    +0.000 C 
ATOM     24  C   UNL     1       3.045  15.472  18.469  0.00  0.00    +0.000 A 
ATOM     25  C   UNL     1       3.733  14.263  18.268  0.00  0.00    +0.000 A 
ATOM     26  C   UNL     1       3.047  13.049  18.345  0.00  0.00    +0.000 A 
ATOM     27  C   UNL     1       1.671  13.035  18.620  0.00  0.00    +0.000 A 
ATOM     28  C   UNL     1       0.995  14.242  18.843  0.00  0.00    +0.000 A 
ATOM     29  C   UNL     1       1.676  15.455  18.772  0.00  0.00    +0.000 A 
ENDBRANCH  22  27
ENDBRANCH   1  22
TORSDOF 5
ENDMDL
MODEL 5
REMARK VINA RESULT:      -7.8      5.072     10.738
REMARK  Name = 
REMARK  6 active torsions:
REMARK  status: ('A' for Active; 'I' for Inactive)
REMARK    1  A    between atoms: C_1  and  C_2
REMARK    2  A    between atoms: C_5  and  C_6
REMARK    3  A    between atoms: C_6  and  C_7
REMARK    4  A    between atoms: C_7  and  C_8
REMARK    5  A    between atoms: C_7  and  N_14
REMARK    6  A    between atoms: N_17  and  C_18
REMARK                            x       y       z     vdW  Elec       q    Type
REMARK                         _______ _______ _______ _____ _____    ______ ____
ROOT
ATOM      1  C   UNL     1       0.531  10.820  19.060  0.00  0.00    +0.000 C 
ENDROOT
BRANCH   1   2
ATOM      2  C   UNL     1       1.326   9.526  18.946  0.00  0.00    +0.000 A 
ATOM      3  C   UNL     1       2.005   9.139  17.773  0.00  0.00    +0.000 A 
ATOM      4  C   UNL     1       2.681   7.914  17.718  0.00  0.00    +0.000 A 
ATOM      5  C   UNL     1       2.697   7.067  18.825  0.00  0.00    +0.000 A 
ATOM      6  C   UNL     1       2.040   7.438  19.997  0.00  0.00    +0.000 A 
ATOM      7  C   UNL     1       1.359   8.660  20.059  0.00  0.00    +0.000 A 
ENDBRANCH   1   2
BRANCH   1   8
ATOM      8  N   UNL     1      -0.841  10.523  19.538  0.00  0.00    +0.000 NA
ATOM      9  C   UNL     1      -1.458  11.384  20.575  0.00  0.00    +0.000 C 
ATOM     10  C   UNL     1      -2.303  12.545  19.981  0.00  0.00    +0.000 C 
ATOM     11  N   UNL     1      -3.286  12.033  19.013  0.00  0.00    +0.000 NA
ATOM     12  C   UNL     1      -2.682  11.199  17.945  0.00  0.00    +0.000 C 
ATOM     13  C   UNL     1      -1.784  10.071  18.493  0.00  0.00    +0.000 C 
BRANCH  11  14
ATOM     14  C   UNL     1      -4.736  12.030  19.393  0.00  0.00    +0.000 C 
ATOM     15  C   UNL     1      -5.139  13.392  19.994  0.00  0.00    +0.000 C 
ATOM     16  C   UNL     1      -6.572  13.610  20.486  0.00  0.00    +0.000 C 
ATOM     17  C   UNL     1      -7.699  13.620  19.430  0.00  0.00    +0.000 C 
ATOM     18  C   UNL     1      -7.369  14.312  18.088  0.00  0.00    +0.000 C 
ATOM     19  C   UNL     1      -7.007  13.331  16.953  0.00  0.00    +0.000 C 
ATOM     20  C   UNL     1      -5.716  12.525  17.063  0.00  0.00    +0.000 C 
ATOM     21  C   UNL     1      -5.632  11.541  18.233  0.00  0.00    +0.000 C 
ENDBRANCH  11  14
ENDBRANCH   1   8
BRANCH   1  22
ATOM     22  C   UNL     1       1.164  11.946  19.896  0.00  0.00    +0.000 C 
BRANCH  22  27
ATOM     23  C   UNL     1       2.971  16.937  17.584  0.00  0.00    +0.000 C 
ATOM     24  C   UNL     1       2.445  15.634  18.103  0.00  0.00    +0.000 A 
ATOM     25  C   UNL     1       1.244  15.599  18.832  0.00  0.00    +0.000 A 
ATOM     26  C   UNL     1       0.793  14.394  19.375  0.00  0.00    +0.000 A 
ATOM     27  C   UNL     1       1.539  13.219  19.197  0.00  0.00    +0.000 A 
ATOM     28  C   UNL     1       2.724  13.256  18.450  0.00  0.00    +0.000 A 
ATOM     29  C   UNL     1       3.175  14.454  17.901  0.00  0.00    +0.000 A 
ENDBRANCH  22  27
ENDBRANCH   1  22
TORSDOF 5
ENDMDL
MODEL 6
REMARK VINA RESULT:      -7.8      1.632      7.809
REMARK  Name = 
REMARK  6 active torsions:
REMARK  status: ('A' for Active; 'I' for Inactive)
REMARK    1  A    between atoms: C_1  and  C_2
REMARK    2  A    between atoms: C_5  and  C_6
REMARK    3  A    between atoms: C_6  and  C_7
REMARK    4  A    between atoms: C_7  and  C_8
REMARK    5  A    between atoms: C_7  and  N_14
REMARK    6  A    between atoms: N_17  and  C_18
REMARK                            x       y       z     vdW  Elec       q    Type
REMARK                         _______ _______ _______ _____ _____    ______ ____
ROOT
ATOM      1  C   UNL     1       3.826   5.026  17.798  0.00  0.00    +0.000 C 
ENDROOT
BRANCH   1   2
ATOM      2  C   UNL     1       2.904   4.134  18.620  0.00  0.00    +0.000 A 
ATOM      3  C   UNL     1       3.284   3.551  19.844  0.00  0.00    +0.000 A 
ATOM      4  C   UNL     1       2.405   2.704  20.529  0.00  0.00    +0.000 A 
ATOM      5  C   UNL     1       1.140   2.433  20.010  0.00  0.00    +0.000 A 
ATOM      6  C   UNL     1       0.742   3.009  18.805  0.00  0.00    +0.000 A 
ATOM      7  C   UNL     1       1.616   3.855  18.113  0.00  0.00    +0.000 A 
ENDBRANCH   1   2
BRANCH   1   8
ATOM      8  N   UNL     1       3.944   6.354  18.445  0.00  0.00    +0.000 NA
ATOM      9  C   UNL     1       3.865   7.582  17.618  0.00  0.00    +0.000 C 
ATOM     10  C   UNL     1       2.426   8.158  17.515  0.00  0.00    +0.000 C 
ATOM     11  N   UNL     1       1.840   8.340  18.853  0.00  0.00    +0.000 NA
ATOM     12  C   UNL     1       1.876   7.111  19.683  0.00  0.00    +0.000 C 
ATOM     13  C   UNL     1       3.277   6.471  19.759  0.00  0.00    +0.000 C 
BRANCH  11  14
ATOM     14  C   UNL     1       1.668   9.731  19.381  0.00  0.00    +0.000 C 
ATOM     15  C   UNL     1       1.880  10.766  18.256  0.00  0.00    +0.000 C 
ATOM     16  C   UNL     1       1.787  12.260  18.570  0.00  0.00    +0.000 C 
ATOM     17  C   UNL     1       0.406  12.822  18.975  0.00  0.00    +0.000 C 
ATOM     18  C   UNL     1      -0.813  12.249  18.216  0.00  0.00    +0.000 C 
ATOM     19  C   UNL     1      -1.587  11.171  19.003  0.00  0.00    +0.000 C 
ATOM     20  C   UNL     1      -0.903   9.835  19.285  0.00  0.00    +0.000 C 
ATOM     21  C   UNL     1       0.348   9.889  20.166  0.00  0.00    +0.000 C 
ENDBRANCH  11  14
ENDBRANCH   1   8
BRANCH   1  22
ATOM     22  C   UNL     1       5.218   4.458  17.467  0.00  0.00    +0.000 C 
BRANCH  22  27
ATOM     23  C   UNL     1       7.161   4.195  12.020  0.00  0.00    +0.000 C 
ATOM     24  C   UNL     1       6.628   4.355  13.410  0.00  0.00    +0.000 A 
ATOM     25  C   UNL     1       7.423   4.951  14.405  0.00  0.00    +0.000 A 
ATOM     26  C   UNL     1       6.951   5.035  15.716  0.00  0.00    +0.000 A 
ATOM     27  C   UNL     1       5.686   4.523  16.043  0.00  0.00    +0.000 A 
ATOM     28  C   UNL     1       4.889   3.951  15.043  0.00  0.00    +0.000 A 
ATOM     29  C   UNL     1       5.353   3.870  13.732  0.00  0.00    +0.000 A 
ENDBRANCH  22  27
ENDBRANCH   1  22
TORSDOF 5
ENDMDL
MODEL 7
REMARK VINA RESULT:      -7.7      3.209      6.988
REMARK  Name = 
REMARK  6 active torsions:
REMARK  status: ('A' for Active; 'I' for Inactive)
REMARK    1  A    between atoms: C_1  and  C_2
REMARK    2  A    between atoms: C_5  and  C_6
REMARK    3  A    between atoms: C_6  and  C_7
REMARK    4  A    between atoms: C_7  and  C_8
REMARK    5  A    between atoms: C_7  and  N_14
REMARK    6  A    between atoms: N_17  and  C_18
REMARK                            x       y       z     vdW  Elec       q    Type
REMARK                         _______ _______ _______ _____ _____    ______ ____
ROOT
ATOM      1  C   UNL     1       0.806  11.031  20.022  0.00  0.00    +0.000 C 
ENDROOT
BRANCH   1   2
ATOM      2  C   UNL     1      -0.429  11.746  20.558  0.00  0.00    +0.000 A 
ATOM      3  C   UNL     1      -1.545  12.060  19.760  0.00  0.00    +0.000 A 
ATOM      4  C   UNL     1      -2.630  12.759  20.303  0.00  0.00    +0.000 A 
ATOM      5  C   UNL     1      -2.620  13.145  21.643  0.00  0.00    +0.000 A 
ATOM      6  C   UNL     1      -1.528  12.833  22.451  0.00  0.00    +0.000 A 
ATOM      7  C   UNL     1      -0.439  12.136  21.914  0.00  0.00    +0.000 A 
ENDBRANCH   1   2
BRANCH   1   8
ATOM      8  N   UNL     1       0.463   9.629  19.681  0.00  0.00    +0.000 NA
ATOM      9  C   UNL     1       1.027   9.015  18.455  0.00  0.00    +0.000 C 
ATOM     10  C   UNL     1       2.354   8.250  18.711  0.00  0.00    +0.000 C 
ATOM     11  N   UNL     1       2.196   7.281  19.807  0.00  0.00    +0.000 NA
ATOM     12  C   UNL     1       1.667   7.885  21.055  0.00  0.00    +0.000 C 
ATOM     13  C   UNL     1       0.381   8.707  20.832  0.00  0.00    +0.000 C 
BRANCH  11  14
ATOM     14  C   UNL     1       2.166   5.820  19.478  0.00  0.00    +0.000 C 
ATOM     15  C   UNL     1       1.891   5.611  17.974  0.00  0.00    +0.000 C 
ATOM     16  C   UNL     1       1.783   4.191  17.412  0.00  0.00    +0.000 C 
ATOM     17  C   UNL     1       3.060   3.323  17.409  0.00  0.00    +0.000 C 
ATOM     18  C   UNL     1       4.380   4.051  17.065  0.00  0.00    +0.000 C 
ATOM     19  C   UNL     1       5.236   4.408  18.298  0.00  0.00    +0.000 C 
ATOM     20  C   UNL     1       4.707   5.446  19.284  0.00  0.00    +0.000 C 
ATOM     21  C   UNL     1       3.413   5.084  20.017  0.00  0.00    +0.000 C 
ENDBRANCH  11  14
ENDBRANCH   1   8
BRANCH   1  22
ATOM     22  C   UNL     1       1.541  11.710  18.852  0.00  0.00    +0.000 C 
BRANCH  22  27
ATOM     23  C   UNL     1       4.538  16.596  19.659  0.00  0.00    +0.000 C 
ATOM     24  C   UNL     1       3.681  15.382  19.476  0.00  0.00    +0.000 A 
ATOM     25  C   UNL     1       3.373  14.564  20.577  0.00  0.00    +0.000 A 
ATOM     26  C   UNL     1       2.633  13.395  20.391  0.00  0.00    +0.000 A 
ATOM     27  C   UNL     1       2.200  13.033  19.106  0.00  0.00    +0.000 A 
ATOM     28  C   UNL     1       2.490  13.864  18.016  0.00  0.00    +0.000 A 
ATOM     29  C   UNL     1       3.223  15.034  18.198  0.00  0.00    +0.000 A 
ENDBRANCH  22  27
ENDBRANCH   1  22
TORSDOF 5
ENDMDL
MODEL 8
REMARK VINA RESULT:      -7.7      5.189     10.039
REMARK  Name = 
REMARK  6 active torsions:
REMARK  status: ('A' for Active; 'I' for Inactive)
REMARK    1  A    between atoms: C_1  and  C_2
REMARK    2  A    between atoms: C_5  and  C_6
REMARK    3  A    between atoms: C_6  and  C_7
REMARK    4  A    between atoms: C_7  and  C_8
REMARK    5  A    between atoms: C_7  and  N_14
REMARK    6  A    between atoms: N_17  and  C_18
REMARK                            x       y       z     vdW  Elec       q    Type
REMARK                         _______ _______ _______ _____ _____    ______ ____
ROOT
ATOM      1  C   UNL     1       0.051  11.319  18.947  0.00  0.00    +0.000 C 
ENDROOT
BRANCH   1   2
ATOM      2  C   UNL     1      -1.358  11.040  18.440  0.00  0.00    +0.000 A 
ATOM      3  C   UNL     1      -1.644  10.088  17.441  0.00  0.00    +0.000 A 
ATOM      4  C   UNL     1      -2.956   9.911  16.986  0.00  0.00    +0.000 A 
ATOM      5  C   UNL     1      -3.996  10.669  17.522  0.00  0.00    +0.000 A 
ATOM      6  C   UNL     1      -3.734  11.608  18.519  0.00  0.00    +0.000 A 
ATOM      7  C   UNL     1      -2.424  11.792  18.977  0.00  0.00    +0.000 A 
ENDBRANCH   1   2
BRANCH   1   8
ATOM      8  N   UNL     1       0.117  12.690  19.508  0.00  0.00    +0.000 NA
ATOM      9  C   UNL     1       0.792  12.918  20.808  0.00  0.00    +0.000 C 
ATOM     10  C   UNL     1       2.293  13.292  20.660  0.00  0.00    +0.000 C 
ATOM     11  N   UNL     1       2.460  14.422  19.731  0.00  0.00    +0.000 NA
ATOM     12  C   UNL     1       1.823  14.197  18.410  0.00  0.00    +0.000 C 
ATOM     13  C   UNL     1       0.347  13.761  18.516  0.00  0.00    +0.000 C 
BRANCH  11  14
ATOM     14  C   UNL     1       2.844  15.759  20.285  0.00  0.00    +0.000 C 
ATOM     15  C   UNL     1       3.794  15.592  21.489  0.00  0.00    +0.000 C 
ATOM     16  C   UNL     1       4.294  16.828  22.240  0.00  0.00    +0.000 C 
ATOM     17  C   UNL     1       5.240  17.790  21.488  0.00  0.00    +0.000 C 
ATOM     18  C   UNL     1       6.292  17.130  20.568  0.00  0.00    +0.000 C 
ATOM     19  C   UNL     1       5.912  17.147  19.072  0.00  0.00    +0.000 C 
ATOM     20  C   UNL     1       4.718  16.317  18.609  0.00  0.00    +0.000 C 
ATOM     21  C   UNL     1       3.355  16.713  19.183  0.00  0.00    +0.000 C 
ENDBRANCH  11  14
ENDBRANCH   1   8
BRANCH   1  22
ATOM     22  C   UNL     1       0.641  10.299  19.937  0.00  0.00    +0.000 C 
BRANCH  22  27
ATOM     23  C   UNL     1       3.817   5.847  18.037  0.00  0.00    +0.000 C 
ATOM     24  C   UNL     1       2.917   6.958  18.484  0.00  0.00    +0.000 A 
ATOM     25  C   UNL     1       2.664   8.047  17.632  0.00  0.00    +0.000 A 
ATOM     26  C   UNL     1       1.882   9.114  18.078  0.00  0.00    +0.000 A 
ATOM     27  C   UNL     1       1.351   9.102  19.377  0.00  0.00    +0.000 A 
ATOM     28  C   UNL     1       1.588   8.004  20.214  0.00  0.00    +0.000 A 
ATOM     29  C   UNL     1       2.362   6.934  19.772  0.00  0.00    +0.000 A 
ENDBRANCH  22  27
ENDBRANCH   1  22
TORSDOF 5
ENDMDL
MODEL 9
REMARK VINA RESULT:      -7.7      5.765     12.141
REMARK  Name = 
REMARK  6 active torsions:
REMARK  status: ('A' for Active; 'I' for Inactive)
REMARK    1  A    between atoms: C_1  and  C_2
REMARK    2  A    between atoms: C_5  and  C_6
REMARK    3  A    between atoms: C_6  and  C_7
REMARK    4  A    between atoms: C_7  and  C_8
REMARK    5  A    between atoms: C_7  and  N_14
REMARK    6  A    between atoms: N_17  and  C_18
REMARK                            x       y       z     vdW  Elec       q    Type
REMARK                         _______ _______ _______ _____ _____    ______ ____
ROOT
ATOM      1  C   UNL     1      -0.831  10.878  20.248  0.00  0.00    +0.000 C 
ENDROOT
BRANCH   1   2
ATOM      2  C   UNL     1       0.237   9.916  19.744  0.00  0.00    +0.000 A 
ATOM      3  C   UNL     1       0.674   9.881  18.405  0.00  0.00    +0.000 A 
ATOM      4  C   UNL     1       1.627   8.941  17.995  0.00  0.00    +0.000 A 
ATOM      5  C   UNL     1       2.161   8.034  18.909  0.00  0.00    +0.000 A 
ATOM      6  C   UNL     1       1.749   8.060  20.240  0.00  0.00    +0.000 A 
ATOM      7  C   UNL     1       0.794   8.996  20.657  0.00  0.00    +0.000 A 
ENDBRANCH   1   2
BRANCH   1   8
ATOM      8  N   UNL     1      -0.354  11.553  21.480  0.00  0.00    +0.000 NA
ATOM      9  C   UNL     1       0.066  12.973  21.421  0.00  0.00    +0.000 C 
ATOM     10  C   UNL     1      -1.084  13.964  21.753  0.00  0.00    +0.000 C 
ATOM     11  N   UNL     1      -1.719  13.615  23.034  0.00  0.00    +0.000 NA
ATOM     12  C   UNL     1      -2.180  12.207  23.098  0.00  0.00    +0.000 C 
ATOM     13  C   UNL     1      -1.084  11.193  22.713  0.00  0.00    +0.000 C 
BRANCH  11  14
ATOM     14  C   UNL     1      -1.480  14.499  24.220  0.00  0.00    +0.000 C 
ATOM     15  C   UNL     1      -0.875  15.846  23.776  0.00  0.00    +0.000 C 
ATOM     16  C   UNL     1      -0.514  16.900  24.826  0.00  0.00    +0.000 C 
ATOM     17  C   UNL     1      -1.672  17.555  25.611  0.00  0.00    +0.000 C 
ATOM     18  C   UNL     1      -2.953  17.866  24.803  0.00  0.00    +0.000 C 
ATOM     19  C   UNL     1      -4.081  16.831  24.998  0.00  0.00    +0.000 C 
ATOM     20  C   UNL     1      -3.875  15.413  24.473  0.00  0.00    +0.000 C 
ATOM     21  C   UNL     1      -2.736  14.614  25.112  0.00  0.00    +0.000 C 
ENDBRANCH  11  14
ENDBRANCH   1   8
BRANCH   1  22
ATOM     22  C   UNL     1      -1.363  11.908  19.236  0.00  0.00    +0.000 C 
BRANCH  22  27
ATOM     23  C   UNL     1      -6.904  12.175  17.583  0.00  0.00    +0.000 C 
ATOM     24  C   UNL     1      -5.492  12.021  18.058  0.00  0.00    +0.000 A 
ATOM     25  C   UNL     1      -5.123  12.485  19.332  0.00  0.00    +0.000 A 
ATOM     26  C   UNL     1      -3.791  12.405  19.744  0.00  0.00    +0.000 A 
ATOM     27  C   UNL     1      -2.821  11.865  18.886  0.00  0.00    +0.000 A 
ATOM     28  C   UNL     1      -3.199  11.383  17.626  0.00  0.00    +0.000 A 
ATOM     29  C   UNL     1      -4.527  11.456  17.213  0.00  0.00    +0.000 A 
ENDBRANCH  22  27
ENDBRANCH   1  22
TORSDOF 5
ENDMDL
