MODEL 1
REMARK VINA RESULT:      -9.1      0.000      0.000
REMARK  Name = 
REMARK  6 active torsions:
REMARK  status: ('A' for Active; 'I' for Inactive)
REMARK    1  A    between atoms: C_1  and  C_2
REMARK    2  A    between atoms: C_2  and  C_3
REMARK    3  A    between atoms: C_8  and  O_9
REMARK    4  A    between atoms: O_9  and  S_10
REMARK    5  A    between atoms: S_10  and  N_11
REMARK    6  A    between atoms: C_20  and  C_21
REMARK                            x       y       z     vdW  Elec       q    Type
REMARK                         _______ _______ _______ _____ _____    ______ ____
ROOT
ATOM      1  C   UNL     1       0.285   9.835  21.412  0.00  0.00    +0.000 A 
ATOM      2  C   UNL     1       0.900   8.579  21.194  0.00  0.00    +0.000 A 
ATOM      3  C   UNL     1       1.524   8.214  19.994  0.00  0.00    +0.000 A 
ATOM      4  C   UNL     1       1.567   9.164  18.973  0.00  0.00    +0.000 A 
ATOM      5  C   UNL     1       0.950  10.412  19.162  0.00  0.00    +0.000 A 
ATOM      6  C   UNL     1       0.279  10.757  20.353  0.00  0.00    +0.000 A 
ATOM      7  C   UNL     1       2.206   8.877  17.636  0.00  0.00    +0.000 C 
ATOM      8  C   UNL     1       3.161   7.682  17.658  0.00  0.00    +0.000 C 
ATOM      9  C   UNL     1       2.515   6.497  18.386  0.00  0.00    +0.000 C 
ATOM     10  C   UNL     1       2.265   6.895  19.873  0.00  0.00    +0.000 C 
ATOM     11  C   UNL     1       1.652   5.718  20.679  0.00  0.00    +0.000 C 
ATOM     12  C   UNL     1       2.457   4.418  20.551  0.00  0.00    +0.000 C 
ATOM     13  C   UNL     1       2.669   4.054  19.089  0.00  0.00    +0.000 C 
ATOM     14  C   UNL     1       1.355   3.583  18.441  0.00  0.00    +0.000 C 
ATOM     15  C   UNL     1       3.699   2.978  18.808  0.00  0.00    +0.000 C 
ATOM     16  O   UNL     1       3.874   1.983  19.499  0.00  0.00    +0.000 OA
ATOM     17  C   UNL     1       4.461   3.273  17.529  0.00  0.00    +0.000 C 
ATOM     18  C   UNL     1       3.889   4.632  17.083  0.00  0.00    +0.000 C 
ATOM     19  C   UNL     1       3.384   5.234  18.390  0.00  0.00    +0.000 C 
ENDROOT
BRANCH   1  21
ATOM     20  C   UNL     1      -1.341  10.960  23.141  0.00  0.00    +0.000 C 
ATOM     21  C   UNL     1      -0.259   9.959  22.819  0.00  0.00    +0.000 C 
ENDBRANCH   1  21
BRANCH   6  22
ATOM     22  O   UNL     1      -0.362  11.972  20.482  0.00  0.00    +0.000 OA
BRANCH  22  23
ATOM     23  S   UNL     1      -1.405  12.499  19.325  0.00  0.00    +0.000 S 
ATOM     24  O   UNL     1      -0.672  13.214  18.311  0.00  0.00    +0.000 OA
ATOM     25  O   UNL     1      -2.335  11.438  18.999  0.00  0.00    +0.000 OA
BRANCH  23  26
ATOM     26  N   UNL     1      -2.356  13.638  20.101  0.00  0.00    +0.000 NA
ATOM     27  H   UNL     1      -1.818  14.381  20.534  0.00  0.00    +0.000 HD
ATOM     28  H   UNL     1      -3.048  13.175  20.685  0.00  0.00    +0.000 HD
ENDBRANCH  23  26
ENDBRANCH  22  23
ENDBRANCH   6  22
TORSDOF 4
ENDMDL
MODEL 2
REMARK VINA RESULT:      -9.1      1.056      1.379
REMARK  Name = 
REMARK  6 active torsions:
REMARK  status: ('A' for Active; 'I' for Inactive)
REMARK    1  A    between atoms: C_1  and  C_2
REMARK    2  A    between atoms: C_2  and  C_3
REMARK    3  A    between atoms: C_8  and  O_9
REMARK    4  A    between atoms: O_9  and  S_10
REMARK    5  A    between atoms: S_10  and  N_11
REMARK    6  A    between atoms: C_20  and  C_21
REMARK                            x       y       z     vdW  Elec       q    Type
REMARK                         _______ _______ _______ _____ _____    ______ ____
ROOT
ATOM      1  C   UNL     1       0.421   9.708  21.495  0.00  0.00    +0.000 A 
ATOM      2  C   UNL     1       1.015   8.449  21.238  0.00  0.00    +0.000 A 
ATOM      3  C   UNL     1       1.607   8.101  20.017  0.00  0.00    +0.000 A 
ATOM      4  C   UNL     1       1.640   9.071  19.015  0.00  0.00    +0.000 A 
ATOM      5  C   UNL     1       1.044  10.323  19.243  0.00  0.00    +0.000 A 
ATOM      6  C   UNL     1       0.404  10.651  20.456  0.00  0.00    +0.000 A 
ATOM      7  C   UNL     1       2.245   8.804  17.659  0.00  0.00    +0.000 C 
ATOM      8  C   UNL     1       3.184   7.597  17.634  0.00  0.00    +0.000 C 
ATOM      9  C   UNL     1       2.540   6.406  18.352  0.00  0.00    +0.000 C 
ATOM     10  C   UNL     1       2.328   6.775  19.852  0.00  0.00    +0.000 C 
ATOM     11  C   UNL     1       1.718   5.591  20.648  0.00  0.00    +0.000 C 
ATOM     12  C   UNL     1       2.503   4.283  20.475  0.00  0.00    +0.000 C 
ATOM     13  C   UNL     1       2.678   3.947  19.002  0.00  0.00    +0.000 C 
ATOM     14  C   UNL     1       1.343   3.506  18.374  0.00  0.00    +0.000 C 
ATOM     15  C   UNL     1       3.686   2.864  18.676  0.00  0.00    +0.000 C 
ATOM     16  O   UNL     1       3.864   1.853  19.342  0.00  0.00    +0.000 OA
ATOM     17  C   UNL     1       4.424   3.176  17.385  0.00  0.00    +0.000 C 
ATOM     18  C   UNL     1       3.860   4.551  16.981  0.00  0.00    +0.000 C 
ATOM     19  C   UNL     1       3.392   5.132  18.311  0.00  0.00    +0.000 C 
ENDROOT
BRANCH   1  21
ATOM     20  C   UNL     1      -1.281  10.675  23.247  0.00  0.00    +0.000 C 
ATOM     21  C   UNL     1      -0.090   9.810  22.916  0.00  0.00    +0.000 C 
ENDBRANCH   1  21
BRANCH   6  22
ATOM     22  O   UNL     1      -0.219  11.872  20.623  0.00  0.00    +0.000 OA
BRANCH  22  23
ATOM     23  S   UNL     1       0.661  13.237  20.878  0.00  0.00    +0.000 S 
ATOM     24  O   UNL     1       1.980  12.877  21.334  0.00  0.00    +0.000 OA
ATOM     25  O   UNL     1       0.451  14.155  19.778  0.00  0.00    +0.000 OA
BRANCH  23  26
ATOM     26  N   UNL     1      -0.089  13.989  22.172  0.00  0.00    +0.000 NA
ATOM     27  H   UNL     1      -0.256  14.977  22.019  0.00  0.00    +0.000 HD
ATOM     28  H   UNL     1       0.377  13.734  23.040  0.00  0.00    +0.000 HD
ENDBRANCH  23  26
ENDBRANCH  22  23
ENDBRANCH   6  22
TORSDOF 4
ENDMDL
MODEL 3
REMARK VINA RESULT:      -8.7      0.943      1.192
REMARK  Name = 
REMARK  6 active torsions:
REMARK  status: ('A' for Active; 'I' for Inactive)
REMARK    1  A    between atoms: C_1  and  C_2
REMARK    2  A    between atoms: C_2  and  C_3
REMARK    3  A    between atoms: C_8  and  O_9
REMARK    4  A    between atoms: O_9  and  S_10
REMARK    5  A    between atoms: S_10  and  N_11
REMARK    6  A    between atoms: C_20  and  C_21
REMARK                            x       y       z     vdW  Elec       q    Type
REMARK                         _______ _______ _______ _____ _____    ______ ____
ROOT
ATOM      1  C   UNL     1       0.128  10.107  21.108  0.00  0.00    +0.000 A 
ATOM      2  C   UNL     1       0.767   8.849  21.003  0.00  0.00    +0.000 A 
ATOM      3  C   UNL     1       1.438   8.408  19.856  0.00  0.00    +0.000 A 
ATOM      4  C   UNL     1       1.504   9.282  18.770  0.00  0.00    +0.000 A 
ATOM      5  C   UNL     1       0.864  10.531  18.846  0.00  0.00    +0.000 A 
ATOM      6  C   UNL     1       0.147  10.950  19.985  0.00  0.00    +0.000 A 
ATOM      7  C   UNL     1       2.193   8.909  17.480  0.00  0.00    +0.000 C 
ATOM      8  C   UNL     1       3.163   7.735  17.621  0.00  0.00    +0.000 C 
ATOM      9  C   UNL     1       2.508   6.595  18.411  0.00  0.00    +0.000 C 
ATOM     10  C   UNL     1       2.200   7.095  19.856  0.00  0.00    +0.000 C 
ATOM     11  C   UNL     1       1.576   5.971  20.725  0.00  0.00    +0.000 C 
ATOM     12  C   UNL     1       2.403   4.678  20.720  0.00  0.00    +0.000 C 
ATOM     13  C   UNL     1       2.671   4.212  19.296  0.00  0.00    +0.000 C 
ATOM     14  C   UNL     1       1.386   3.675  18.639  0.00  0.00    +0.000 C 
ATOM     15  C   UNL     1       3.724   3.136  19.129  0.00  0.00    +0.000 C 
ATOM     16  O   UNL     1       3.888   2.196  19.897  0.00  0.00    +0.000 OA
ATOM     17  C   UNL     1       4.526   3.349  17.858  0.00  0.00    +0.000 C 
ATOM     18  C   UNL     1       3.952   4.663  17.296  0.00  0.00    +0.000 C 
ATOM     19  C   UNL     1       3.394   5.350  18.537  0.00  0.00    +0.000 C 
ENDROOT
BRANCH   1  21
ATOM     20  C   UNL     1      -0.054   9.457  23.646  0.00  0.00    +0.000 C 
ATOM     21  C   UNL     1      -0.466  10.324  22.483  0.00  0.00    +0.000 C 
ENDBRANCH   1  21
BRANCH   6  22
ATOM     22  O   UNL     1      -0.515  12.161  20.003  0.00  0.00    +0.000 OA
BRANCH  22  23
ATOM     23  S   UNL     1      -0.160  13.329  18.903  0.00  0.00    +0.000 S 
ATOM     24  O   UNL     1      -0.743  14.577  19.327  0.00  0.00    +0.000 OA
ATOM     25  O   UNL     1       1.233  13.221  18.521  0.00  0.00    +0.000 OA
BRANCH  23  26
ATOM     26  N   UNL     1      -0.989  12.876  17.521  0.00  0.00    +0.000 NA
ATOM     27  H   UNL     1      -1.346  11.927  17.561  0.00  0.00    +0.000 HD
ATOM     28  H   UNL     1      -0.451  13.126  16.694  0.00  0.00    +0.000 HD
ENDBRANCH  23  26
ENDBRANCH  22  23
ENDBRANCH   6  22
TORSDOF 4
ENDMDL
MODEL 4
REMARK VINA RESULT:      -8.6      3.854      8.206
REMARK  Name = 
REMARK  6 active torsions:
REMARK  status: ('A' for Active; 'I' for Inactive)
REMARK    1  A    between atoms: C_1  and  C_2
REMARK    2  A    between atoms: C_2  and  C_3
REMARK    3  A    between atoms: C_8  and  O_9
REMARK    4  A    between atoms: O_9  and  S_10
REMARK    5  A    between atoms: S_10  and  N_11
REMARK    6  A    between atoms: C_20  and  C_21
REMARK                            x       y       z     vdW  Elec       q    Type
REMARK                         _______ _______ _______ _____ _____    ______ ____
ROOT
ATOM      1  C   UNL     1       3.828   5.588  17.995  0.00  0.00    +0.000 A 
ATOM      2  C   UNL     1       3.292   6.896  18.067  0.00  0.00    +0.000 A 
ATOM      3  C   UNL     1       2.433   7.332  19.085  0.00  0.00    +0.000 A 
ATOM      4  C   UNL     1       2.123   6.427  20.100  0.00  0.00    +0.000 A 
ATOM      5  C   UNL     1       2.634   5.118  20.042  0.00  0.00    +0.000 A 
ATOM      6  C   UNL     1       3.456   4.669  18.989  0.00  0.00    +0.000 A 
ATOM      7  C   UNL     1       1.203   6.785  21.241  0.00  0.00    +0.000 C 
ATOM      8  C   UNL     1       1.018   8.292  21.428  0.00  0.00    +0.000 C 
ATOM      9  C   UNL     1       0.744   8.967  20.080  0.00  0.00    +0.000 C 
ATOM     10  C   UNL     1       1.991   8.782  19.161  0.00  0.00    +0.000 C 
ATOM     11  C   UNL     1       1.795   9.484  17.791  0.00  0.00    +0.000 C 
ATOM     12  C   UNL     1       1.383  10.956  17.923  0.00  0.00    +0.000 C 
ATOM     13  C   UNL     1       0.156  11.097  18.813  0.00  0.00    +0.000 C 
ATOM     14  C   UNL     1      -1.103  10.561  18.107  0.00  0.00    +0.000 C 
ATOM     15  C   UNL     1      -0.176  12.499  19.281  0.00  0.00    +0.000 C 
ATOM     16  O   UNL     1      -0.056  13.509  18.599  0.00  0.00    +0.000 OA
ATOM     17  C   UNL     1      -0.719  12.487  20.699  0.00  0.00    +0.000 C 
ATOM     18  C   UNL     1      -0.628  11.002  21.098  0.00  0.00    +0.000 C 
ATOM     19  C   UNL     1       0.477  10.472  20.191  0.00  0.00    +0.000 C 
ENDROOT
BRANCH   1  21
ATOM     20  C   UNL     1       5.057   6.590  15.901  0.00  0.00    +0.000 C 
ATOM     21  C   UNL     1       4.762   5.427  16.815  0.00  0.00    +0.000 C 
ENDBRANCH   1  21
BRANCH   6  22
ATOM     22  O   UNL     1       3.893   3.361  18.937  0.00  0.00    +0.000 OA
BRANCH  22  23
ATOM     23  S   UNL     1       2.886   2.157  18.450  0.00  0.00    +0.000 S 
ATOM     24  O   UNL     1       2.006   1.803  19.534  0.00  0.00    +0.000 OA
ATOM     25  O   UNL     1       2.392   2.453  17.122  0.00  0.00    +0.000 OA
BRANCH  23  26
ATOM     26  N   UNL     1       3.889   0.836  18.215  0.00  0.00    +0.000 NA
ATOM     27  H   UNL     1       4.875   1.069  18.258  0.00  0.00    +0.000 HD
ATOM     28  H   UNL     1       3.580   0.304  17.405  0.00  0.00    +0.000 HD
ENDBRANCH  23  26
ENDBRANCH  22  23
ENDBRANCH   6  22
TORSDOF 4
ENDMDL
MODEL 5
REMARK VINA RESULT:      -8.0      3.907      8.290
REMARK  Name = 
REMARK  6 active torsions:
REMARK  status: ('A' for Active; 'I' for Inactive)
REMARK    1  A    between atoms: C_1  and  C_2
REMARK    2  A    between atoms: C_2  and  C_3
REMARK    3  A    between atoms: C_8  and  O_9
REMARK    4  A    between atoms: O_9  and  S_10
REMARK    5  A    between atoms: S_10  and  N_11
REMARK    6  A    between atoms: C_20  and  C_21
REMARK                            x       y       z     vdW  Elec       q    Type
REMARK                         _______ _______ _______ _____ _____    ______ ____
ROOT
ATOM      1  C   UNL     1       3.332   5.565  17.987  0.00  0.00    +0.000 A 
ATOM      2  C   UNL     1       3.017   6.939  18.113  0.00  0.00    +0.000 A 
ATOM      3  C   UNL     1       2.248   7.470  19.156  0.00  0.00    +0.000 A 
ATOM      4  C   UNL     1       1.801   6.590  20.142  0.00  0.00    +0.000 A 
ATOM      5  C   UNL     1       2.091   5.219  20.030  0.00  0.00    +0.000 A 
ATOM      6  C   UNL     1       2.822   4.682  18.951  0.00  0.00    +0.000 A 
ATOM      7  C   UNL     1       0.959   7.050  21.307  0.00  0.00    +0.000 C 
ATOM      8  C   UNL     1       1.024   8.558  21.551  0.00  0.00    +0.000 C 
ATOM      9  C   UNL     1       0.855   9.319  20.231  0.00  0.00    +0.000 C 
ATOM     10  C   UNL     1       2.049   8.969  19.291  0.00  0.00    +0.000 C 
ATOM     11  C   UNL     1       1.961   9.745  17.950  0.00  0.00    +0.000 C 
ATOM     12  C   UNL     1       1.796  11.258  18.141  0.00  0.00    +0.000 C 
ATOM     13  C   UNL     1       0.614  11.563  19.050  0.00  0.00    +0.000 C 
ATOM     14  C   UNL     1      -0.719  11.267  18.342  0.00  0.00    +0.000 C 
ATOM     15  C   UNL     1       0.519  12.982  19.573  0.00  0.00    +0.000 C 
ATOM     16  O   UNL     1       0.798  13.984  18.927  0.00  0.00    +0.000 OA
ATOM     17  C   UNL     1      -0.009  13.005  20.997  0.00  0.00    +0.000 C 
ATOM     18  C   UNL     1      -0.159  11.511  21.340  0.00  0.00    +0.000 C 
ATOM     19  C   UNL     1       0.839  10.843  20.401  0.00  0.00    +0.000 C 
ENDROOT
BRANCH   1  21
ATOM     20  C   UNL     1       5.117   6.379  16.240  0.00  0.00    +0.000 C 
ATOM     21  C   UNL     1       4.219   5.298  16.790  0.00  0.00    +0.000 C 
ENDBRANCH   1  21
BRANCH   6  22
ATOM     22  O   UNL     1       3.039   3.322  18.846  0.00  0.00    +0.000 OA
BRANCH  22  23
ATOM     23  S   UNL     1       4.177   2.579  19.770  0.00  0.00    +0.000 S 
ATOM     24  O   UNL     1       5.423   3.297  19.662  0.00  0.00    +0.000 OA
ATOM     25  O   UNL     1       3.601   2.226  21.050  0.00  0.00    +0.000 OA
BRANCH  23  26
ATOM     26  N   UNL     1       4.428   1.101  19.024  0.00  0.00    +0.000 NA
ATOM     27  H   UNL     1       3.992   1.035  18.111  0.00  0.00    +0.000 HD
ATOM     28  H   UNL     1       4.236   0.344  19.677  0.00  0.00    +0.000 HD
ENDBRANCH  23  26
ENDBRANCH  22  23
ENDBRANCH   6  22
TORSDOF 4
ENDMDL
MODEL 6
REMARK VINA RESULT:      -8.0      3.820      7.840
REMARK  Name = 
REMARK  6 active torsions:
REMARK  status: ('A' for Active; 'I' for Inactive)
REMARK    1  A    between atoms: C_1  and  C_2
REMARK    2  A    between atoms: C_2  and  C_3
REMARK    3  A    between atoms: C_8  and  O_9
REMARK    4  A    between atoms: O_9  and  S_10
REMARK    5  A    between atoms: S_10  and  N_11
REMARK    6  A    between atoms: C_20  and  C_21
REMARK                            x       y       z     vdW  Elec       q    Type
REMARK                         _______ _______ _______ _____ _____    ______ ____
ROOT
ATOM      1  C   UNL     1       2.416   5.157  20.402  0.00  0.00    +0.000 A 
ATOM      2  C   UNL     1       1.680   6.344  20.635  0.00  0.00    +0.000 A 
ATOM      3  C   UNL     1       1.672   7.440  19.763  0.00  0.00    +0.000 A 
ATOM      4  C   UNL     1       2.407   7.331  18.582  0.00  0.00    +0.000 A 
ATOM      5  C   UNL     1       3.156   6.167  18.337  0.00  0.00    +0.000 A 
ATOM      6  C   UNL     1       3.201   5.087  19.242  0.00  0.00    +0.000 A 
ATOM      7  C   UNL     1       2.477   8.452  17.574  0.00  0.00    +0.000 C 
ATOM      8  C   UNL     1       1.360   9.485  17.728  0.00  0.00    +0.000 C 
ATOM      9  C   UNL     1       1.203   9.885  19.199  0.00  0.00    +0.000 C 
ATOM     10  C   UNL     1       0.769   8.632  20.020  0.00  0.00    +0.000 C 
ATOM     11  C   UNL     1       0.548   8.981  21.516  0.00  0.00    +0.000 C 
ATOM     12  C   UNL     1      -0.400  10.170  21.722  0.00  0.00    +0.000 C 
ATOM     13  C   UNL     1       0.063  11.378  20.920  0.00  0.00    +0.000 C 
ATOM     14  C   UNL     1       1.340  11.986  21.525  0.00  0.00    +0.000 C 
ATOM     15  C   UNL     1      -0.932  12.512  20.781  0.00  0.00    +0.000 C 
ATOM     16  O   UNL     1      -1.693  12.885  21.664  0.00  0.00    +0.000 OA
ATOM     17  C   UNL     1      -0.835  13.159  19.411  0.00  0.00    +0.000 C 
ATOM     18  C   UNL     1       0.226  12.304  18.692  0.00  0.00    +0.000 C 
ATOM     19  C   UNL     1       0.146  10.972  19.429  0.00  0.00    +0.000 C 
ENDROOT
BRANCH   1  21
ATOM     20  C   UNL     1       1.420   2.864  21.208  0.00  0.00    +0.000 C 
ATOM     21  C   UNL     1       2.188   4.131  21.492  0.00  0.00    +0.000 C 
ENDBRANCH   1  21
BRANCH   6  22
ATOM     22  O   UNL     1       3.992   3.984  18.992  0.00  0.00    +0.000 OA
BRANCH  22  23
ATOM     23  S   UNL     1       3.720   3.033  17.679  0.00  0.00    +0.000 S 
ATOM     24  O   UNL     1       2.308   3.018  17.386  0.00  0.00    +0.000 OA
ATOM     25  O   UNL     1       4.713   3.318  16.666  0.00  0.00    +0.000 OA
BRANCH  23  26
ATOM     26  N   UNL     1       4.104   1.486  18.190  0.00  0.00    +0.000 NA
ATOM     27  H   UNL     1       4.906   1.457  18.811  0.00  0.00    +0.000 HD
ATOM     28  H   UNL     1       4.120   0.850  17.396  0.00  0.00    +0.000 HD
ENDBRANCH  23  26
ENDBRANCH  22  23
ENDBRANCH   6  22
TORSDOF 4
ENDMDL
MODEL 7
REMARK VINA RESULT:      -7.7      3.710      8.297
REMARK  Name = 
REMARK  6 active torsions:
REMARK  status: ('A' for Active; 'I' for Inactive)
REMARK    1  A    between atoms: C_1  and  C_2
REMARK    2  A    between atoms: C_2  and  C_3
REMARK    3  A    between atoms: C_8  and  O_9
REMARK    4  A    between atoms: O_9  and  S_10
REMARK    5  A    between atoms: S_10  and  N_11
REMARK    6  A    between atoms: C_20  and  C_21
REMARK                            x       y       z     vdW  Elec       q    Type
REMARK                         _______ _______ _______ _____ _____    ______ ____
ROOT
ATOM      1  C   UNL     1       3.289   6.846  17.962  0.00  0.00    +0.000 A 
ATOM      2  C   UNL     1       2.689   8.100  18.226  0.00  0.00    +0.000 A 
ATOM      3  C   UNL     1       1.882   8.359  19.341  0.00  0.00    +0.000 A 
ATOM      4  C   UNL     1       1.694   7.324  20.258  0.00  0.00    +0.000 A 
ATOM      5  C   UNL     1       2.269   6.066  20.009  0.00  0.00    +0.000 A 
ATOM      6  C   UNL     1       3.039   5.795  18.859  0.00  0.00    +0.000 A 
ATOM      7  C   UNL     1       0.839   7.487  21.490  0.00  0.00    +0.000 C 
ATOM      8  C   UNL     1       0.585   8.948  21.869  0.00  0.00    +0.000 C 
ATOM      9  C   UNL     1       0.180   9.757  20.633  0.00  0.00    +0.000 C 
ATOM     10  C   UNL     1       1.367   9.759  19.621  0.00  0.00    +0.000 C 
ATOM     11  C   UNL     1       1.038  10.604  18.361  0.00  0.00    +0.000 C 
ATOM     12  C   UNL     1       0.556  12.022  18.697  0.00  0.00    +0.000 C 
ATOM     13  C   UNL     1      -0.610  11.980  19.673  0.00  0.00    +0.000 C 
ATOM     14  C   UNL     1      -1.885  11.453  18.989  0.00  0.00    +0.000 C 
ATOM     15  C   UNL     1      -0.984  13.295  20.328  0.00  0.00    +0.000 C 
ATOM     16  O   UNL     1      -0.968  14.383  19.767  0.00  0.00    +0.000 OA
ATOM     17  C   UNL     1      -1.424  13.083  21.765  0.00  0.00    +0.000 C 
ATOM     18  C   UNL     1      -1.224  11.570  21.975  0.00  0.00    +0.000 C 
ATOM     19  C   UNL     1      -0.159  11.220  20.942  0.00  0.00    +0.000 C 
ENDROOT
BRANCH   1  21
ATOM     20  C   UNL     1       5.631   7.127  16.806  0.00  0.00    +0.000 C 
ATOM     21  C   UNL     1       4.145   6.882  16.714  0.00  0.00    +0.000 C 
ENDBRANCH   1  21
BRANCH   6  22
ATOM     22  O   UNL     1       3.542   4.532  18.621  0.00  0.00    +0.000 OA
BRANCH  22  23
ATOM     23  S   UNL     1       5.048   4.116  19.132  0.00  0.00    +0.000 S 
ATOM     24  O   UNL     1       5.690   5.269  19.712  0.00  0.00    +0.000 OA
ATOM     25  O   UNL     1       4.988   2.842  19.816  0.00  0.00    +0.000 OA
BRANCH  23  26
ATOM     26  N   UNL     1       5.891   3.774  17.726  0.00  0.00    +0.000 NA
ATOM     27  H   UNL     1       6.896   3.734  17.862  0.00  0.00    +0.000 HD
ATOM     28  H   UNL     1       5.557   4.363  16.967  0.00  0.00    +0.000 HD
ENDBRANCH  23  26
ENDBRANCH  22  23
ENDBRANCH   6  22
TORSDOF 4
ENDMDL
MODEL 8
REMARK VINA RESULT:      -7.7      3.534      8.135
REMARK  Name = 
REMARK  6 active torsions:
REMARK  status: ('A' for Active; 'I' for Inactive)
REMARK    1  A    between atoms: C_1  and  C_2
REMARK    2  A    between atoms: C_2  and  C_3
REMARK    3  A    between atoms: C_8  and  O_9
REMARK    4  A    between atoms: O_9  and  S_10
REMARK    5  A    between atoms: S_10  and  N_11
REMARK    6  A    between atoms: C_20  and  C_21
REMARK                            x       y       z     vdW  Elec       q    Type
REMARK                         _______ _______ _______ _____ _____    ______ ____
ROOT
ATOM      1  C   UNL     1       3.381   6.458  18.104  0.00  0.00    +0.000 A 
ATOM      2  C   UNL     1       2.814   7.743  18.278  0.00  0.00    +0.000 A 
ATOM      3  C   UNL     1       1.969   8.085  19.342  0.00  0.00    +0.000 A 
ATOM      4  C   UNL     1       1.707   7.105  20.300  0.00  0.00    +0.000 A 
ATOM      5  C   UNL     1       2.248   5.817  20.139  0.00  0.00    +0.000 A 
ATOM      6  C   UNL     1       3.056   5.463  19.040  0.00  0.00    +0.000 A 
ATOM      7  C   UNL     1       0.805   7.359  21.483  0.00  0.00    +0.000 C 
ATOM      8  C   UNL     1       0.587   8.844  21.778  0.00  0.00    +0.000 C 
ATOM      9  C   UNL     1       0.264   9.602  20.485  0.00  0.00    +0.000 C 
ATOM     10  C   UNL     1       1.492   9.514  19.528  0.00  0.00    +0.000 C 
ATOM     11  C   UNL     1       1.246  10.303  18.215  0.00  0.00    +0.000 C 
ATOM     12  C   UNL     1       0.800  11.751  18.458  0.00  0.00    +0.000 C 
ATOM     13  C   UNL     1      -0.408  11.798  19.382  0.00  0.00    +0.000 C 
ATOM     14  C   UNL     1      -1.669  11.278  18.670  0.00  0.00    +0.000 C 
ATOM     15  C   UNL     1      -0.763  13.155  19.954  0.00  0.00    +0.000 C 
ATOM     16  O   UNL     1      -0.685  14.212  19.341  0.00  0.00    +0.000 OA
ATOM     17  C   UNL     1      -1.271  13.032  21.379  0.00  0.00    +0.000 C 
ATOM     18  C   UNL     1      -1.133  11.526  21.673  0.00  0.00    +0.000 C 
ATOM     19  C   UNL     1      -0.037  11.089  20.707  0.00  0.00    +0.000 C 
ENDROOT
BRANCH   1  21
ATOM     20  C   UNL     1       5.751   6.756  17.013  0.00  0.00    +0.000 C 
ATOM     21  C   UNL     1       4.290   6.403  16.895  0.00  0.00    +0.000 C 
ENDBRANCH   1  21
BRANCH   6  22
ATOM     22  O   UNL     1       3.524   4.174  18.888  0.00  0.00    +0.000 OA
BRANCH  22  23
ATOM     23  S   UNL     1       2.574   3.006  18.229  0.00  0.00    +0.000 S 
ATOM     24  O   UNL     1       1.540   3.623  17.436  0.00  0.00    +0.000 OA
ATOM     25  O   UNL     1       3.409   1.942  17.713  0.00  0.00    +0.000 OA
BRANCH  23  26
ATOM     26  N   UNL     1       1.798   2.304  19.537  0.00  0.00    +0.000 NA
ATOM     27  H   UNL     1       1.789   1.291  19.500  0.00  0.00    +0.000 HD
ATOM     28  H   UNL     1       0.905   2.763  19.699  0.00  0.00    +0.000 HD
ENDBRANCH  23  26
ENDBRANCH  22  23
ENDBRANCH   6  22
TORSDOF 4
ENDMDL
MODEL 9
REMARK VINA RESULT:      -7.5      3.935      7.766
REMARK  Name = 
REMARK  6 active torsions:
REMARK  status: ('A' for Active; 'I' for Inactive)
REMARK    1  A    between atoms: C_1  and  C_2
REMARK    2  A    between atoms: C_2  and  C_3
REMARK    3  A    between atoms: C_8  and  O_9
REMARK    4  A    between atoms: O_9  and  S_10
REMARK    5  A    between atoms: S_10  and  N_11
REMARK    6  A    between atoms: C_20  and  C_21
REMARK                            x       y       z     vdW  Elec       q    Type
REMARK                         _______ _______ _______ _____ _____    ______ ____
ROOT
ATOM      1  C   UNL     1       3.045   5.642  19.855  0.00  0.00    +0.000 A 
ATOM      2  C   UNL     1       2.094   6.590  20.301  0.00  0.00    +0.000 A 
ATOM      3  C   UNL     1       1.766   7.756  19.597  0.00  0.00    +0.000 A 
ATOM      4  C   UNL     1       2.394   7.968  18.370  0.00  0.00    +0.000 A 
ATOM      5  C   UNL     1       3.353   7.046  17.914  0.00  0.00    +0.000 A 
ATOM      6  C   UNL     1       3.716   5.900  18.650  0.00  0.00    +0.000 A 
ATOM      7  C   UNL     1       2.124   9.193  17.530  0.00  0.00    +0.000 C 
ATOM      8  C   UNL     1       0.827   9.914  17.900  0.00  0.00    +0.000 C 
ATOM      9  C   UNL     1       0.725  10.080  19.421  0.00  0.00    +0.000 C 
ATOM     10  C   UNL     1       0.652   8.668  20.078  0.00  0.00    +0.000 C 
ATOM     11  C   UNL     1       0.500   8.767  21.620  0.00  0.00    +0.000 C 
ATOM     12  C   UNL     1      -0.661   9.671  22.053  0.00  0.00    +0.000 C 
ATOM     13  C   UNL     1      -0.549  11.044  21.405  0.00  0.00    +0.000 C 
ATOM     14  C   UNL     1       0.616  11.847  22.010  0.00  0.00    +0.000 C 
ATOM     15  C   UNL     1      -1.776  11.929  21.492  0.00  0.00    +0.000 C 
ATOM     16  O   UNL     1      -2.514  12.003  22.466  0.00  0.00    +0.000 OA
ATOM     17  C   UNL     1      -1.949  12.748  20.226  0.00  0.00    +0.000 C 
ATOM     18  C   UNL     1      -0.799  12.255  19.328  0.00  0.00    +0.000 C 
ATOM     19  C   UNL     1      -0.518  10.858  19.869  0.00  0.00    +0.000 C 
ENDROOT
BRANCH   1  21
ATOM     20  C   UNL     1       1.908   3.772  21.308  0.00  0.00    +0.000 C 
ATOM     21  C   UNL     1       3.149   4.462  20.798  0.00  0.00    +0.000 C 
ENDBRANCH   1  21
BRANCH   6  22
ATOM     22  O   UNL     1       4.702   5.047  18.196  0.00  0.00    +0.000 OA
BRANCH  22  23
ATOM     23  S   UNL     1       6.290   5.386  18.451  0.00  0.00    +0.000 S 
ATOM     24  O   UNL     1       6.655   6.557  17.693  0.00  0.00    +0.000 OA
ATOM     25  O   UNL     1       6.588   5.258  19.862  0.00  0.00    +0.000 OA
BRANCH  23  26
ATOM     26  N   UNL     1       7.113   4.106  17.752  0.00  0.00    +0.000 NA
ATOM     27  H   UNL     1       6.639   3.217  17.863  0.00  0.00    +0.000 HD
ATOM     28  H   UNL     1       8.095   4.136  18.019  0.00  0.00    +0.000 HD
ENDBRANCH  23  26
ENDBRANCH  22  23
ENDBRANCH   6  22
TORSDOF 4
ENDMDL
