MODEL 1
REMARK VINA RESULT:      -6.9      0.000      0.000
REMARK  Name = 
REMARK  9 active torsions:
REMARK  status: ('A' for Active; 'I' for Inactive)
REMARK    1  A    between atoms: C_1  and  N_2
REMARK    2  A    between atoms: N_2  and  C_3
REMARK    3  A    between atoms: C_7  and  C_8
REMARK    4  A    between atoms: C_10  and  C_11
REMARK    5  A    between atoms: N_13  and  C_14
REMARK    6  A    between atoms: C_14  and  C_15
REMARK    7  A    between atoms: C_15  and  C_16
REMARK    8  A    between atoms: N_18  and  C_19
REMARK    9  A    between atoms: C_19  and  C_20
REMARK                            x       y       z     vdW  Elec       q    Type
REMARK                         _______ _______ _______ _____ _____    ______ ____
ROOT
ATOM      1  C   UNL     1       1.730   7.918  19.839  0.00  0.00    +0.000 A 
ATOM      2  C   UNL     1       2.475   7.542  18.689  0.00  0.00    +0.000 A 
ATOM      3  C   UNL     1       2.874   6.213  18.830  0.00  0.00    +0.000 A 
ATOM      4  N   UNL     1       2.452   5.812  20.080  0.00  0.00    +0.000 N 
ATOM      5  C   UNL     1       1.666   6.794  20.633  0.00  0.00    +0.000 A 
ENDROOT
BRANCH   1  12
ATOM      6  C   UNL     1      -1.974  13.005  20.415  0.00  0.00    +0.000 C 
ATOM      7  N   UNL     1      -0.849  12.671  21.269  0.00  0.00    +0.000 N 
ATOM      8  C   UNL     1      -0.949  12.922  22.695  0.00  0.00    +0.000 C 
ATOM      9  C   UNL     1      -0.182  11.505  20.903  0.00  0.00    +0.000 A 
ATOM     10  N   UNL     1      -0.109  11.177  19.601  0.00  0.00    +0.000 NA
ATOM     11  C   UNL     1       0.532  10.029  19.270  0.00  0.00    +0.000 A 
ATOM     12  C   UNL     1       1.080   9.164  20.187  0.00  0.00    +0.000 A 
ATOM     13  C   UNL     1       0.960   9.593  21.492  0.00  0.00    +0.000 A 
ATOM     14  N   UNL     1       0.361  10.742  21.866  0.00  0.00    +0.000 NA
ENDBRANCH   1  12
BRANCH   3  15
ATOM     15  C   UNL     1       3.571   5.362  17.890  0.00  0.00    +0.000 C 
ATOM     16  O   UNL     1       3.031   4.474  17.244  0.00  0.00    +0.000 OA
ATOM     17  N   UNL     1       4.920   5.630  17.766  0.00  0.00    +0.000 N 
ATOM     18  H   UNL     1       5.313   6.379  18.316  0.00  0.00    +0.000 HD
BRANCH  17  19
ATOM     19  C   UNL     1       5.770   4.910  16.838  0.00  0.00    +0.000 C 
BRANCH  19  20
ATOM     20  C   UNL     1       7.242   4.972  17.227  0.00  0.00    +0.000 C 
BRANCH  20  21
ATOM     21  C   UNL     1       7.362   5.250  18.717  0.00  0.00    +0.000 C 
ATOM     22  N   UNL     1       7.461   5.481  19.953  0.00  0.00    +0.000 NA
ENDBRANCH  20  21
ENDBRANCH  19  20
ENDBRANCH  17  19
ENDBRANCH   3  15
BRANCH   4  23
ATOM     23  C   UNL     1       2.699   4.529  20.743  0.00  0.00    +0.000 C 
BRANCH  23  24
ATOM     24  C   UNL     1       1.531   3.582  20.745  0.00  0.00    +0.000 C 
ATOM     25  C   UNL     1       0.676   3.268  19.538  0.00  0.00    +0.000 C 
ATOM     26  C   UNL     1       1.674   2.258  20.026  0.00  0.00    +0.000 C 
ENDBRANCH  23  24
ENDBRANCH   4  23
TORSDOF 7
ENDMDL
MODEL 2
REMARK VINA RESULT:      -6.9      0.919      1.459
REMARK  Name = 
REMARK  9 active torsions:
REMARK  status: ('A' for Active; 'I' for Inactive)
REMARK    1  A    between atoms: C_1  and  N_2
REMARK    2  A    between atoms: N_2  and  C_3
REMARK    3  A    between atoms: C_7  and  C_8
REMARK    4  A    between atoms: C_10  and  C_11
REMARK    5  A    between atoms: N_13  and  C_14
REMARK    6  A    between atoms: C_14  and  C_15
REMARK    7  A    between atoms: C_15  and  C_16
REMARK    8  A    between atoms: N_18  and  C_19
REMARK    9  A    between atoms: C_19  and  C_20
REMARK                            x       y       z     vdW  Elec       q    Type
REMARK                         _______ _______ _______ _____ _____    ______ ____
ROOT
ATOM      1  C   UNL     1       1.807   8.189  19.380  0.00  0.00    +0.000 A 
ATOM      2  C   UNL     1       2.564   7.659  18.301  0.00  0.00    +0.000 A 
ATOM      3  C   UNL     1       2.891   6.335  18.593  0.00  0.00    +0.000 A 
ATOM      4  N   UNL     1       2.414   6.089  19.864  0.00  0.00    +0.000 N 
ATOM      5  C   UNL     1       1.662   7.160  20.284  0.00  0.00    +0.000 A 
ENDROOT
BRANCH   1  12
ATOM      6  C   UNL     1      -0.272  13.791  21.438  0.00  0.00    +0.000 C 
ATOM      7  N   UNL     1      -0.394  13.283  20.083  0.00  0.00    +0.000 N 
ATOM      8  C   UNL     1      -0.218  14.199  18.971  0.00  0.00    +0.000 C 
ATOM      9  C   UNL     1       0.124  12.004  19.905  0.00  0.00    +0.000 A 
ATOM     10  N   UNL     1       0.054  11.124  20.921  0.00  0.00    +0.000 NA
ATOM     11  C   UNL     1       0.579   9.890  20.729  0.00  0.00    +0.000 A 
ATOM     12  C   UNL     1       1.210   9.495  19.574  0.00  0.00    +0.000 A 
ATOM     13  C   UNL     1       1.223  10.463  18.593  0.00  0.00    +0.000 A 
ATOM     14  N   UNL     1       0.685  11.693  18.725  0.00  0.00    +0.000 NA
ENDBRANCH   1  12
BRANCH   3  15
ATOM     15  C   UNL     1       3.571   5.357  17.771  0.00  0.00    +0.000 C 
ATOM     16  O   UNL     1       3.019   4.388  17.269  0.00  0.00    +0.000 OA
ATOM     17  N   UNL     1       4.917   5.602  17.585  0.00  0.00    +0.000 N 
ATOM     18  H   UNL     1       5.320   6.421  18.016  0.00  0.00    +0.000 HD
BRANCH  17  19
ATOM     19  C   UNL     1       5.750   4.756  16.754  0.00  0.00    +0.000 C 
BRANCH  19  20
ATOM     20  C   UNL     1       7.210   4.763  17.191  0.00  0.00    +0.000 C 
BRANCH  20  21
ATOM     21  C   UNL     1       7.298   5.158  18.657  0.00  0.00    +0.000 C 
ATOM     22  N   UNL     1       7.372   5.485  19.873  0.00  0.00    +0.000 NA
ENDBRANCH  20  21
ENDBRANCH  19  20
ENDBRANCH  17  19
ENDBRANCH   3  15
BRANCH   4  23
ATOM     23  C   UNL     1       2.576   4.873  20.665  0.00  0.00    +0.000 C 
BRANCH  23  24
ATOM     24  C   UNL     1       1.362   3.988  20.725  0.00  0.00    +0.000 C 
ATOM     25  C   UNL     1       1.233   2.655  20.024  0.00  0.00    +0.000 C 
ATOM     26  C   UNL     1       1.449   2.696  21.510  0.00  0.00    +0.000 C 
ENDBRANCH  23  24
ENDBRANCH   4  23
TORSDOF 7
ENDMDL
MODEL 3
REMARK VINA RESULT:      -6.9      2.009      2.719
REMARK  Name = 
REMARK  9 active torsions:
REMARK  status: ('A' for Active; 'I' for Inactive)
REMARK    1  A    between atoms: C_1  and  N_2
REMARK    2  A    between atoms: N_2  and  C_3
REMARK    3  A    between atoms: C_7  and  C_8
REMARK    4  A    between atoms: C_10  and  C_11
REMARK    5  A    between atoms: N_13  and  C_14
REMARK    6  A    between atoms: C_14  and  C_15
REMARK    7  A    between atoms: C_15  and  C_16
REMARK    8  A    between atoms: N_18  and  C_19
REMARK    9  A    between atoms: C_19  and  C_20
REMARK                            x       y       z     vdW  Elec       q    Type
REMARK                         _______ _______ _______ _____ _____    ______ ____
ROOT
ATOM      1  C   UNL     1       2.658   6.959  19.233  0.00  0.00    +0.000 A 
ATOM      2  C   UNL     1       3.815   6.726  18.441  0.00  0.00    +0.000 A 
ATOM      3  C   UNL     1       4.199   5.394  18.594  0.00  0.00    +0.000 A 
ATOM      4  N   UNL     1       3.342   4.847  19.526  0.00  0.00    +0.000 N 
ATOM      5  C   UNL     1       2.348   5.751  19.817  0.00  0.00    +0.000 A 
ENDROOT
BRANCH   1  12
ATOM      6  C   UNL     1      -0.209  12.237  21.197  0.00  0.00    +0.000 C 
ATOM      7  N   UNL     1      -0.354  11.627  19.888  0.00  0.00    +0.000 N 
ATOM      8  C   UNL     1      -0.442  12.482  18.719  0.00  0.00    +0.000 C 
ATOM      9  C   UNL     1       0.368  10.448  19.725  0.00  0.00    +0.000 A 
ATOM     10  N   UNL     1       0.545   9.639  20.786  0.00  0.00    +0.000 NA
ATOM     11  C   UNL     1       1.266   8.506  20.606  0.00  0.00    +0.000 A 
ATOM     12  C   UNL     1       1.855   8.150  19.417  0.00  0.00    +0.000 A 
ATOM     13  C   UNL     1       1.610   9.039  18.392  0.00  0.00    +0.000 A 
ATOM     14  N   UNL     1       0.873  10.161  18.513  0.00  0.00    +0.000 NA
ENDBRANCH   1  12
BRANCH   3  15
ATOM     15  C   UNL     1       5.256   4.663  17.928  0.00  0.00    +0.000 C 
ATOM     16  O   UNL     1       6.267   4.265  18.489  0.00  0.00    +0.000 OA
ATOM     17  N   UNL     1       5.037   4.437  16.584  0.00  0.00    +0.000 N 
ATOM     18  H   UNL     1       4.182   4.781  16.172  0.00  0.00    +0.000 HD
BRANCH  17  19
ATOM     19  C   UNL     1       5.964   3.683  15.764  0.00  0.00    +0.000 C 
BRANCH  19  20
ATOM     20  C   UNL     1       5.893   4.071  14.292  0.00  0.00    +0.000 C 
BRANCH  20  21
ATOM     21  C   UNL     1       7.108   4.909  13.928  0.00  0.00    +0.000 C 
ATOM     22  N   UNL     1       8.116   5.605  13.627  0.00  0.00    +0.000 NA
ENDBRANCH  20  21
ENDBRANCH  19  20
ENDBRANCH  17  19
ENDBRANCH   3  15
BRANCH   4  23
ATOM     23  C   UNL     1       3.377   3.499  20.099  0.00  0.00    +0.000 C 
BRANCH  23  24
ATOM     24  C   UNL     1       2.596   2.466  19.336  0.00  0.00    +0.000 C 
ATOM     25  C   UNL     1       2.167   2.603  17.893  0.00  0.00    +0.000 C 
ATOM     26  C   UNL     1       3.302   1.685  18.248  0.00  0.00    +0.000 C 
ENDBRANCH  23  24
ENDBRANCH   4  23
TORSDOF 7
ENDMDL
MODEL 4
REMARK VINA RESULT:      -6.8      1.408      1.481
REMARK  Name = 
REMARK  9 active torsions:
REMARK  status: ('A' for Active; 'I' for Inactive)
REMARK    1  A    between atoms: C_1  and  N_2
REMARK    2  A    between atoms: N_2  and  C_3
REMARK    3  A    between atoms: C_7  and  C_8
REMARK    4  A    between atoms: C_10  and  C_11
REMARK    5  A    between atoms: N_13  and  C_14
REMARK    6  A    between atoms: C_14  and  C_15
REMARK    7  A    between atoms: C_15  and  C_16
REMARK    8  A    between atoms: N_18  and  C_19
REMARK    9  A    between atoms: C_19  and  C_20
REMARK                            x       y       z     vdW  Elec       q    Type
REMARK                         _______ _______ _______ _____ _____    ______ ____
ROOT
ATOM      1  C   UNL     1       2.215   6.935  20.107  0.00  0.00    +0.000 A 
ATOM      2  C   UNL     1       3.345   6.611  19.309  0.00  0.00    +0.000 A 
ATOM      3  C   UNL     1       3.577   5.239  19.401  0.00  0.00    +0.000 A 
ATOM      4  N   UNL     1       2.658   4.749  20.304  0.00  0.00    +0.000 N 
ATOM      5  C   UNL     1       1.768   5.743  20.634  0.00  0.00    +0.000 A 
ENDROOT
BRANCH   1  12
ATOM      6  C   UNL     1      -1.335  12.161  20.016  0.00  0.00    +0.000 C 
ATOM      7  N   UNL     1      -0.448  11.754  21.090  0.00  0.00    +0.000 N 
ATOM      8  C   UNL     1      -0.863  11.970  22.464  0.00  0.00    +0.000 C 
ATOM      9  C   UNL     1       0.242  10.571  20.843  0.00  0.00    +0.000 A 
ATOM     10  N   UNL     1       0.599  10.277  19.579  0.00  0.00    +0.000 NA
ATOM     11  C   UNL     1       1.256   9.112  19.360  0.00  0.00    +0.000 A 
ATOM     12  C   UNL     1       1.548   8.198  20.344  0.00  0.00    +0.000 A 
ATOM     13  C   UNL     1       1.148   8.595  21.603  0.00  0.00    +0.000 A 
ATOM     14  N   UNL     1       0.521   9.758  21.874  0.00  0.00    +0.000 NA
ENDBRANCH   1  12
BRANCH   3  15
ATOM     15  C   UNL     1       4.552   4.427  18.705  0.00  0.00    +0.000 C 
ATOM     16  O   UNL     1       5.197   3.532  19.234  0.00  0.00    +0.000 OA
ATOM     17  N   UNL     1       4.705   4.736  17.368  0.00  0.00    +0.000 N 
ATOM     18  H   UNL     1       4.143   5.479  16.979  0.00  0.00    +0.000 HD
BRANCH  17  19
ATOM     19  C   UNL     1       5.603   3.999  16.501  0.00  0.00    +0.000 C 
BRANCH  19  20
ATOM     20  C   UNL     1       7.009   4.586  16.480  0.00  0.00    +0.000 C 
BRANCH  20  21
ATOM     21  C   UNL     1       6.940   6.077  16.768  0.00  0.00    +0.000 C 
ATOM     22  N   UNL     1       6.884   7.314  17.006  0.00  0.00    +0.000 NA
ENDBRANCH  20  21
ENDBRANCH  19  20
ENDBRANCH  17  19
ENDBRANCH   3  15
BRANCH   4  23
ATOM     23  C   UNL     1       2.539   3.380  20.814  0.00  0.00    +0.000 C 
BRANCH  23  24
ATOM     24  C   UNL     1       1.527   2.525  20.104  0.00  0.00    +0.000 C 
ATOM     25  C   UNL     1       0.925   2.844  18.755  0.00  0.00    +0.000 C 
ATOM     26  C   UNL     1       1.963   1.764  18.871  0.00  0.00    +0.000 C 
ENDBRANCH  23  24
ENDBRANCH   4  23
TORSDOF 7
ENDMDL
MODEL 5
REMARK VINA RESULT:      -6.8      1.738      2.515
REMARK  Name = 
REMARK  9 active torsions:
REMARK  status: ('A' for Active; 'I' for Inactive)
REMARK    1  A    between atoms: C_1  and  N_2
REMARK    2  A    between atoms: N_2  and  C_3
REMARK    3  A    between atoms: C_7  and  C_8
REMARK    4  A    between atoms: C_10  and  C_11
REMARK    5  A    between atoms: N_13  and  C_14
REMARK    6  A    between atoms: C_14  and  C_15
REMARK    7  A    between atoms: C_15  and  C_16
REMARK    8  A    between atoms: N_18  and  C_19
REMARK    9  A    between atoms: C_19  and  C_20
REMARK                            x       y       z     vdW  Elec       q    Type
REMARK                         _______ _______ _______ _____ _____    ______ ____
ROOT
ATOM      1  C   UNL     1       2.408   7.526  18.908  0.00  0.00    +0.000 A 
ATOM      2  C   UNL     1       3.272   7.108  17.860  0.00  0.00    +0.000 A 
ATOM      3  C   UNL     1       3.649   5.786  18.093  0.00  0.00    +0.000 A 
ATOM      4  N   UNL     1       3.094   5.431  19.304  0.00  0.00    +0.000 N 
ATOM      5  C   UNL     1       2.254   6.431  19.732  0.00  0.00    +0.000 A 
ENDROOT
BRANCH   1  12
ATOM      6  C   UNL     1       0.007  12.946  21.097  0.00  0.00    +0.000 C 
ATOM      7  N   UNL     1      -0.127  12.441  19.743  0.00  0.00    +0.000 N 
ATOM      8  C   UNL     1      -0.058  13.376  18.635  0.00  0.00    +0.000 C 
ATOM      9  C   UNL     1       0.475  11.204  19.533  0.00  0.00    +0.000 A 
ATOM     10  N   UNL     1       0.505  10.314  20.541  0.00  0.00    +0.000 NA
ATOM     11  C   UNL     1       1.111   9.122  20.318  0.00  0.00    +0.000 A 
ATOM     12  C   UNL     1       1.726   8.783  19.137  0.00  0.00    +0.000 A 
ATOM     13  C   UNL     1       1.634   9.757  18.166  0.00  0.00    +0.000 A 
ATOM     14  N   UNL     1       1.014  10.943  18.330  0.00  0.00    +0.000 NA
ENDBRANCH   1  12
BRANCH   3  15
ATOM     15  C   UNL     1       4.443   4.902  17.266  0.00  0.00    +0.000 C 
ATOM     16  O   UNL     1       3.975   3.984  16.607  0.00  0.00    +0.000 OA
ATOM     17  N   UNL     1       5.796   5.175  17.270  0.00  0.00    +0.000 N 
ATOM     18  H   UNL     1       6.129   5.949  17.827  0.00  0.00    +0.000 HD
BRANCH  17  19
ATOM     19  C   UNL     1       6.740   4.423  16.467  0.00  0.00    +0.000 C 
BRANCH  19  20
ATOM     20  C   UNL     1       7.024   5.088  15.125  0.00  0.00    +0.000 C 
BRANCH  20  21
ATOM     21  C   UNL     1       6.425   4.250  14.007  0.00  0.00    +0.000 C 
ATOM     22  N   UNL     1       5.927   3.556  13.079  0.00  0.00    +0.000 NA
ENDBRANCH  20  21
ENDBRANCH  19  20
ENDBRANCH  17  19
ENDBRANCH   3  15
BRANCH   4  23
ATOM     23  C   UNL     1       3.264   4.174  20.037  0.00  0.00    +0.000 C 
BRANCH  23  24
ATOM     24  C   UNL     1       2.215   3.901  21.079  0.00  0.00    +0.000 C 
ATOM     25  C   UNL     1       0.985   3.051  20.861  0.00  0.00    +0.000 C 
ATOM     26  C   UNL     1       2.129   2.511  21.670  0.00  0.00    +0.000 C 
ENDBRANCH  23  24
ENDBRANCH   4  23
TORSDOF 7
ENDMDL
MODEL 6
REMARK VINA RESULT:      -6.8      1.735      2.149
REMARK  Name = 
REMARK  9 active torsions:
REMARK  status: ('A' for Active; 'I' for Inactive)
REMARK    1  A    between atoms: C_1  and  N_2
REMARK    2  A    between atoms: N_2  and  C_3
REMARK    3  A    between atoms: C_7  and  C_8
REMARK    4  A    between atoms: C_10  and  C_11
REMARK    5  A    between atoms: N_13  and  C_14
REMARK    6  A    between atoms: C_14  and  C_15
REMARK    7  A    between atoms: C_15  and  C_16
REMARK    8  A    between atoms: N_18  and  C_19
REMARK    9  A    between atoms: C_19  and  C_20
REMARK                            x       y       z     vdW  Elec       q    Type
REMARK                         _______ _______ _______ _____ _____    ______ ____
ROOT
ATOM      1  C   UNL     1       2.371   7.360  18.905  0.00  0.00    +0.000 A 
ATOM      2  C   UNL     1       3.111   6.817  17.821  0.00  0.00    +0.000 A 
ATOM      3  C   UNL     1       3.404   5.483  18.104  0.00  0.00    +0.000 A 
ATOM      4  N   UNL     1       2.925   5.241  19.374  0.00  0.00    +0.000 N 
ATOM      5  C   UNL     1       2.203   6.328  19.803  0.00  0.00    +0.000 A 
ENDROOT
BRANCH   1  12
ATOM      6  C   UNL     1      -0.485  12.984  18.538  0.00  0.00    +0.000 C 
ATOM      7  N   UNL     1       0.094  12.401  19.734  0.00  0.00    +0.000 N 
ATOM      8  C   UNL     1      -0.586  12.578  21.003  0.00  0.00    +0.000 C 
ATOM      9  C   UNL     1       0.690  11.159  19.532  0.00  0.00    +0.000 A 
ATOM     10  N   UNL     1       1.282  10.905  18.351  0.00  0.00    +0.000 NA
ATOM     11  C   UNL     1       1.841   9.683  18.171  0.00  0.00    +0.000 A 
ATOM     12  C   UNL     1       1.809   8.678  19.109  0.00  0.00    +0.000 A 
ATOM     13  C   UNL     1       1.187   9.040  20.285  0.00  0.00    +0.000 A 
ATOM     14  N   UNL     1       0.646  10.253  20.522  0.00  0.00    +0.000 NA
ENDBRANCH   1  12
BRANCH   3  15
ATOM     15  C   UNL     1       4.057   4.493  17.273  0.00  0.00    +0.000 C 
ATOM     16  O   UNL     1       3.529   3.449  16.915  0.00  0.00    +0.000 OA
ATOM     17  N   UNL     1       5.346   4.818  16.900  0.00  0.00    +0.000 N 
ATOM     18  H   UNL     1       5.731   5.696  17.217  0.00  0.00    +0.000 HD
BRANCH  17  19
ATOM     19  C   UNL     1       6.138   3.970  16.032  0.00  0.00    +0.000 C 
BRANCH  19  20
ATOM     20  C   UNL     1       5.912   4.271  14.555  0.00  0.00    +0.000 C 
BRANCH  20  21
ATOM     21  C   UNL     1       7.120   5.008  13.998  0.00  0.00    +0.000 C 
ATOM     22  N   UNL     1       8.121   5.620  13.536  0.00  0.00    +0.000 NA
ENDBRANCH  20  21
ENDBRANCH  19  20
ENDBRANCH  17  19
ENDBRANCH   3  15
BRANCH   4  23
ATOM     23  C   UNL     1       3.058   4.016  20.166  0.00  0.00    +0.000 C 
BRANCH  23  24
ATOM     24  C   UNL     1       1.804   3.195  20.279  0.00  0.00    +0.000 C 
ATOM     25  C   UNL     1       0.757   3.069  19.196  0.00  0.00    +0.000 C 
ATOM     26  C   UNL     1       1.695   1.926  19.462  0.00  0.00    +0.000 C 
ENDBRANCH  23  24
ENDBRANCH   4  23
TORSDOF 7
ENDMDL
MODEL 7
REMARK VINA RESULT:      -6.7      2.138      2.781
REMARK  Name = 
REMARK  9 active torsions:
REMARK  status: ('A' for Active; 'I' for Inactive)
REMARK    1  A    between atoms: C_1  and  N_2
REMARK    2  A    between atoms: N_2  and  C_3
REMARK    3  A    between atoms: C_7  and  C_8
REMARK    4  A    between atoms: C_10  and  C_11
REMARK    5  A    between atoms: N_13  and  C_14
REMARK    6  A    between atoms: C_14  and  C_15
REMARK    7  A    between atoms: C_15  and  C_16
REMARK    8  A    between atoms: N_18  and  C_19
REMARK    9  A    between atoms: C_19  and  C_20
REMARK                            x       y       z     vdW  Elec       q    Type
REMARK                         _______ _______ _______ _____ _____    ______ ____
ROOT
ATOM      1  C   UNL     1       2.618   7.276  18.777  0.00  0.00    +0.000 A 
ATOM      2  C   UNL     1       3.773   7.019  17.990  0.00  0.00    +0.000 A 
ATOM      3  C   UNL     1       4.180   5.704  18.211  0.00  0.00    +0.000 A 
ATOM      4  N   UNL     1       3.339   5.194  19.178  0.00  0.00    +0.000 N 
ATOM      5  C   UNL     1       2.333   6.095  19.428  0.00  0.00    +0.000 A 
ENDROOT
BRANCH   1  12
ATOM      6  C   UNL     1      -1.452  12.069  18.156  0.00  0.00    +0.000 C 
ATOM      7  N   UNL     1      -0.642  11.788  19.327  0.00  0.00    +0.000 N 
ATOM      8  C   UNL     1      -1.217  11.986  20.644  0.00  0.00    +0.000 C 
ATOM      9  C   UNL     1       0.195  10.684  19.189  0.00  0.00    +0.000 A 
ATOM     10  N   UNL     1       0.711  10.404  17.978  0.00  0.00    +0.000 NA
ATOM     11  C   UNL     1       1.509   9.315  17.865  0.00  0.00    +0.000 A 
ATOM     12  C   UNL     1       1.796   8.462  18.904  0.00  0.00    +0.000 A 
ATOM     13  C   UNL     1       1.227   8.839  20.102  0.00  0.00    +0.000 A 
ATOM     14  N   UNL     1       0.453   9.930  20.270  0.00  0.00    +0.000 NA
ENDBRANCH   1  12
BRANCH   3  15
ATOM     15  C   UNL     1       5.245   4.957  17.577  0.00  0.00    +0.000 C 
ATOM     16  O   UNL     1       6.330   4.741  18.098  0.00  0.00    +0.000 OA
ATOM     17  N   UNL     1       4.942   4.488  16.314  0.00  0.00    +0.000 N 
ATOM     18  H   UNL     1       4.028   4.688  15.934  0.00  0.00    +0.000 HD
BRANCH  17  19
ATOM     19  C   UNL     1       5.868   3.681  15.545  0.00  0.00    +0.000 C 
BRANCH  19  20
ATOM     20  C   UNL     1       6.437   4.428  14.344  0.00  0.00    +0.000 C 
BRANCH  20  21
ATOM     21  C   UNL     1       6.134   3.650  13.073  0.00  0.00    +0.000 C 
ATOM     22  N   UNL     1       5.884   3.005  12.019  0.00  0.00    +0.000 NA
ENDBRANCH  20  21
ENDBRANCH  19  20
ENDBRANCH  17  19
ENDBRANCH   3  15
BRANCH   4  23
ATOM     23  C   UNL     1       3.403   3.880  19.822  0.00  0.00    +0.000 C 
BRANCH  23  24
ATOM     24  C   UNL     1       2.490   3.709  21.004  0.00  0.00    +0.000 C 
ATOM     25  C   UNL     1       1.179   2.957  20.979  0.00  0.00    +0.000 C 
ATOM     26  C   UNL     1       2.378   2.339  21.639  0.00  0.00    +0.000 C 
ENDBRANCH  23  24
ENDBRANCH   4  23
TORSDOF 7
ENDMDL
MODEL 8
REMARK VINA RESULT:      -6.7      2.622      3.571
REMARK  Name = 
REMARK  9 active torsions:
REMARK  status: ('A' for Active; 'I' for Inactive)
REMARK    1  A    between atoms: C_1  and  N_2
REMARK    2  A    between atoms: N_2  and  C_3
REMARK    3  A    between atoms: C_7  and  C_8
REMARK    4  A    between atoms: C_10  and  C_11
REMARK    5  A    between atoms: N_13  and  C_14
REMARK    6  A    between atoms: C_14  and  C_15
REMARK    7  A    between atoms: C_15  and  C_16
REMARK    8  A    between atoms: N_18  and  C_19
REMARK    9  A    between atoms: C_19  and  C_20
REMARK                            x       y       z     vdW  Elec       q    Type
REMARK                         _______ _______ _______ _____ _____    ______ ____
ROOT
ATOM      1  C   UNL     1       3.112   6.873  18.492  0.00  0.00    +0.000 A 
ATOM      2  C   UNL     1       4.107   6.746  17.486  0.00  0.00    +0.000 A 
ATOM      3  C   UNL     1       4.685   5.481  17.588  0.00  0.00    +0.000 A 
ATOM      4  N   UNL     1       4.112   4.879  18.688  0.00  0.00    +0.000 N 
ATOM      5  C   UNL     1       3.087   5.666  19.156  0.00  0.00    +0.000 A 
ENDROOT
BRANCH   1  12
ATOM      6  C   UNL     1      -0.111  11.694  21.002  0.00  0.00    +0.000 C 
ATOM      7  N   UNL     1      -0.282  11.163  19.662  0.00  0.00    +0.000 N 
ATOM      8  C   UNL     1      -0.526  12.083  18.567  0.00  0.00    +0.000 C 
ATOM      9  C   UNL     1       0.537  10.076  19.371  0.00  0.00    +0.000 A 
ATOM     10  N   UNL     1       0.858   9.218  20.358  0.00  0.00    +0.000 NA
ATOM     11  C   UNL     1       1.670   8.177  20.054  0.00  0.00    +0.000 A 
ATOM     12  C   UNL     1       2.213   7.964  18.810  0.00  0.00    +0.000 A 
ATOM     13  C   UNL     1       1.819   8.890  17.869  0.00  0.00    +0.000 A 
ATOM     14  N   UNL     1       0.987   9.923  18.115  0.00  0.00    +0.000 NA
ENDBRANCH   1  12
BRANCH   3  15
ATOM     15  C   UNL     1       5.674   4.855  16.736  0.00  0.00    +0.000 C 
ATOM     16  O   UNL     1       6.753   4.441  17.135  0.00  0.00    +0.000 OA
ATOM     17  N   UNL     1       5.304   4.751  15.410  0.00  0.00    +0.000 N 
ATOM     18  H   UNL     1       4.398   5.102  15.135  0.00  0.00    +0.000 HD
BRANCH  17  19
ATOM     19  C   UNL     1       6.146   4.112  14.419  0.00  0.00    +0.000 C 
BRANCH  19  20
ATOM     20  C   UNL     1       5.399   3.806  13.126  0.00  0.00    +0.000 C 
BRANCH  20  21
ATOM     21  C   UNL     1       6.319   3.059  12.173  0.00  0.00    +0.000 C 
ATOM     22  N   UNL     1       7.082   2.439  11.383  0.00  0.00    +0.000 NA
ENDBRANCH  20  21
ENDBRANCH  19  20
ENDBRANCH  17  19
ENDBRANCH   3  15
BRANCH   4  23
ATOM     23  C   UNL     1       4.439   3.576  19.273  0.00  0.00    +0.000 C 
BRANCH  23  24
ATOM     24  C   UNL     1       3.364   2.534  19.139  0.00  0.00    +0.000 C 
ATOM     25  C   UNL     1       2.581   2.263  17.875  0.00  0.00    +0.000 C 
ATOM     26  C   UNL     1       3.652   1.303  18.308  0.00  0.00    +0.000 C 
ENDBRANCH  23  24
ENDBRANCH   4  23
TORSDOF 7
ENDMDL
MODEL 9
REMARK VINA RESULT:      -6.7      1.556      2.053
REMARK  Name = 
REMARK  9 active torsions:
REMARK  status: ('A' for Active; 'I' for Inactive)
REMARK    1  A    between atoms: C_1  and  N_2
REMARK    2  A    between atoms: N_2  and  C_3
REMARK    3  A    between atoms: C_7  and  C_8
REMARK    4  A    between atoms: C_10  and  C_11
REMARK    5  A    between atoms: N_13  and  C_14
REMARK    6  A    between atoms: C_14  and  C_15
REMARK    7  A    between atoms: C_15  and  C_16
REMARK    8  A    between atoms: N_18  and  C_19
REMARK    9  A    between atoms: C_19  and  C_20
REMARK                            x       y       z     vdW  Elec       q    Type
REMARK                         _______ _______ _______ _____ _____    ______ ____
ROOT
ATOM      1  C   UNL     1       1.865   7.344  20.278  0.00  0.00    +0.000 A 
ATOM      2  C   UNL     1       2.953   7.091  19.399  0.00  0.00    +0.000 A 
ATOM      3  C   UNL     1       3.248   5.729  19.434  0.00  0.00    +0.000 A 
ATOM      4  N   UNL     1       2.411   5.174  20.379  0.00  0.00    +0.000 N 
ATOM      5  C   UNL     1       1.504   6.119  20.796  0.00  0.00    +0.000 A 
ENDROOT
BRANCH   1  12
ATOM      6  C   UNL     1      -1.819  12.472  20.515  0.00  0.00    +0.000 C 
ATOM      7  N   UNL     1      -0.932  12.013  21.568  0.00  0.00    +0.000 N 
ATOM      8  C   UNL     1      -1.365  12.120  22.948  0.00  0.00    +0.000 C 
ATOM      9  C   UNL     1      -0.209  10.868  21.245  0.00  0.00    +0.000 A 
ATOM     10  N   UNL     1       0.168  10.673  19.968  0.00  0.00    +0.000 NA
ATOM     11  C   UNL     1       0.857   9.543  19.675  0.00  0.00    +0.000 A 
ATOM     12  C   UNL     1       1.163   8.570  20.596  0.00  0.00    +0.000 A 
ATOM     13  C   UNL     1       0.741   8.867  21.874  0.00  0.00    +0.000 A 
ATOM     14  N   UNL     1       0.082   9.991  22.220  0.00  0.00    +0.000 NA
ENDBRANCH   1  12
BRANCH   3  15
ATOM     15  C   UNL     1       4.208   4.979  18.652  0.00  0.00    +0.000 C 
ATOM     16  O   UNL     1       5.254   4.533  19.102  0.00  0.00    +0.000 OA
ATOM     17  N   UNL     1       3.850   4.793  17.331  0.00  0.00    +0.000 N 
ATOM     18  H   UNL     1       2.972   5.176  17.013  0.00  0.00    +0.000 HD
BRANCH  17  19
ATOM     19  C   UNL     1       4.665   4.028  16.409  0.00  0.00    +0.000 C 
BRANCH  19  20
ATOM     20  C   UNL     1       5.570   4.911  15.557  0.00  0.00    +0.000 C 
BRANCH  20  21
ATOM     21  C   UNL     1       5.888   4.201  14.251  0.00  0.00    +0.000 C 
ATOM     22  N   UNL     1       6.151   3.612  13.168  0.00  0.00    +0.000 NA
ENDBRANCH  20  21
ENDBRANCH  19  20
ENDBRANCH  17  19
ENDBRANCH   3  15
BRANCH   4  23
ATOM     23  C   UNL     1       2.383   3.788  20.854  0.00  0.00    +0.000 C 
BRANCH  23  24
ATOM     24  C   UNL     1       1.358   2.912  20.191  0.00  0.00    +0.000 C 
ATOM     25  C   UNL     1       0.923   3.036  18.748  0.00  0.00    +0.000 C 
ATOM     26  C   UNL     1       1.825   1.907  19.159  0.00  0.00    +0.000 C 
ENDBRANCH  23  24
ENDBRANCH   4  23
TORSDOF 7
ENDMDL
