MODEL 1
REMARK VINA RESULT:      -9.2      0.000      0.000
REMARK  Name = 
REMARK  3 active torsions:
REMARK  status: ('A' for Active; 'I' for Inactive)
REMARK    1  A    between atoms: C_2  and  C_3
REMARK    2  A    between atoms: C_11  and  C_12
REMARK    3  A    between atoms: C_17  and  C_18
REMARK                            x       y       z     vdW  Elec       q    Type
REMARK                         _______ _______ _______ _____ _____    ______ ____
ROOT
ATOM      1  O   UNL     1       8.020   4.201  16.754  0.00  0.00    +0.000 OA
ATOM      2  C   UNL     1       7.269   4.946  16.125  0.00  0.00    +0.000 C 
ATOM      3  N   UNL     1       6.630   6.020  16.702  0.00  0.00    +0.000 N 
ATOM      4  C   UNL     1       6.642   6.389  18.106  0.00  0.00    +0.000 C 
ATOM      5  C   UNL     1       5.129   6.661  17.989  0.00  0.00    +0.000 C 
ATOM      6  C   UNL     1       5.291   6.542  16.458  0.00  0.00    +0.000 C 
ENDROOT
BRANCH   2   7
ATOM      7  C   UNL     1       7.086   4.741  14.650  0.00  0.00    +0.000 A 
ATOM      8  C   UNL     1       6.198   3.767  14.208  0.00  0.00    +0.000 A 
ATOM      9  C   UNL     1       6.120   3.514  12.841  0.00  0.00    +0.000 A 
ATOM     10  C   UNL     1       6.929   4.235  11.967  0.00  0.00    +0.000 A 
ATOM     11  C   UNL     1       7.775   5.196  12.492  0.00  0.00    +0.000 A 
ATOM     12  N   UNL     1       7.872   5.469  13.810  0.00  0.00    +0.000 NA
ENDBRANCH   2   7
BRANCH   5  13
ATOM     13  C   UNL     1       4.095   5.701  18.705  0.00  0.00    +0.000 A 
ATOM     14  N   UNL     1       4.558   4.416  18.780  0.00  0.00    +0.000 NA
ATOM     15  C   UNL     1       3.757   3.490  19.338  0.00  0.00    +0.000 A 
ATOM     16  C   UNL     1       2.520   3.812  19.843  0.00  0.00    +0.000 A 
ATOM     17  N   UNL     1       2.034   5.070  19.798  0.00  0.00    +0.000 NA
ATOM     18  C   UNL     1       2.823   6.030  19.224  0.00  0.00    +0.000 A 
BRANCH  18  19
ATOM     19  C   UNL     1       2.189   7.372  19.172  0.00  0.00    +0.000 A 
ATOM     20  C   UNL     1       2.092   8.145  18.002  0.00  0.00    +0.000 A 
ATOM     21  C   UNL     1       1.423   9.374  17.978  0.00  0.00    +0.000 A 
ATOM     22  C   UNL     1       0.890   9.903  19.145  0.00  0.00    +0.000 A 
ATOM     23  C   UNL     1       1.028   9.202  20.337  0.00  0.00    +0.000 A 
ATOM     24  C   UNL     1       1.665   7.955  20.346  0.00  0.00    +0.000 A 
ENDBRANCH  18  19
ENDBRANCH   5  13
TORSDOF 3
ENDMDL
MODEL 2
REMARK VINA RESULT:      -8.3      0.659      1.023
REMARK  Name = 
REMARK  3 active torsions:
REMARK  status: ('A' for Active; 'I' for Inactive)
REMARK    1  A    between atoms: C_2  and  C_3
REMARK    2  A    between atoms: C_11  and  C_12
REMARK    3  A    between atoms: C_17  and  C_18
REMARK                            x       y       z     vdW  Elec       q    Type
REMARK                         _______ _______ _______ _____ _____    ______ ____
ROOT
ATOM      1  O   UNL     1       8.007   4.354  16.600  0.00  0.00    +0.000 OA
ATOM      2  C   UNL     1       7.180   4.941  15.902  0.00  0.00    +0.000 C 
ATOM      3  N   UNL     1       6.457   6.022  16.354  0.00  0.00    +0.000 N 
ATOM      4  C   UNL     1       6.461   6.573  17.697  0.00  0.00    +0.000 C 
ATOM      5  C   UNL     1       4.928   6.694  17.591  0.00  0.00    +0.000 C 
ATOM      6  C   UNL     1       5.072   6.387  16.084  0.00  0.00    +0.000 C 
ENDROOT
BRANCH   2   7
ATOM      7  C   UNL     1       6.989   4.528  14.473  0.00  0.00    +0.000 A 
ATOM      8  C   UNL     1       7.762   5.129  13.486  0.00  0.00    +0.000 A 
ATOM      9  C   UNL     1       7.498   4.816  12.156  0.00  0.00    +0.000 A 
ATOM     10  C   UNL     1       6.475   3.920  11.856  0.00  0.00    +0.000 A 
ATOM     11  C   UNL     1       5.764   3.358  12.902  0.00  0.00    +0.000 A 
ATOM     12  N   UNL     1       5.996   3.636  14.201  0.00  0.00    +0.000 NA
ENDBRANCH   2   7
BRANCH   5  13
ATOM     13  C   UNL     1       3.999   5.749  18.457  0.00  0.00    +0.000 A 
ATOM     14  N   UNL     1       4.461   4.463  18.484  0.00  0.00    +0.000 NA
ATOM     15  C   UNL     1       3.740   3.549  19.161  0.00  0.00    +0.000 A 
ATOM     16  C   UNL     1       2.588   3.886  19.828  0.00  0.00    +0.000 A 
ATOM     17  N   UNL     1       2.107   5.147  19.835  0.00  0.00    +0.000 NA
ATOM     18  C   UNL     1       2.813   6.094  19.143  0.00  0.00    +0.000 A 
BRANCH  18  19
ATOM     19  C   UNL     1       2.185   7.440  19.162  0.00  0.00    +0.000 A 
ATOM     20  C   UNL     1       2.116   8.284  18.041  0.00  0.00    +0.000 A 
ATOM     21  C   UNL     1       1.452   9.516  18.079  0.00  0.00    +0.000 A 
ATOM     22  C   UNL     1       0.895   9.973  19.265  0.00  0.00    +0.000 A 
ATOM     23  C   UNL     1       1.006   9.199  20.414  0.00  0.00    +0.000 A 
ATOM     24  C   UNL     1       1.638   7.951  20.359  0.00  0.00    +0.000 A 
ENDBRANCH  18  19
ENDBRANCH   5  13
TORSDOF 3
ENDMDL
MODEL 3
REMARK VINA RESULT:      -7.0      8.083     10.783
REMARK  Name = 
REMARK  3 active torsions:
REMARK  status: ('A' for Active; 'I' for Inactive)
REMARK    1  A    between atoms: C_2  and  C_3
REMARK    2  A    between atoms: C_11  and  C_12
REMARK    3  A    between atoms: C_17  and  C_18
REMARK                            x       y       z     vdW  Elec       q    Type
REMARK                         _______ _______ _______ _____ _____    ______ ____
ROOT
ATOM      1  O   UNL     1      -2.687   9.893  17.145  0.00  0.00    +0.000 OA
ATOM      2  C   UNL     1      -3.107  10.869  17.767  0.00  0.00    +0.000 C 
ATOM      3  N   UNL     1      -2.273  11.779  18.376  0.00  0.00    +0.000 N 
ATOM      4  C   UNL     1      -0.828  11.702  18.481  0.00  0.00    +0.000 C 
ATOM      5  C   UNL     1      -0.966  12.156  19.947  0.00  0.00    +0.000 C 
ATOM      6  C   UNL     1      -2.442  12.489  19.637  0.00  0.00    +0.000 C 
ENDROOT
BRANCH   2   7
ATOM      7  C   UNL     1      -4.581  11.141  17.811  0.00  0.00    +0.000 A 
ATOM      8  C   UNL     1      -5.098  12.195  17.066  0.00  0.00    +0.000 A 
ATOM      9  C   UNL     1      -6.448  12.504  17.203  0.00  0.00    +0.000 A 
ATOM     10  C   UNL     1      -7.233  11.756  18.076  0.00  0.00    +0.000 A 
ATOM     11  C   UNL     1      -6.640  10.715  18.769  0.00  0.00    +0.000 A 
ATOM     12  N   UNL     1      -5.336  10.387  18.657  0.00  0.00    +0.000 NA
ENDBRANCH   2   7
BRANCH   5  13
ATOM     13  C   UNL     1      -0.664  11.139  21.122  0.00  0.00    +0.000 A 
ATOM     14  N   UNL     1      -0.011  10.023  20.677  0.00  0.00    +0.000 NA
ATOM     15  C   UNL     1       0.275   9.061  21.574  0.00  0.00    +0.000 A 
ATOM     16  C   UNL     1      -0.050   9.191  22.902  0.00  0.00    +0.000 A 
ATOM     17  N   UNL     1      -0.683  10.282  23.382  0.00  0.00    +0.000 NA
ATOM     18  C   UNL     1      -0.998  11.270  22.489  0.00  0.00    +0.000 A 
BRANCH  18  19
ATOM     19  C   UNL     1      -1.737  12.408  23.092  0.00  0.00    +0.000 A 
ATOM     20  C   UNL     1      -1.163  13.666  23.344  0.00  0.00    +0.000 A 
ATOM     21  C   UNL     1      -1.911  14.737  23.847  0.00  0.00    +0.000 A 
ATOM     22  C   UNL     1      -3.247  14.559  24.181  0.00  0.00    +0.000 A 
ATOM     23  C   UNL     1      -3.832  13.310  24.014  0.00  0.00    +0.000 A 
ATOM     24  C   UNL     1      -3.088  12.254  23.474  0.00  0.00    +0.000 A 
ENDBRANCH  18  19
ENDBRANCH   5  13
TORSDOF 3
ENDMDL
MODEL 4
REMARK VINA RESULT:      -6.8      2.118      7.466
REMARK  Name = 
REMARK  3 active torsions:
REMARK  status: ('A' for Active; 'I' for Inactive)
REMARK    1  A    between atoms: C_2  and  C_3
REMARK    2  A    between atoms: C_11  and  C_12
REMARK    3  A    between atoms: C_17  and  C_18
REMARK                            x       y       z     vdW  Elec       q    Type
REMARK                         _______ _______ _______ _____ _____    ______ ____
ROOT
ATOM      1  O   UNL     1       1.967   5.468  20.579  0.00  0.00    +0.000 OA
ATOM      2  C   UNL     1       2.094   6.334  19.713  0.00  0.00    +0.000 C 
ATOM      3  N   UNL     1       2.483   6.047  18.424  0.00  0.00    +0.000 N 
ATOM      4  C   UNL     1       2.893   4.756  17.905  0.00  0.00    +0.000 C 
ATOM      5  C   UNL     1       4.035   5.479  17.164  0.00  0.00    +0.000 C 
ATOM      6  C   UNL     1       3.339   6.810  17.525  0.00  0.00    +0.000 C 
ENDROOT
BRANCH   2   7
ATOM      7  C   UNL     1       1.744   7.757  20.032  0.00  0.00    +0.000 A 
ATOM      8  C   UNL     1       1.451   8.104  21.346  0.00  0.00    +0.000 A 
ATOM      9  C   UNL     1       1.022   9.402  21.608  0.00  0.00    +0.000 A 
ATOM     10  C   UNL     1       0.897  10.304  20.556  0.00  0.00    +0.000 A 
ATOM     11  C   UNL     1       1.221   9.878  19.280  0.00  0.00    +0.000 A 
ATOM     12  N   UNL     1       1.645   8.630  18.992  0.00  0.00    +0.000 NA
ENDBRANCH   2   7
BRANCH   5  13
ATOM     13  C   UNL     1       5.534   5.274  17.629  0.00  0.00    +0.000 A 
ATOM     14  N   UNL     1       5.698   5.544  18.959  0.00  0.00    +0.000 NA
ATOM     15  C   UNL     1       6.937   5.440  19.474  0.00  0.00    +0.000 A 
ATOM     16  C   UNL     1       8.009   5.053  18.708  0.00  0.00    +0.000 A 
ATOM     17  N   UNL     1       7.885   4.766  17.395  0.00  0.00    +0.000 NA
ATOM     18  C   UNL     1       6.638   4.877  16.842  0.00  0.00    +0.000 A 
BRANCH  18  19
ATOM     19  C   UNL     1       6.603   4.593  15.385  0.00  0.00    +0.000 A 
ATOM     20  C   UNL     1       5.693   3.706  14.784  0.00  0.00    +0.000 A 
ATOM     21  C   UNL     1       5.643   3.519  13.397  0.00  0.00    +0.000 A 
ATOM     22  C   UNL     1       6.554   4.165  12.573  0.00  0.00    +0.000 A 
ATOM     23  C   UNL     1       7.516   4.995  13.136  0.00  0.00    +0.000 A 
ATOM     24  C   UNL     1       7.535   5.206  14.520  0.00  0.00    +0.000 A 
ENDBRANCH  18  19
ENDBRANCH   5  13
TORSDOF 3
ENDMDL
MODEL 5
REMARK VINA RESULT:      -6.8      7.985     10.715
REMARK  Name = 
REMARK  3 active torsions:
REMARK  status: ('A' for Active; 'I' for Inactive)
REMARK    1  A    between atoms: C_2  and  C_3
REMARK    2  A    between atoms: C_11  and  C_12
REMARK    3  A    between atoms: C_17  and  C_18
REMARK                            x       y       z     vdW  Elec       q    Type
REMARK                         _______ _______ _______ _____ _____    ______ ____
ROOT
ATOM      1  O   UNL     1      -2.626   9.958  17.285  0.00  0.00    +0.000 OA
ATOM      2  C   UNL     1      -3.009  10.945  17.913  0.00  0.00    +0.000 C 
ATOM      3  N   UNL     1      -2.140  11.855  18.471  0.00  0.00    +0.000 N 
ATOM      4  C   UNL     1      -0.692  11.767  18.510  0.00  0.00    +0.000 C 
ATOM      5  C   UNL     1      -0.759  12.240  19.975  0.00  0.00    +0.000 C 
ATOM      6  C   UNL     1      -2.244  12.583  19.730  0.00  0.00    +0.000 C 
ENDROOT
BRANCH   2   7
ATOM      7  C   UNL     1      -4.478  11.231  18.023  0.00  0.00    +0.000 A 
ATOM      8  C   UNL     1      -5.283  10.363  18.753  0.00  0.00    +0.000 A 
ATOM      9  C   UNL     1      -6.658  10.580  18.754  0.00  0.00    +0.000 A 
ATOM     10  C   UNL     1      -7.180  11.648  18.030  0.00  0.00    +0.000 A 
ATOM     11  C   UNL     1      -6.305  12.470  17.342  0.00  0.00    +0.000 A 
ATOM     12  N   UNL     1      -4.968  12.291  17.323  0.00  0.00    +0.000 NA
ENDBRANCH   2   7
BRANCH   5  13
ATOM     13  C   UNL     1      -0.410  11.236  21.147  0.00  0.00    +0.000 A 
ATOM     14  N   UNL     1       0.348  10.185  20.712  0.00  0.00    +0.000 NA
ATOM     15  C   UNL     1       0.685   9.238  21.607  0.00  0.00    +0.000 A 
ATOM     16  C   UNL     1       0.308   9.320  22.925  0.00  0.00    +0.000 A 
ATOM     17  N   UNL     1      -0.431  10.348  23.395  0.00  0.00    +0.000 NA
ATOM     18  C   UNL     1      -0.799  11.318  22.504  0.00  0.00    +0.000 A 
BRANCH  18  19
ATOM     19  C   UNL     1      -1.650  12.382  23.095  0.00  0.00    +0.000 A 
ATOM     20  C   UNL     1      -3.009  12.210  23.407  0.00  0.00    +0.000 A 
ATOM     21  C   UNL     1      -3.761  13.213  24.031  0.00  0.00    +0.000 A 
ATOM     22  C   UNL     1      -3.190  14.449  24.298  0.00  0.00    +0.000 A 
ATOM     23  C   UNL     1      -1.867  14.683  23.939  0.00  0.00    +0.000 A 
ATOM     24  C   UNL     1      -1.111  13.662  23.350  0.00  0.00    +0.000 A 
ENDBRANCH  18  19
ENDBRANCH   5  13
TORSDOF 3
ENDMDL
MODEL 6
REMARK VINA RESULT:      -6.6      2.959      7.172
REMARK  Name = 
REMARK  3 active torsions:
REMARK  status: ('A' for Active; 'I' for Inactive)
REMARK    1  A    between atoms: C_2  and  C_3
REMARK    2  A    between atoms: C_11  and  C_12
REMARK    3  A    between atoms: C_17  and  C_18
REMARK                            x       y       z     vdW  Elec       q    Type
REMARK                         _______ _______ _______ _____ _____    ______ ____
ROOT
ATOM      1  O   UNL     1       2.247   8.742  17.039  0.00  0.00    +0.000 OA
ATOM      2  C   UNL     1       1.849   8.650  18.201  0.00  0.00    +0.000 C 
ATOM      3  N   UNL     1       2.512   7.917  19.159  0.00  0.00    +0.000 N 
ATOM      4  C   UNL     1       3.680   7.078  18.961  0.00  0.00    +0.000 C 
ATOM      5  C   UNL     1       3.007   6.025  19.864  0.00  0.00    +0.000 C 
ATOM      6  C   UNL     1       1.971   7.106  20.242  0.00  0.00    +0.000 C 
ENDROOT
BRANCH   2   7
ATOM      7  C   UNL     1       0.638   9.421  18.633  0.00  0.00    +0.000 A 
ATOM      8  C   UNL     1      -0.428   9.557  17.750  0.00  0.00    +0.000 A 
ATOM      9  C   UNL     1      -1.497  10.366  18.123  0.00  0.00    +0.000 A 
ATOM     10  C   UNL     1      -1.466  11.011  19.356  0.00  0.00    +0.000 A 
ATOM     11  C   UNL     1      -0.371  10.811  20.178  0.00  0.00    +0.000 A 
ATOM     12  N   UNL     1       0.679  10.030  19.850  0.00  0.00    +0.000 NA
ENDBRANCH   2   7
BRANCH   5  13
ATOM     13  C   UNL     1       2.475   4.672  19.240  0.00  0.00    +0.000 A 
ATOM     14  N   UNL     1       1.270   4.302  19.770  0.00  0.00    +0.000 NA
ATOM     15  C   UNL     1       0.723   3.147  19.347  0.00  0.00    +0.000 A 
ATOM     16  C   UNL     1       1.331   2.365  18.396  0.00  0.00    +0.000 A 
ATOM     17  N   UNL     1       2.513   2.702  17.839  0.00  0.00    +0.000 NA
ATOM     18  C   UNL     1       3.098   3.865  18.261  0.00  0.00    +0.000 A 
BRANCH  18  19
ATOM     19  C   UNL     1       4.419   4.131  17.635  0.00  0.00    +0.000 A 
ATOM     20  C   UNL     1       5.610   4.289  18.363  0.00  0.00    +0.000 A 
ATOM     21  C   UNL     1       6.848   4.467  17.733  0.00  0.00    +0.000 A 
ATOM     22  C   UNL     1       6.920   4.563  16.350  0.00  0.00    +0.000 A 
ATOM     23  C   UNL     1       5.753   4.484  15.598  0.00  0.00    +0.000 A 
ATOM     24  C   UNL     1       4.524   4.267  16.233  0.00  0.00    +0.000 A 
ENDBRANCH  18  19
ENDBRANCH   5  13
TORSDOF 3
ENDMDL
MODEL 7
REMARK VINA RESULT:      -6.6      5.501     10.092
REMARK  Name = 
REMARK  3 active torsions:
REMARK  status: ('A' for Active; 'I' for Inactive)
REMARK    1  A    between atoms: C_2  and  C_3
REMARK    2  A    between atoms: C_11  and  C_12
REMARK    3  A    between atoms: C_17  and  C_18
REMARK                            x       y       z     vdW  Elec       q    Type
REMARK                         _______ _______ _______ _____ _____    ______ ____
ROOT
ATOM      1  O   UNL     1      -3.897   9.378  17.767  0.00  0.00    +0.000 OA
ATOM      2  C   UNL     1      -3.526  10.545  17.894  0.00  0.00    +0.000 C 
ATOM      3  N   UNL     1      -2.201  10.915  17.845  0.00  0.00    +0.000 N 
ATOM      4  C   UNL     1      -1.053  10.032  17.744  0.00  0.00    +0.000 C 
ATOM      5  C   UNL     1      -0.359  10.906  18.807  0.00  0.00    +0.000 C 
ATOM      6  C   UNL     1      -1.495  11.933  18.612  0.00  0.00    +0.000 C 
ENDROOT
BRANCH   2   7
ATOM      7  C   UNL     1      -4.545  11.636  18.034  0.00  0.00    +0.000 A 
ATOM      8  C   UNL     1      -4.845  12.125  19.301  0.00  0.00    +0.000 A 
ATOM      9  C   UNL     1      -5.870  13.058  19.426  0.00  0.00    +0.000 A 
ATOM     10  C   UNL     1      -6.560  13.469  18.289  0.00  0.00    +0.000 A 
ATOM     11  C   UNL     1      -6.188  12.941  17.064  0.00  0.00    +0.000 A 
ATOM     12  N   UNL     1      -5.197  12.039  16.908  0.00  0.00    +0.000 NA
ENDBRANCH   2   7
BRANCH   5  13
ATOM     13  C   UNL     1      -0.113  10.335  20.263  0.00  0.00    +0.000 A 
ATOM     14  N   UNL     1      -0.819  11.026  21.209  0.00  0.00    +0.000 NA
ATOM     15  C   UNL     1      -0.672  10.661  22.495  0.00  0.00    +0.000 A 
ATOM     16  C   UNL     1       0.139   9.614  22.862  0.00  0.00    +0.000 A 
ATOM     17  N   UNL     1       0.842   8.901  21.958  0.00  0.00    +0.000 NA
ATOM     18  C   UNL     1       0.721   9.259  20.643  0.00  0.00    +0.000 A 
BRANCH  18  19
ATOM     19  C   UNL     1       1.566   8.456  19.724  0.00  0.00    +0.000 A 
ATOM     20  C   UNL     1       1.993   8.905  18.462  0.00  0.00    +0.000 A 
ATOM     21  C   UNL     1       2.850   8.147  17.655  0.00  0.00    +0.000 A 
ATOM     22  C   UNL     1       3.250   6.880  18.057  0.00  0.00    +0.000 A 
ATOM     23  C   UNL     1       2.790   6.371  19.266  0.00  0.00    +0.000 A 
ATOM     24  C   UNL     1       1.965   7.150  20.086  0.00  0.00    +0.000 A 
ENDBRANCH  18  19
ENDBRANCH   5  13
TORSDOF 3
ENDMDL
MODEL 8
REMARK VINA RESULT:      -6.5      4.533      9.075
REMARK  Name = 
REMARK  3 active torsions:
REMARK  status: ('A' for Active; 'I' for Inactive)
REMARK    1  A    between atoms: C_2  and  C_3
REMARK    2  A    between atoms: C_11  and  C_12
REMARK    3  A    between atoms: C_17  and  C_18
REMARK                            x       y       z     vdW  Elec       q    Type
REMARK                         _______ _______ _______ _____ _____    ______ ____
ROOT
ATOM      1  O   UNL     1       1.128  11.890  21.615  0.00  0.00    +0.000 OA
ATOM      2  C   UNL     1       0.197  11.090  21.518  0.00  0.00    +0.000 C 
ATOM      3  N   UNL     1       0.342   9.745  21.776  0.00  0.00    +0.000 N 
ATOM      4  C   UNL     1       1.573   9.046  22.090  0.00  0.00    +0.000 C 
ATOM      5  C   UNL     1       1.116   7.927  21.133  0.00  0.00    +0.000 C 
ATOM      6  C   UNL     1      -0.272   8.604  21.109  0.00  0.00    +0.000 C 
ENDROOT
BRANCH   2   7
ATOM      7  C   UNL     1      -1.177  11.588  21.182  0.00  0.00    +0.000 A 
ATOM      8  C   UNL     1      -1.562  11.660  19.848  0.00  0.00    +0.000 A 
ATOM      9  C   UNL     1      -2.797  12.226  19.545  0.00  0.00    +0.000 A 
ATOM     10  C   UNL     1      -3.600  12.702  20.578  0.00  0.00    +0.000 A 
ATOM     11  C   UNL     1      -3.144  12.579  21.879  0.00  0.00    +0.000 A 
ATOM     12  N   UNL     1      -1.955  12.032  22.207  0.00  0.00    +0.000 NA
ENDBRANCH   2   7
BRANCH   5  13
ATOM     13  C   UNL     1       1.863   7.711  19.755  0.00  0.00    +0.000 A 
ATOM     14  N   UNL     1       1.937   8.867  19.027  0.00  0.00    +0.000 NA
ATOM     15  C   UNL     1       2.521   8.811  17.815  0.00  0.00    +0.000 A 
ATOM     16  C   UNL     1       3.051   7.645  17.320  0.00  0.00    +0.000 A 
ATOM     17  N   UNL     1       3.008   6.487  18.013  0.00  0.00    +0.000 NA
ATOM     18  C   UNL     1       2.408   6.512  19.243  0.00  0.00    +0.000 A 
BRANCH  18  19
ATOM     19  C   UNL     1       2.360   5.187  19.912  0.00  0.00    +0.000 A 
ATOM     20  C   UNL     1       3.474   4.342  20.050  0.00  0.00    +0.000 A 
ATOM     21  C   UNL     1       3.406   3.132  20.751  0.00  0.00    +0.000 A 
ATOM     22  C   UNL     1       2.198   2.696  21.276  0.00  0.00    +0.000 A 
ATOM     23  C   UNL     1       1.057   3.470  21.098  0.00  0.00    +0.000 A 
ATOM     24  C   UNL     1       1.141   4.698  20.430  0.00  0.00    +0.000 A 
ENDBRANCH  18  19
ENDBRANCH   5  13
TORSDOF 3
ENDMDL
MODEL 9
REMARK VINA RESULT:      -6.5      3.245      7.305
REMARK  Name = 
REMARK  3 active torsions:
REMARK  status: ('A' for Active; 'I' for Inactive)
REMARK    1  A    between atoms: C_2  and  C_3
REMARK    2  A    between atoms: C_11  and  C_12
REMARK    3  A    between atoms: C_17  and  C_18
REMARK                            x       y       z     vdW  Elec       q    Type
REMARK                         _______ _______ _______ _____ _____    ______ ____
ROOT
ATOM      1  O   UNL     1       1.408   6.015  20.409  0.00  0.00    +0.000 OA
ATOM      2  C   UNL     1       1.691   7.033  19.777  0.00  0.00    +0.000 C 
ATOM      3  N   UNL     1       2.192   6.996  18.495  0.00  0.00    +0.000 N 
ATOM      4  C   UNL     1       2.555   5.815  17.734  0.00  0.00    +0.000 C 
ATOM      5  C   UNL     1       3.821   6.567  17.278  0.00  0.00    +0.000 C 
ATOM      6  C   UNL     1       3.194   7.849  17.868  0.00  0.00    +0.000 C 
ENDROOT
BRANCH   2   7
ATOM      7  C   UNL     1       1.418   8.380  20.377  0.00  0.00    +0.000 A 
ATOM      8  C   UNL     1       1.353   8.504  21.760  0.00  0.00    +0.000 A 
ATOM      9  C   UNL     1       0.990   9.735  22.298  0.00  0.00    +0.000 A 
ATOM     10  C   UNL     1       0.706  10.795  21.443  0.00  0.00    +0.000 A 
ATOM     11  C   UNL     1       0.808  10.588  20.078  0.00  0.00    +0.000 A 
ATOM     12  N   UNL     1       1.160   9.409  19.524  0.00  0.00    +0.000 NA
ENDBRANCH   2   7
BRANCH   5  13
ATOM     13  C   UNL     1       5.242   6.120  17.812  0.00  0.00    +0.000 A 
ATOM     14  N   UNL     1       6.203   7.057  17.556  0.00  0.00    +0.000 NA
ATOM     15  C   UNL     1       7.466   6.783  17.930  0.00  0.00    +0.000 A 
ATOM     16  C   UNL     1       7.793   5.614  18.572  0.00  0.00    +0.000 A 
ATOM     17  N   UNL     1       6.871   4.670  18.855  0.00  0.00    +0.000 NA
ATOM     18  C   UNL     1       5.580   4.917  18.473  0.00  0.00    +0.000 A 
BRANCH  18  19
ATOM     19  C   UNL     1       4.644   3.805  18.776  0.00  0.00    +0.000 A 
ATOM     20  C   UNL     1       4.073   3.589  20.042  0.00  0.00    +0.000 A 
ATOM     21  C   UNL     1       3.138   2.573  20.271  0.00  0.00    +0.000 A 
ATOM     22  C   UNL     1       2.797   1.694  19.252  0.00  0.00    +0.000 A 
ATOM     23  C   UNL     1       3.394   1.831  18.005  0.00  0.00    +0.000 A 
ATOM     24  C   UNL     1       4.299   2.873  17.773  0.00  0.00    +0.000 A 
ENDBRANCH  18  19
ENDBRANCH   5  13
TORSDOF 3
ENDMDL
