MODEL 1
REMARK VINA RESULT:      -8.2      0.000      0.000
REMARK  Name = 
REMARK  8 active torsions:
REMARK  status: ('A' for Active; 'I' for Inactive)
REMARK    1  A    between atoms: C_1  and  O_2
REMARK    2  A    between atoms: O_2  and  C_3
REMARK    3  A    between atoms: C_6  and  C_7
REMARK    4  A    between atoms: C_7  and  N_8
REMARK    5  A    between atoms: C_13  and  O_14
REMARK    6  A    between atoms: O_14  and  C_15
REMARK    7  A    between atoms: C_16  and  O_17
REMARK    8  A    between atoms: O_17  and  C_18
REMARK                            x       y       z     vdW  Elec       q    Type
REMARK                         _______ _______ _______ _____ _____    ______ ____
ROOT
ATOM      1  N   UNL     1       0.515   9.427  18.007  0.00  0.00    +0.000 N 
ATOM      2  C   UNL     1       0.953   9.971  19.190  0.00  0.00    +0.000 C 
ATOM      3  C   UNL     1       0.177   9.972  20.256  0.00  0.00    +0.000 C 
ATOM      4  C   UNL     1      -0.909  10.930  20.198  0.00  0.00    +0.000 A 
ATOM      5  C   UNL     1      -1.218  11.617  21.350  0.00  0.00    +0.000 A 
ATOM      6  C   UNL     1      -2.305  12.486  21.411  0.00  0.00    +0.000 A 
ATOM      7  C   UNL     1      -3.079  12.667  20.230  0.00  0.00    +0.000 A 
ATOM      8  C   UNL     1      -2.711  11.927  19.084  0.00  0.00    +0.000 A 
ATOM      9  N   UNL     1      -3.645  11.869  18.028  0.00  0.00    +0.000 NA
ATOM     10  C   UNL     1      -3.632  10.668  17.289  0.00  0.00    +0.000 A 
ATOM     11  C   UNL     1      -2.437  10.408  16.632  0.00  0.00    +0.000 A 
ATOM     12  C   UNL     1      -1.184  10.097  17.736  0.00  0.00    +0.000 A 
ATOM     13  C   UNL     1      -1.572  10.983  18.967  0.00  0.00    +0.000 A 
ENDROOT
BRANCH   6  14
ATOM     14  O   UNL     1      -2.630  13.081  22.605  0.00  0.00    +0.000 OA
ATOM     15  C   UNL     1      -3.302  12.508  23.669  0.00  0.00    +0.000 C 
ENDBRANCH   6  14
BRANCH   7  16
ATOM     16  O   UNL     1      -4.137  13.600  20.258  0.00  0.00    +0.000 OA
ATOM     17  C   UNL     1      -5.467  13.332  20.672  0.00  0.00    +0.000 C 
ENDBRANCH   7  16
BRANCH   1  18
ATOM     18  C   UNL     1       2.029   8.551  17.796  0.00  0.00    +0.000 C 
BRANCH  18  22
ATOM     19  C   UNL     1       4.452   4.399  19.028  0.00  0.00    +0.000 A 
ATOM     20  C   UNL     1       3.109   4.629  19.329  0.00  0.00    +0.000 A 
ATOM     21  C   UNL     1       2.396   5.808  18.825  0.00  0.00    +0.000 A 
ATOM     22  C   UNL     1       2.979   6.977  18.078  0.00  0.00    +0.000 A 
ATOM     23  C   UNL     1       4.349   6.568  17.732  0.00  0.00    +0.000 A 
ATOM     24  C   UNL     1       5.045   5.356  18.193  0.00  0.00    +0.000 A 
BRANCH  19  26
ATOM     25  C   UNL     1       4.621   2.165  20.076  0.00  0.00    +0.000 C 
ATOM     26  O   UNL     1       5.164   3.297  19.474  0.00  0.00    +0.000 OA
ENDBRANCH  19  26
ENDBRANCH  18  22
ENDBRANCH   1  18
TORSDOF 5
ENDMDL
MODEL 2
REMARK VINA RESULT:      -8.0      2.089      9.441
REMARK  Name = 
REMARK  8 active torsions:
REMARK  status: ('A' for Active; 'I' for Inactive)
REMARK    1  A    between atoms: C_1  and  O_2
REMARK    2  A    between atoms: O_2  and  C_3
REMARK    3  A    between atoms: C_6  and  C_7
REMARK    4  A    between atoms: C_7  and  N_8
REMARK    5  A    between atoms: C_13  and  O_14
REMARK    6  A    between atoms: O_14  and  C_15
REMARK    7  A    between atoms: C_16  and  O_17
REMARK    8  A    between atoms: O_17  and  C_18
REMARK                            x       y       z     vdW  Elec       q    Type
REMARK                         _______ _______ _______ _____ _____    ______ ____
ROOT
ATOM      1  N   UNL     1       2.403   8.671  18.081  0.00  0.00    +0.000 N 
ATOM      2  C   UNL     1       1.568   8.108  19.016  0.00  0.00    +0.000 C 
ATOM      3  C   UNL     1       2.062   7.450  20.047  0.00  0.00    +0.000 C 
ATOM      4  C   UNL     1       2.601   6.147  19.716  0.00  0.00    +0.000 A 
ATOM      5  C   UNL     1       2.365   5.115  20.597  0.00  0.00    +0.000 A 
ATOM      6  C   UNL     1       2.923   3.852  20.407  0.00  0.00    +0.000 A 
ATOM      7  C   UNL     1       3.730   3.649  19.252  0.00  0.00    +0.000 A 
ATOM      8  C   UNL     1       3.936   4.751  18.392  0.00  0.00    +0.000 A 
ATOM      9  N   UNL     1       4.968   4.638  17.437  0.00  0.00    +0.000 NA
ATOM     10  C   UNL     1       5.620   5.847  17.119  0.00  0.00    +0.000 A 
ATOM     11  C   UNL     1       4.801   6.811  16.547  0.00  0.00    +0.000 A 
ATOM     12  C   UNL     1       3.645   7.373  17.657  0.00  0.00    +0.000 A 
ATOM     13  C   UNL     1       3.376   6.116  18.551  0.00  0.00    +0.000 A 
ENDROOT
BRANCH   6  14
ATOM     14  O   UNL     1       2.735   2.879  21.357  0.00  0.00    +0.000 OA
ATOM     15  C   UNL     1       1.529   2.408  21.843  0.00  0.00    +0.000 C 
ENDBRANCH   6  14
BRANCH   7  16
ATOM     16  O   UNL     1       4.240   2.355  19.009  0.00  0.00    +0.000 OA
ATOM     17  C   UNL     1       3.551   1.305  18.349  0.00  0.00    +0.000 C 
ENDBRANCH   7  16
BRANCH   1  18
ATOM     18  C   UNL     1       1.498  10.183  18.119  0.00  0.00    +0.000 C 
BRANCH  18  22
ATOM     19  C   UNL     1      -2.693  12.362  19.641  0.00  0.00    +0.000 A 
ATOM     20  C   UNL     1      -1.426  12.708  20.111  0.00  0.00    +0.000 A 
ATOM     21  C   UNL     1      -0.204  12.137  19.533  0.00  0.00    +0.000 A 
ATOM     22  C   UNL     1      -0.107  11.037  18.511  0.00  0.00    +0.000 A 
ATOM     23  C   UNL     1      -1.481  10.842  18.024  0.00  0.00    +0.000 A 
ATOM     24  C   UNL     1      -2.701  11.460  18.568  0.00  0.00    +0.000 A 
BRANCH  19  26
ATOM     25  C   UNL     1      -5.146  12.679  19.620  0.00  0.00    +0.000 C 
ATOM     26  O   UNL     1      -3.873  12.881  20.149  0.00  0.00    +0.000 OA
ENDBRANCH  19  26
ENDBRANCH  18  22
ENDBRANCH   1  18
TORSDOF 5
ENDMDL
MODEL 3
REMARK VINA RESULT:      -7.9      3.624      9.584
REMARK  Name = 
REMARK  8 active torsions:
REMARK  status: ('A' for Active; 'I' for Inactive)
REMARK    1  A    between atoms: C_1  and  O_2
REMARK    2  A    between atoms: O_2  and  C_3
REMARK    3  A    between atoms: C_6  and  C_7
REMARK    4  A    between atoms: C_7  and  N_8
REMARK    5  A    between atoms: C_13  and  O_14
REMARK    6  A    between atoms: O_14  and  C_15
REMARK    7  A    between atoms: C_16  and  O_17
REMARK    8  A    between atoms: O_17  and  C_18
REMARK                            x       y       z     vdW  Elec       q    Type
REMARK                         _______ _______ _______ _____ _____    ______ ____
ROOT
ATOM      1  N   UNL     1       2.641   8.675  17.898  0.00  0.00    +0.000 N 
ATOM      2  C   UNL     1       1.734   8.164  18.796  0.00  0.00    +0.000 C 
ATOM      3  C   UNL     1       2.145   7.517  19.870  0.00  0.00    +0.000 C 
ATOM      4  C   UNL     1       2.656   6.188  19.602  0.00  0.00    +0.000 A 
ATOM      5  C   UNL     1       2.333   5.188  20.491  0.00  0.00    +0.000 A 
ATOM      6  C   UNL     1       2.856   3.903  20.365  0.00  0.00    +0.000 A 
ATOM      7  C   UNL     1       3.721   3.642  19.264  0.00  0.00    +0.000 A 
ATOM      8  C   UNL     1       4.014   4.714  18.392  0.00  0.00    +0.000 A 
ATOM      9  N   UNL     1       5.095   4.542  17.501  0.00  0.00    +0.000 NA
ATOM     10  C   UNL     1       5.806   5.720  17.194  0.00  0.00    +0.000 A 
ATOM     11  C   UNL     1       5.056   6.696  16.553  0.00  0.00    +0.000 A 
ATOM     12  C   UNL     1       3.859   7.325  17.579  0.00  0.00    +0.000 A 
ATOM     13  C   UNL     1       3.494   6.101  18.486  0.00  0.00    +0.000 A 
ENDROOT
BRANCH   6  14
ATOM     14  O   UNL     1       2.579   2.961  21.325  0.00  0.00    +0.000 OA
ATOM     15  C   UNL     1       1.334   2.602  21.808  0.00  0.00    +0.000 C 
ENDBRANCH   6  14
BRANCH   7  16
ATOM     16  O   UNL     1       4.197   2.327  19.083  0.00  0.00    +0.000 OA
ATOM     17  C   UNL     1       3.557   1.312  18.326  0.00  0.00    +0.000 C 
ENDBRANCH   7  16
BRANCH   1  18
ATOM     18  C   UNL     1       1.789  10.217  17.848  0.00  0.00    +0.000 C 
BRANCH  18  22
ATOM     19  C   UNL     1       1.307  15.039  18.918  0.00  0.00    +0.000 A 
ATOM     20  C   UNL     1       0.315  14.089  19.164  0.00  0.00    +0.000 A 
ATOM     21  C   UNL     1       0.552  12.655  18.962  0.00  0.00    +0.000 A 
ATOM     22  C   UNL     1       1.764  12.008  18.348  0.00  0.00    +0.000 A 
ATOM     23  C   UNL     1       2.761  13.084  18.239  0.00  0.00    +0.000 A 
ATOM     24  C   UNL     1       2.537  14.516  18.497  0.00  0.00    +0.000 A 
BRANCH  19  26
ATOM     25  C   UNL     1      -0.033  17.116  18.841  0.00  0.00    +0.000 C 
ATOM     26  O   UNL     1       1.133  16.401  19.102  0.00  0.00    +0.000 OA
ENDBRANCH  19  26
ENDBRANCH  18  22
ENDBRANCH   1  18
TORSDOF 5
ENDMDL
MODEL 4
REMARK VINA RESULT:      -7.9      2.310     10.019
REMARK  Name = 
REMARK  8 active torsions:
REMARK  status: ('A' for Active; 'I' for Inactive)
REMARK    1  A    between atoms: C_1  and  O_2
REMARK    2  A    between atoms: O_2  and  C_3
REMARK    3  A    between atoms: C_6  and  C_7
REMARK    4  A    between atoms: C_7  and  N_8
REMARK    5  A    between atoms: C_13  and  O_14
REMARK    6  A    between atoms: O_14  and  C_15
REMARK    7  A    between atoms: C_16  and  O_17
REMARK    8  A    between atoms: O_17  and  C_18
REMARK                            x       y       z     vdW  Elec       q    Type
REMARK                         _______ _______ _______ _____ _____    ______ ____
ROOT
ATOM      1  N   UNL     1       1.430   8.179  19.483  0.00  0.00    +0.000 N 
ATOM      2  C   UNL     1       2.199   8.793  18.524  0.00  0.00    +0.000 C 
ATOM      3  C   UNL     1       2.564   8.140  17.438  0.00  0.00    +0.000 C 
ATOM      4  C   UNL     1       3.599   7.150  17.661  0.00  0.00    +0.000 A 
ATOM      5  C   UNL     1       4.588   7.034  16.711  0.00  0.00    +0.000 A 
ATOM      6  C   UNL     1       5.568   6.048  16.795  0.00  0.00    +0.000 A 
ATOM      7  C   UNL     1       5.535   5.171  17.917  0.00  0.00    +0.000 A 
ATOM      8  C   UNL     1       4.490   5.342  18.852  0.00  0.00    +0.000 A 
ATOM      9  N   UNL     1       4.278   4.298  19.778  0.00  0.00    +0.000 NA
ATOM     10  C   UNL     1       2.936   4.117  20.172  0.00  0.00    +0.000 A 
ATOM     11  C   UNL     1       2.377   5.204  20.829  0.00  0.00    +0.000 A 
ATOM     12  C   UNL     1       2.207   6.533  19.786  0.00  0.00    +0.000 A 
ATOM     13  C   UNL     1       3.417   6.366  18.806  0.00  0.00    +0.000 A 
ENDROOT
BRANCH   6  14
ATOM     14  O   UNL     1       6.481   5.912  15.779  0.00  0.00    +0.000 OA
ATOM     15  C   UNL     1       6.408   5.051  14.699  0.00  0.00    +0.000 C 
ENDBRANCH   6  14
BRANCH   7  16
ATOM     16  O   UNL     1       6.565   4.217  18.053  0.00  0.00    +0.000 OA
ATOM     17  C   UNL     1       7.953   4.501  18.122  0.00  0.00    +0.000 C 
ENDBRANCH   7  16
BRANCH   1  18
ATOM     18  C   UNL     1       0.354   9.572  19.575  0.00  0.00    +0.000 C 
BRANCH  18  22
ATOM     19  C   UNL     1      -3.986  11.713  18.471  0.00  0.00    +0.000 A 
ATOM     20  C   UNL     1      -3.100  12.209  19.428  0.00  0.00    +0.000 A 
ATOM     21  C   UNL     1      -1.767  11.626  19.623  0.00  0.00    +0.000 A 
ATOM     22  C   UNL     1      -1.215  10.380  18.984  0.00  0.00    +0.000 A 
ATOM     23  C   UNL     1      -2.181  10.024  17.935  0.00  0.00    +0.000 A 
ATOM     24  C   UNL     1      -3.494  10.647  17.704  0.00  0.00    +0.000 A 
BRANCH  19  26
ATOM     25  C   UNL     1      -6.404  11.497  17.998  0.00  0.00    +0.000 C 
ATOM     26  O   UNL     1      -5.249  12.236  18.244  0.00  0.00    +0.000 OA
ENDBRANCH  19  26
ENDBRANCH  18  22
ENDBRANCH   1  18
TORSDOF 5
ENDMDL
MODEL 5
REMARK VINA RESULT:      -7.9      3.072      9.890
REMARK  Name = 
REMARK  8 active torsions:
REMARK  status: ('A' for Active; 'I' for Inactive)
REMARK    1  A    between atoms: C_1  and  O_2
REMARK    2  A    between atoms: O_2  and  C_3
REMARK    3  A    between atoms: C_6  and  C_7
REMARK    4  A    between atoms: C_7  and  N_8
REMARK    5  A    between atoms: C_13  and  O_14
REMARK    6  A    between atoms: O_14  and  C_15
REMARK    7  A    between atoms: C_16  and  O_17
REMARK    8  A    between atoms: O_17  and  C_18
REMARK                            x       y       z     vdW  Elec       q    Type
REMARK                         _______ _______ _______ _____ _____    ______ ____
ROOT
ATOM      1  N   UNL     1       1.154   7.327  20.922  0.00  0.00    +0.000 N 
ATOM      2  C   UNL     1       1.738   8.240  20.076  0.00  0.00    +0.000 C 
ATOM      3  C   UNL     1       1.933   7.948  18.805  0.00  0.00    +0.000 C 
ATOM      4  C   UNL     1       3.014   7.012  18.570  0.00  0.00    +0.000 A 
ATOM      5  C   UNL     1       3.833   7.240  17.488  0.00  0.00    +0.000 A 
ATOM      6  C   UNL     1       4.838   6.342  17.132  0.00  0.00    +0.000 A 
ATOM      7  C   UNL     1       5.013   5.185  17.943  0.00  0.00    +0.000 A 
ATOM      8  C   UNL     1       4.136   5.010  19.035  0.00  0.00    +0.000 A 
ATOM      9  N   UNL     1       4.107   3.735  19.640  0.00  0.00    +0.000 NA
ATOM     10  C   UNL     1       2.854   3.354  20.165  0.00  0.00    +0.000 A 
ATOM     11  C   UNL     1       2.385   4.169  21.186  0.00  0.00    +0.000 A 
ATOM     12  C   UNL     1       2.012   5.723  20.612  0.00  0.00    +0.000 A 
ATOM     13  C   UNL     1       3.045   5.926  19.453  0.00  0.00    +0.000 A 
ENDROOT
BRANCH   6  14
ATOM     14  O   UNL     1       5.571   6.564  15.993  0.00  0.00    +0.000 OA
ATOM     15  C   UNL     1       5.602   5.783  14.853  0.00  0.00    +0.000 C 
ENDBRANCH   6  14
BRANCH   7  16
ATOM     16  O   UNL     1       6.075   4.307  17.637  0.00  0.00    +0.000 OA
ATOM     17  C   UNL     1       7.453   4.574  17.839  0.00  0.00    +0.000 C 
ENDBRANCH   7  16
BRANCH   1  18
ATOM     18  C   UNL     1       0.075   8.557  21.576  0.00  0.00    +0.000 C 
BRANCH  18  22
ATOM     19  C   UNL     1      -1.184  13.273  22.473  0.00  0.00    +0.000 A 
ATOM     20  C   UNL     1      -1.639  12.194  23.231  0.00  0.00    +0.000 A 
ATOM     21  C   UNL     1      -1.132  10.833  23.019  0.00  0.00    +0.000 A 
ATOM     22  C   UNL     1      -0.215  10.362  21.922  0.00  0.00    +0.000 A 
ATOM     23  C   UNL     1       0.271  11.588  21.274  0.00  0.00    +0.000 A 
ATOM     24  C   UNL     1      -0.198  12.960  21.527  0.00  0.00    +0.000 A 
BRANCH  19  26
ATOM     25  C   UNL     1      -2.384  15.046  23.711  0.00  0.00    +0.000 C 
ATOM     26  O   UNL     1      -1.626  14.575  22.642  0.00  0.00    +0.000 OA
ENDBRANCH  19  26
ENDBRANCH  18  22
ENDBRANCH   1  18
TORSDOF 5
ENDMDL
MODEL 6
REMARK VINA RESULT:      -7.8      2.313      9.445
REMARK  Name = 
REMARK  8 active torsions:
REMARK  status: ('A' for Active; 'I' for Inactive)
REMARK    1  A    between atoms: C_1  and  O_2
REMARK    2  A    between atoms: O_2  and  C_3
REMARK    3  A    between atoms: C_6  and  C_7
REMARK    4  A    between atoms: C_7  and  N_8
REMARK    5  A    between atoms: C_13  and  O_14
REMARK    6  A    between atoms: O_14  and  C_15
REMARK    7  A    between atoms: C_16  and  O_17
REMARK    8  A    between atoms: O_17  and  C_18
REMARK                            x       y       z     vdW  Elec       q    Type
REMARK                         _______ _______ _______ _____ _____    ______ ____
ROOT
ATOM      1  N   UNL     1       2.724   8.571  17.889  0.00  0.00    +0.000 N 
ATOM      2  C   UNL     1       1.813   8.049  18.776  0.00  0.00    +0.000 C 
ATOM      3  C   UNL     1       2.220   7.393  19.846  0.00  0.00    +0.000 C 
ATOM      4  C   UNL     1       2.737   6.068  19.569  0.00  0.00    +0.000 A 
ATOM      5  C   UNL     1       2.412   5.059  20.447  0.00  0.00    +0.000 A 
ATOM      6  C   UNL     1       2.941   3.776  20.311  0.00  0.00    +0.000 A 
ATOM      7  C   UNL     1       3.813   3.530  19.213  0.00  0.00    +0.000 A 
ATOM      8  C   UNL     1       4.109   4.611  18.354  0.00  0.00    +0.000 A 
ATOM      9  N   UNL     1       5.195   4.451  17.468  0.00  0.00    +0.000 NA
ATOM     10  C   UNL     1       5.904   5.634  17.176  0.00  0.00    +0.000 A 
ATOM     11  C   UNL     1       5.155   6.614  16.540  0.00  0.00    +0.000 A 
ATOM     12  C   UNL     1       3.948   7.229  17.565  0.00  0.00    +0.000 A 
ATOM     13  C   UNL     1       3.583   5.996  18.457  0.00  0.00    +0.000 A 
ENDROOT
BRANCH   6  14
ATOM     14  O   UNL     1       2.661   2.825  21.260  0.00  0.00    +0.000 OA
ATOM     15  C   UNL     1       1.440   2.576  21.859  0.00  0.00    +0.000 C 
ENDBRANCH   6  14
BRANCH   7  16
ATOM     16  O   UNL     1       4.295   2.217  19.022  0.00  0.00    +0.000 OA
ATOM     17  C   UNL     1       3.624   1.183  18.322  0.00  0.00    +0.000 C 
ENDBRANCH   7  16
BRANCH   1  18
ATOM     18  C   UNL     1       1.867  10.111  17.848  0.00  0.00    +0.000 C 
BRANCH  18  22
ATOM     19  C   UNL     1      -1.459  13.043  20.078  0.00  0.00    +0.000 A 
ATOM     20  C   UNL     1      -1.365  11.670  20.302  0.00  0.00    +0.000 A 
ATOM     21  C   UNL     1      -0.279  10.865  19.730  0.00  0.00    +0.000 A 
ATOM     22  C   UNL     1       0.764  11.313  18.742  0.00  0.00    +0.000 A 
ATOM     23  C   UNL     1       0.629  12.775  18.675  0.00  0.00    +0.000 A 
ATOM     24  C   UNL     1      -0.429  13.588  19.297  0.00  0.00    +0.000 A 
BRANCH  19  26
ATOM     25  C   UNL     1      -3.718  13.413  21.013  0.00  0.00    +0.000 C 
ATOM     26  O   UNL     1      -2.459  13.845  20.603  0.00  0.00    +0.000 OA
ENDBRANCH  19  26
ENDBRANCH  18  22
ENDBRANCH   1  18
TORSDOF 5
ENDMDL
MODEL 7
REMARK VINA RESULT:      -7.7      3.709      9.534
REMARK  Name = 
REMARK  8 active torsions:
REMARK  status: ('A' for Active; 'I' for Inactive)
REMARK    1  A    between atoms: C_1  and  O_2
REMARK    2  A    between atoms: O_2  and  C_3
REMARK    3  A    between atoms: C_6  and  C_7
REMARK    4  A    between atoms: C_7  and  N_8
REMARK    5  A    between atoms: C_13  and  O_14
REMARK    6  A    between atoms: O_14  and  C_15
REMARK    7  A    between atoms: C_16  and  O_17
REMARK    8  A    between atoms: O_17  and  C_18
REMARK                            x       y       z     vdW  Elec       q    Type
REMARK                         _______ _______ _______ _____ _____    ______ ____
ROOT
ATOM      1  N   UNL     1       2.627   8.693  17.919  0.00  0.00    +0.000 N 
ATOM      2  C   UNL     1       1.750   8.183  18.847  0.00  0.00    +0.000 C 
ATOM      3  C   UNL     1       2.195   7.519  19.896  0.00  0.00    +0.000 C 
ATOM      4  C   UNL     1       2.678   6.186  19.593  0.00  0.00    +0.000 A 
ATOM      5  C   UNL     1       2.377   5.180  20.483  0.00  0.00    +0.000 A 
ATOM      6  C   UNL     1       2.878   3.890  20.321  0.00  0.00    +0.000 A 
ATOM      7  C   UNL     1       3.695   3.632  19.183  0.00  0.00    +0.000 A 
ATOM      8  C   UNL     1       3.968   4.710  18.313  0.00  0.00    +0.000 A 
ATOM      9  N   UNL     1       5.009   4.535  17.377  0.00  0.00    +0.000 NA
ATOM     10  C   UNL     1       5.723   5.707  17.055  0.00  0.00    +0.000 A 
ATOM     11  C   UNL     1       4.961   6.700  16.455  0.00  0.00    +0.000 A 
ATOM     12  C   UNL     1       3.814   7.332  17.536  0.00  0.00    +0.000 A 
ATOM     13  C   UNL     1       3.470   6.103  18.443  0.00  0.00    +0.000 A 
ENDROOT
BRANCH   6  14
ATOM     14  O   UNL     1       2.628   2.941  21.280  0.00  0.00    +0.000 OA
ATOM     15  C   UNL     1       1.400   2.598  21.816  0.00  0.00    +0.000 C 
ENDBRANCH   6  14
BRANCH   7  16
ATOM     16  O   UNL     1       4.147   2.312  18.968  0.00  0.00    +0.000 OA
ATOM     17  C   UNL     1       3.487   1.329  18.187  0.00  0.00    +0.000 C 
ENDBRANCH   7  16
BRANCH   1  18
ATOM     18  C   UNL     1       1.794  10.246  17.920  0.00  0.00    +0.000 C 
BRANCH  18  22
ATOM     19  C   UNL     1       1.919  14.802  19.885  0.00  0.00    +0.000 A 
ATOM     20  C   UNL     1       2.525  14.465  18.674  0.00  0.00    +0.000 A 
ATOM     21  C   UNL     1       2.345  13.143  18.062  0.00  0.00    +0.000 A 
ATOM     22  C   UNL     1       1.655  11.947  18.660  0.00  0.00    +0.000 A 
ATOM     23  C   UNL     1       0.976  12.455  19.861  0.00  0.00    +0.000 A 
ATOM     24  C   UNL     1       1.113  13.800  20.444  0.00  0.00    +0.000 A 
BRANCH  19  26
ATOM     25  C   UNL     1       1.535  17.241  20.022  0.00  0.00    +0.000 C 
ATOM     26  O   UNL     1       2.052  16.038  20.497  0.00  0.00    +0.000 OA
ENDBRANCH  19  26
ENDBRANCH  18  22
ENDBRANCH   1  18
TORSDOF 5
ENDMDL
MODEL 8
REMARK VINA RESULT:      -7.7      3.132      9.862
REMARK  Name = 
REMARK  8 active torsions:
REMARK  status: ('A' for Active; 'I' for Inactive)
REMARK    1  A    between atoms: C_1  and  O_2
REMARK    2  A    between atoms: O_2  and  C_3
REMARK    3  A    between atoms: C_6  and  C_7
REMARK    4  A    between atoms: C_7  and  N_8
REMARK    5  A    between atoms: C_13  and  O_14
REMARK    6  A    between atoms: O_14  and  C_15
REMARK    7  A    between atoms: C_16  and  O_17
REMARK    8  A    between atoms: O_17  and  C_18
REMARK                            x       y       z     vdW  Elec       q    Type
REMARK                         _______ _______ _______ _____ _____    ______ ____
ROOT
ATOM      1  N   UNL     1       1.074   7.439  20.838  0.00  0.00    +0.000 N 
ATOM      2  C   UNL     1       1.661   8.319  19.961  0.00  0.00    +0.000 C 
ATOM      3  C   UNL     1       1.884   7.969  18.709  0.00  0.00    +0.000 C 
ATOM      4  C   UNL     1       2.982   7.039  18.539  0.00  0.00    +0.000 A 
ATOM      5  C   UNL     1       3.819   7.228  17.463  0.00  0.00    +0.000 A 
ATOM      6  C   UNL     1       4.843   6.329  17.169  0.00  0.00    +0.000 A 
ATOM      7  C   UNL     1       5.019   5.215  18.038  0.00  0.00    +0.000 A 
ATOM      8  C   UNL     1       4.123   5.079  19.121  0.00  0.00    +0.000 A 
ATOM      9  N   UNL     1       4.101   3.835  19.785  0.00  0.00    +0.000 NA
ATOM     10  C   UNL     1       2.845   3.460  20.305  0.00  0.00    +0.000 A 
ATOM     11  C   UNL     1       2.345   4.316  21.277  0.00  0.00    +0.000 A 
ATOM     12  C   UNL     1       1.960   5.834  20.622  0.00  0.00    +0.000 A 
ATOM     13  C   UNL     1       3.012   5.998  19.473  0.00  0.00    +0.000 A 
ENDROOT
BRANCH   6  14
ATOM     14  O   UNL     1       5.595   6.507  16.034  0.00  0.00    +0.000 OA
ATOM     15  C   UNL     1       5.560   5.746  14.881  0.00  0.00    +0.000 C 
ENDBRANCH   6  14
BRANCH   7  16
ATOM     16  O   UNL     1       6.099   4.340  17.794  0.00  0.00    +0.000 OA
ATOM     17  C   UNL     1       7.474   4.669  17.910  0.00  0.00    +0.000 C 
ENDBRANCH   7  16
BRANCH   1  18
ATOM     18  C   UNL     1      -0.035   8.682  21.413  0.00  0.00    +0.000 C 
BRANCH  18  22
ATOM     19  C   UNL     1      -0.332  13.562  22.265  0.00  0.00    +0.000 A 
ATOM     20  C   UNL     1       0.376  13.005  21.200  0.00  0.00    +0.000 A 
ATOM     21  C   UNL     1       0.322  11.568  20.904  0.00  0.00    +0.000 A 
ATOM     22  C   UNL     1      -0.331  10.491  21.727  0.00  0.00    +0.000 A 
ATOM     23  C   UNL     1      -1.122  11.207  22.740  0.00  0.00    +0.000 A 
ATOM     24  C   UNL     1      -1.110  12.656  22.999  0.00  0.00    +0.000 A 
BRANCH  19  26
ATOM     25  C   UNL     1      -1.441  15.720  22.744  0.00  0.00    +0.000 C 
ATOM     26  O   UNL     1      -0.319  14.912  22.578  0.00  0.00    +0.000 OA
ENDBRANCH  19  26
ENDBRANCH  18  22
ENDBRANCH   1  18
TORSDOF 5
ENDMDL
MODEL 9
REMARK VINA RESULT:      -7.7      1.305      1.808
REMARK  Name = 
REMARK  8 active torsions:
REMARK  status: ('A' for Active; 'I' for Inactive)
REMARK    1  A    between atoms: C_1  and  O_2
REMARK    2  A    between atoms: O_2  and  C_3
REMARK    3  A    between atoms: C_6  and  C_7
REMARK    4  A    between atoms: C_7  and  N_8
REMARK    5  A    between atoms: C_13  and  O_14
REMARK    6  A    between atoms: O_14  and  C_15
REMARK    7  A    between atoms: C_16  and  O_17
REMARK    8  A    between atoms: O_17  and  C_18
REMARK                            x       y       z     vdW  Elec       q    Type
REMARK                         _______ _______ _______ _____ _____    ______ ____
ROOT
ATOM      1  N   UNL     1       0.598   9.620  18.139  0.00  0.00    +0.000 N 
ATOM      2  C   UNL     1       0.988  10.297  19.268  0.00  0.00    +0.000 C 
ATOM      3  C   UNL     1       0.224  10.306  20.343  0.00  0.00    +0.000 C 
ATOM      4  C   UNL     1      -0.954  11.142  20.227  0.00  0.00    +0.000 A 
ATOM      5  C   UNL     1      -1.321  11.884  21.326  0.00  0.00    +0.000 A 
ATOM      6  C   UNL     1      -2.490  12.643  21.336  0.00  0.00    +0.000 A 
ATOM      7  C   UNL     1      -3.288  12.650  20.157  0.00  0.00    +0.000 A 
ATOM      8  C   UNL     1      -2.856  11.862  19.067  0.00  0.00    +0.000 A 
ATOM      9  N   UNL     1      -3.787  11.626  18.034  0.00  0.00    +0.000 NA
ATOM     10  C   UNL     1      -3.658  10.378  17.391  0.00  0.00    +0.000 A 
ATOM     11  C   UNL     1      -2.449  10.187  16.738  0.00  0.00    +0.000 A 
ATOM     12  C   UNL     1      -1.162  10.092  17.842  0.00  0.00    +0.000 A 
ATOM     13  C   UNL     1      -1.628  11.030  19.006  0.00  0.00    +0.000 A 
ENDROOT
BRANCH   6  14
ATOM     14  O   UNL     1      -2.864  13.295  22.484  0.00  0.00    +0.000 OA
ATOM     15  C   UNL     1      -2.508  14.574  22.873  0.00  0.00    +0.000 C 
ENDBRANCH   6  14
BRANCH   7  16
ATOM     16  O   UNL     1      -4.435  13.472  20.128  0.00  0.00    +0.000 OA
ATOM     17  C   UNL     1      -5.720  13.117  20.611  0.00  0.00    +0.000 C 
ENDBRANCH   7  16
BRANCH   1  18
ATOM     18  C   UNL     1       2.191   8.886  17.973  0.00  0.00    +0.000 C 
BRANCH  18  22
ATOM     19  C   UNL     1       4.876   4.907  16.711  0.00  0.00    +0.000 A 
ATOM     20  C   UNL     1       5.309   6.221  16.533  0.00  0.00    +0.000 A 
ATOM     21  C   UNL     1       4.546   7.363  17.047  0.00  0.00    +0.000 A 
ATOM     22  C   UNL     1       3.178   7.337  17.676  0.00  0.00    +0.000 A 
ATOM     23  C   UNL     1       2.887   5.914  17.905  0.00  0.00    +0.000 A 
ATOM     24  C   UNL     1       3.684   4.769  17.437  0.00  0.00    +0.000 A 
BRANCH  19  26
ATOM     25  C   UNL     1       6.194   3.684  15.013  0.00  0.00    +0.000 C 
ATOM     26  O   UNL     1       5.567   3.798  16.252  0.00  0.00    +0.000 OA
ENDBRANCH  19  26
ENDBRANCH  18  22
ENDBRANCH   1  18
TORSDOF 5
ENDMDL
