MODEL 1
REMARK VINA RESULT:      -8.7      0.000      0.000
REMARK  Name = 
REMARK  8 active torsions:
REMARK  status: ('A' for Active; 'I' for Inactive)
REMARK    1  A    between atoms: C_1  and  C_2
REMARK    2  A    between atoms: C_2  and  O_3
REMARK    3  A    between atoms: O_3  and  C_4
REMARK    4  A    between atoms: C_4  and  C_6
REMARK    5  A    between atoms: C_9  and  N_10
REMARK    6  A    between atoms: N_10  and  C_11
REMARK    7  A    between atoms: C_11  and  C_12
REMARK    8  A    between atoms: C_19  and  C_20
REMARK                            x       y       z     vdW  Elec       q    Type
REMARK                         _______ _______ _______ _____ _____    ______ ____
ROOT
ATOM      1  C   UNL     1       2.295   6.555  19.563  0.00  0.00    +0.000 A 
ATOM      2  C   UNL     1       2.401   7.101  18.266  0.00  0.00    +0.000 A 
ATOM      3  C   UNL     1       1.985   8.397  18.003  0.00  0.00    +0.000 A 
ATOM      4  C   UNL     1       1.449   9.148  19.040  0.00  0.00    +0.000 A 
ATOM      5  O   UNL     1       0.877  10.366  18.687  0.00  0.00    +0.000 OA
ATOM      6  C   UNL     1      -0.251  10.470  19.440  0.00  0.00    +0.000 A 
ATOM      7  O   UNL     1      -1.386  10.568  19.007  0.00  0.00    +0.000 OA
ATOM      8  C   UNL     1       0.100  10.478  20.935  0.00  0.00    +0.000 A 
ATOM      9  N   UNL     1       0.890   9.533  21.385  0.00  0.00    +0.000 NA
ATOM     10  C   UNL     1       1.404   8.684  20.368  0.00  0.00    +0.000 A 
ATOM     11  C   UNL     1       1.841   7.379  20.619  0.00  0.00    +0.000 A 
ENDROOT
BRANCH   8  12
ATOM     12  C   UNL     1      -0.454  11.586  21.777  0.00  0.00    +0.000 A 
ATOM     13  C   UNL     1      -1.469  11.340  22.720  0.00  0.00    +0.000 A 
ATOM     14  C   UNL     1      -1.993  12.368  23.509  0.00  0.00    +0.000 A 
ATOM     15  C   UNL     1      -1.525  13.666  23.353  0.00  0.00    +0.000 A 
ATOM     16  C   UNL     1      -0.543  13.934  22.398  0.00  0.00    +0.000 A 
ATOM     17  C   UNL     1      -0.008  12.903  21.611  0.00  0.00    +0.000 A 
ENDBRANCH   8  12
BRANCH   1  18
ATOM     18  C   UNL     1       2.633   5.084  19.693  0.00  0.00    +0.000 C 
BRANCH  18  19
ATOM     19  N   UNL     1       4.052   4.768  19.782  0.00  0.00    +0.000 N 
ATOM     20  H   UNL     1       4.502   5.364  20.473  0.00  0.00    +0.000 HD
BRANCH  19  24
ATOM     21  C   UNL     1       6.136   4.699  16.102  0.00  0.00    +0.000 A 
ATOM     22  C   UNL     1       4.999   3.917  16.309  0.00  0.00    +0.000 A 
ATOM     23  C   UNL     1       4.352   3.930  17.547  0.00  0.00    +0.000 A 
ATOM     24  C   UNL     1       4.831   4.698  18.618  0.00  0.00    +0.000 A 
ATOM     25  C   UNL     1       5.977   5.473  18.400  0.00  0.00    +0.000 A 
ATOM     26  C   UNL     1       6.627   5.477  17.156  0.00  0.00    +0.000 A 
BRANCH  21  27
ATOM     27  C   UNL     1       6.791   4.623  14.770  0.00  0.00    +0.000 C 
ATOM     28  O   UNL     1       7.677   5.384  14.413  0.00  0.00    +0.000 OA
BRANCH  27  29
ATOM     29  O   UNL     1       6.189   3.683  14.000  0.00  0.00    +0.000 OA
BRANCH  29  31
ATOM     30  C   UNL     1       5.402   3.070  11.834  0.00  0.00    +0.000 C 
ATOM     31  C   UNL     1       6.526   3.738  12.606  0.00  0.00    +0.000 C 
ENDBRANCH  29  31
ENDBRANCH  27  29
ENDBRANCH  21  27
ENDBRANCH  19  24
ENDBRANCH  18  19
ENDBRANCH   1  18
TORSDOF 7
ENDMDL
MODEL 2
REMARK VINA RESULT:      -8.4      0.656      1.053
REMARK  Name = 
REMARK  8 active torsions:
REMARK  status: ('A' for Active; 'I' for Inactive)
REMARK    1  A    between atoms: C_1  and  C_2
REMARK    2  A    between atoms: C_2  and  O_3
REMARK    3  A    between atoms: O_3  and  C_4
REMARK    4  A    between atoms: C_4  and  C_6
REMARK    5  A    between atoms: C_9  and  N_10
REMARK    6  A    between atoms: N_10  and  C_11
REMARK    7  A    between atoms: C_11  and  C_12
REMARK    8  A    between atoms: C_19  and  C_20
REMARK                            x       y       z     vdW  Elec       q    Type
REMARK                         _______ _______ _______ _____ _____    ______ ____
ROOT
ATOM      1  C   UNL     1       2.332   7.026  19.519  0.00  0.00    +0.000 A 
ATOM      2  C   UNL     1       2.435   7.557  18.215  0.00  0.00    +0.000 A 
ATOM      3  C   UNL     1       1.881   8.789  17.903  0.00  0.00    +0.000 A 
ATOM      4  C   UNL     1       1.211   9.490  18.896  0.00  0.00    +0.000 A 
ATOM      5  O   UNL     1       0.516  10.624  18.488  0.00  0.00    +0.000 OA
ATOM      6  C   UNL     1      -0.651  10.606  19.187  0.00  0.00    +0.000 A 
ATOM      7  O   UNL     1      -1.767  10.560  18.700  0.00  0.00    +0.000 OA
ATOM      8  C   UNL     1      -0.376  10.683  20.695  0.00  0.00    +0.000 A 
ATOM      9  N   UNL     1       0.498   9.847  21.203  0.00  0.00    +0.000 NA
ATOM     10  C   UNL     1       1.157   9.047  20.231  0.00  0.00    +0.000 A 
ATOM     11  C   UNL     1       1.733   7.809  20.533  0.00  0.00    +0.000 A 
ENDROOT
BRANCH   8  12
ATOM     12  C   UNL     1      -1.097  11.732  21.484  0.00  0.00    +0.000 A 
ATOM     13  C   UNL     1      -1.202  13.052  21.006  0.00  0.00    +0.000 A 
ATOM     14  C   UNL     1      -1.872  14.038  21.736  0.00  0.00    +0.000 A 
ATOM     15  C   UNL     1      -2.431  13.726  22.967  0.00  0.00    +0.000 A 
ATOM     16  C   UNL     1      -2.307  12.431  23.473  0.00  0.00    +0.000 A 
ATOM     17  C   UNL     1      -1.643  11.436  22.738  0.00  0.00    +0.000 A 
ENDBRANCH   8  12
BRANCH   1  18
ATOM     18  C   UNL     1       2.835   5.608  19.699  0.00  0.00    +0.000 C 
BRANCH  18  19
ATOM     19  N   UNL     1       4.282   5.456  19.768  0.00  0.00    +0.000 N 
ATOM     20  H   UNL     1       4.694   6.243  20.265  0.00  0.00    +0.000 HD
BRANCH  19  24
ATOM     21  C   UNL     1       6.308   4.848  16.105  0.00  0.00    +0.000 A 
ATOM     22  C   UNL     1       4.955   4.535  16.250  0.00  0.00    +0.000 A 
ATOM     23  C   UNL     1       4.320   4.710  17.482  0.00  0.00    +0.000 A 
ATOM     24  C   UNL     1       5.016   5.175  18.607  0.00  0.00    +0.000 A 
ATOM     25  C   UNL     1       6.375   5.478  18.452  0.00  0.00    +0.000 A 
ATOM     26  C   UNL     1       7.019   5.317  17.215  0.00  0.00    +0.000 A 
BRANCH  21  27
ATOM     27  C   UNL     1       6.930   4.617  14.775  0.00  0.00    +0.000 C 
ATOM     28  O   UNL     1       7.761   5.364  14.285  0.00  0.00    +0.000 OA
BRANCH  27  29
ATOM     29  O   UNL     1       6.360   3.547  14.166  0.00  0.00    +0.000 OA
BRANCH  29  31
ATOM     30  C   UNL     1       6.635   2.993  11.863  0.00  0.00    +0.000 C 
ATOM     31  C   UNL     1       5.830   3.809  12.859  0.00  0.00    +0.000 C 
ENDBRANCH  29  31
ENDBRANCH  27  29
ENDBRANCH  21  27
ENDBRANCH  19  24
ENDBRANCH  18  19
ENDBRANCH   1  18
TORSDOF 7
ENDMDL
MODEL 3
REMARK VINA RESULT:      -8.4      0.835      1.518
REMARK  Name = 
REMARK  8 active torsions:
REMARK  status: ('A' for Active; 'I' for Inactive)
REMARK    1  A    between atoms: C_1  and  C_2
REMARK    2  A    between atoms: C_2  and  O_3
REMARK    3  A    between atoms: O_3  and  C_4
REMARK    4  A    between atoms: C_4  and  C_6
REMARK    5  A    between atoms: C_9  and  N_10
REMARK    6  A    between atoms: N_10  and  C_11
REMARK    7  A    between atoms: C_11  and  C_12
REMARK    8  A    between atoms: C_19  and  C_20
REMARK                            x       y       z     vdW  Elec       q    Type
REMARK                         _______ _______ _______ _____ _____    ______ ____
ROOT
ATOM      1  C   UNL     1       2.065   7.553  19.605  0.00  0.00    +0.000 A 
ATOM      2  C   UNL     1       2.157   8.215  18.362  0.00  0.00    +0.000 A 
ATOM      3  C   UNL     1       1.648   9.494  18.197  0.00  0.00    +0.000 A 
ATOM      4  C   UNL     1       1.032  10.110  19.278  0.00  0.00    +0.000 A 
ATOM      5  O   UNL     1       0.375  11.308  19.011  0.00  0.00    +0.000 OA
ATOM      6  C   UNL     1      -0.774  11.261  19.738  0.00  0.00    +0.000 A 
ATOM      7  O   UNL     1      -1.903  11.310  19.281  0.00  0.00    +0.000 OA
ATOM      8  C   UNL     1      -0.459  11.167  21.237  0.00  0.00    +0.000 A 
ATOM      9  N   UNL     1       0.392  10.248  21.629  0.00  0.00    +0.000 NA
ATOM     10  C   UNL     1       0.993   9.531  20.560  0.00  0.00    +0.000 A 
ATOM     11  C   UNL     1       1.524   8.247  20.713  0.00  0.00    +0.000 A 
ENDROOT
BRANCH   8  12
ATOM     12  C   UNL     1      -1.116  12.153  22.153  0.00  0.00    +0.000 A 
ATOM     13  C   UNL     1      -0.520  13.400  22.420  0.00  0.00    +0.000 A 
ATOM     14  C   UNL     1      -1.125  14.327  23.274  0.00  0.00    +0.000 A 
ATOM     15  C   UNL     1      -2.328  14.013  23.892  0.00  0.00    +0.000 A 
ATOM     16  C   UNL     1      -2.916  12.768  23.666  0.00  0.00    +0.000 A 
ATOM     17  C   UNL     1      -2.316  11.839  22.801  0.00  0.00    +0.000 A 
ENDBRANCH   8  12
BRANCH   1  18
ATOM     18  C   UNL     1       2.513   6.105  19.620  0.00  0.00    +0.000 C 
BRANCH  18  19
ATOM     19  N   UNL     1       3.944   5.887  19.464  0.00  0.00    +0.000 N 
ATOM     20  H   UNL     1       4.464   6.648  19.894  0.00  0.00    +0.000 HD
BRANCH  19  24
ATOM     21  C   UNL     1       5.856   4.943  15.811  0.00  0.00    +0.000 A 
ATOM     22  C   UNL     1       6.134   6.128  16.494  0.00  0.00    +0.000 A 
ATOM     23  C   UNL     1       5.460   6.433  17.679  0.00  0.00    +0.000 A 
ATOM     24  C   UNL     1       4.476   5.583  18.203  0.00  0.00    +0.000 A 
ATOM     25  C   UNL     1       4.199   4.400  17.506  0.00  0.00    +0.000 A 
ATOM     26  C   UNL     1       4.880   4.079  16.321  0.00  0.00    +0.000 A 
BRANCH  21  27
ATOM     27  C   UNL     1       6.590   4.688  14.544  0.00  0.00    +0.000 C 
ATOM     28  O   UNL     1       7.618   5.270  14.237  0.00  0.00    +0.000 OA
BRANCH  27  29
ATOM     29  O   UNL     1       5.897   3.825  13.761  0.00  0.00    +0.000 OA
BRANCH  29  31
ATOM     30  C   UNL     1       5.882   2.390  11.857  0.00  0.00    +0.000 C 
ATOM     31  C   UNL     1       6.381   3.710  12.415  0.00  0.00    +0.000 C 
ENDBRANCH  29  31
ENDBRANCH  27  29
ENDBRANCH  21  27
ENDBRANCH  19  24
ENDBRANCH  18  19
ENDBRANCH   1  18
TORSDOF 7
ENDMDL
MODEL 4
REMARK VINA RESULT:      -8.1      1.408      1.961
REMARK  Name = 
REMARK  8 active torsions:
REMARK  status: ('A' for Active; 'I' for Inactive)
REMARK    1  A    between atoms: C_1  and  C_2
REMARK    2  A    between atoms: C_2  and  O_3
REMARK    3  A    between atoms: O_3  and  C_4
REMARK    4  A    between atoms: C_4  and  C_6
REMARK    5  A    between atoms: C_9  and  N_10
REMARK    6  A    between atoms: N_10  and  C_11
REMARK    7  A    between atoms: C_11  and  C_12
REMARK    8  A    between atoms: C_19  and  C_20
REMARK                            x       y       z     vdW  Elec       q    Type
REMARK                         _______ _______ _______ _____ _____    ______ ____
ROOT
ATOM      1  C   UNL     1       1.644   8.441  19.923  0.00  0.00    +0.000 A 
ATOM      2  C   UNL     1       1.662   9.200  18.733  0.00  0.00    +0.000 A 
ATOM      3  C   UNL     1       1.068  10.451  18.679  0.00  0.00    +0.000 A 
ATOM      4  C   UNL     1       0.442  10.943  19.816  0.00  0.00    +0.000 A 
ATOM      5  O   UNL     1      -0.297  12.111  19.656  0.00  0.00    +0.000 OA
ATOM      6  C   UNL     1      -1.422  11.934  20.401  0.00  0.00    +0.000 A 
ATOM      7  O   UNL     1      -2.563  11.943  19.973  0.00  0.00    +0.000 OA
ATOM      8  C   UNL     1      -1.063  11.747  21.882  0.00  0.00    +0.000 A 
ATOM      9  N   UNL     1      -0.146  10.859  22.183  0.00  0.00    +0.000 NA
ATOM     10  C   UNL     1       0.473  10.267  21.050  0.00  0.00    +0.000 A 
ATOM     11  C   UNL     1       1.089   9.012  21.092  0.00  0.00    +0.000 A 
ENDROOT
BRANCH   8  12
ATOM     12  C   UNL     1      -1.758  12.616  22.884  0.00  0.00    +0.000 A 
ATOM     13  C   UNL     1      -3.044  12.292  23.353  0.00  0.00    +0.000 A 
ATOM     14  C   UNL     1      -3.702  13.098  24.288  0.00  0.00    +0.000 A 
ATOM     15  C   UNL     1      -3.090  14.254  24.754  0.00  0.00    +0.000 A 
ATOM     16  C   UNL     1      -1.829  14.610  24.273  0.00  0.00    +0.000 A 
ATOM     17  C   UNL     1      -1.162  13.797  23.342  0.00  0.00    +0.000 A 
ENDBRANCH   8  12
BRANCH   1  18
ATOM     18  C   UNL     1       2.184   7.029  19.817  0.00  0.00    +0.000 C 
BRANCH  18  19
ATOM     19  N   UNL     1       2.190   6.455  18.479  0.00  0.00    +0.000 N 
ATOM     20  H   UNL     1       1.552   5.664  18.433  0.00  0.00    +0.000 HD
BRANCH  19  24
ATOM     21  C   UNL     1       5.673   5.354  16.346  0.00  0.00    +0.000 A 
ATOM     22  C   UNL     1       4.824   4.394  16.900  0.00  0.00    +0.000 A 
ATOM     23  C   UNL     1       3.701   4.786  17.633  0.00  0.00    +0.000 A 
ATOM     24  C   UNL     1       3.405   6.138  17.856  0.00  0.00    +0.000 A 
ATOM     25  C   UNL     1       4.269   7.092  17.302  0.00  0.00    +0.000 A 
ATOM     26  C   UNL     1       5.393   6.709  16.554  0.00  0.00    +0.000 A 
BRANCH  21  27
ATOM     27  C   UNL     1       6.863   4.871  15.599  0.00  0.00    +0.000 C 
ATOM     28  O   UNL     1       7.889   4.493  16.142  0.00  0.00    +0.000 OA
BRANCH  27  29
ATOM     29  O   UNL     1       6.678   5.024  14.264  0.00  0.00    +0.000 OA
BRANCH  29  31
ATOM     30  C   UNL     1       6.782   3.777  12.234  0.00  0.00    +0.000 C 
ATOM     31  C   UNL     1       6.122   3.881  13.598  0.00  0.00    +0.000 C 
ENDBRANCH  29  31
ENDBRANCH  27  29
ENDBRANCH  21  27
ENDBRANCH  19  24
ENDBRANCH  18  19
ENDBRANCH   1  18
TORSDOF 7
ENDMDL
MODEL 5
REMARK VINA RESULT:      -8.1      2.449      3.099
REMARK  Name = 
REMARK  8 active torsions:
REMARK  status: ('A' for Active; 'I' for Inactive)
REMARK    1  A    between atoms: C_1  and  C_2
REMARK    2  A    between atoms: C_2  and  O_3
REMARK    3  A    between atoms: O_3  and  C_4
REMARK    4  A    between atoms: C_4  and  C_6
REMARK    5  A    between atoms: C_9  and  N_10
REMARK    6  A    between atoms: N_10  and  C_11
REMARK    7  A    between atoms: C_11  and  C_12
REMARK    8  A    between atoms: C_19  and  C_20
REMARK                            x       y       z     vdW  Elec       q    Type
REMARK                         _______ _______ _______ _____ _____    ______ ____
ROOT
ATOM      1  C   UNL     1       3.898   5.159  19.448  0.00  0.00    +0.000 A 
ATOM      2  C   UNL     1       3.061   4.600  20.437  0.00  0.00    +0.000 A 
ATOM      3  C   UNL     1       1.938   5.279  20.885  0.00  0.00    +0.000 A 
ATOM      4  C   UNL     1       1.657   6.529  20.349  0.00  0.00    +0.000 A 
ATOM      5  O   UNL     1       0.634   7.246  20.963  0.00  0.00    +0.000 OA
ATOM      6  C   UNL     1       1.070   8.534  21.007  0.00  0.00    +0.000 A 
ATOM      7  O   UNL     1       1.236   9.191  22.020  0.00  0.00    +0.000 OA
ATOM      8  C   UNL     1       1.300   9.073  19.588  0.00  0.00    +0.000 A 
ATOM      9  N   UNL     1       2.026   8.351  18.768  0.00  0.00    +0.000 NA
ATOM     10  C   UNL     1       2.408   7.090  19.300  0.00  0.00    +0.000 A 
ATOM     11  C   UNL     1       3.529   6.386  18.849  0.00  0.00    +0.000 A 
ENDROOT
BRANCH   8  12
ATOM     12  C   UNL     1       0.651  10.371  19.220  0.00  0.00    +0.000 A 
ATOM     13  C   UNL     1      -0.741  10.455  19.029  0.00  0.00    +0.000 A 
ATOM     14  C   UNL     1      -1.355  11.663  18.684  0.00  0.00    +0.000 A 
ATOM     15  C   UNL     1      -0.585  12.804  18.504  0.00  0.00    +0.000 A 
ATOM     16  C   UNL     1       0.801  12.730  18.656  0.00  0.00    +0.000 A 
ATOM     17  C   UNL     1       1.420  11.522  19.011  0.00  0.00    +0.000 A 
ENDBRANCH   8  12
BRANCH   1  18
ATOM     18  C   UNL     1       5.176   4.398  19.155  0.00  0.00    +0.000 C 
BRANCH  18  19
ATOM     19  N   UNL     1       6.106   5.054  18.246  0.00  0.00    +0.000 N 
ATOM     20  H   UNL     1       6.008   6.064  18.313  0.00  0.00    +0.000 HD
BRANCH  19  24
ATOM     21  C   UNL     1       6.024   4.041  14.141  0.00  0.00    +0.000 A 
ATOM     22  C   UNL     1       5.038   3.592  15.022  0.00  0.00    +0.000 A 
ATOM     23  C   UNL     1       5.110   3.910  16.380  0.00  0.00    +0.000 A 
ATOM     24  C   UNL     1       6.174   4.658  16.903  0.00  0.00    +0.000 A 
ATOM     25  C   UNL     1       7.162   5.096  16.012  0.00  0.00    +0.000 A 
ATOM     26  C   UNL     1       7.092   4.793  14.643  0.00  0.00    +0.000 A 
BRANCH  21  27
ATOM     27  C   UNL     1       5.902   3.649  12.712  0.00  0.00    +0.000 C 
ATOM     28  O   UNL     1       6.861   3.502  11.973  0.00  0.00    +0.000 OA
BRANCH  27  29
ATOM     29  O   UNL     1       4.597   3.598  12.346  0.00  0.00    +0.000 OA
BRANCH  29  31
ATOM     30  C   UNL     1       3.383   3.757  10.300  0.00  0.00    +0.000 C 
ATOM     31  C   UNL     1       4.343   2.908  11.114  0.00  0.00    +0.000 C 
ENDBRANCH  29  31
ENDBRANCH  27  29
ENDBRANCH  21  27
ENDBRANCH  19  24
ENDBRANCH  18  19
ENDBRANCH   1  18
TORSDOF 7
ENDMDL
MODEL 6
REMARK VINA RESULT:      -8.1      2.182      3.163
REMARK  Name = 
REMARK  8 active torsions:
REMARK  status: ('A' for Active; 'I' for Inactive)
REMARK    1  A    between atoms: C_1  and  C_2
REMARK    2  A    between atoms: C_2  and  O_3
REMARK    3  A    between atoms: O_3  and  C_4
REMARK    4  A    between atoms: C_4  and  C_6
REMARK    5  A    between atoms: C_9  and  N_10
REMARK    6  A    between atoms: N_10  and  C_11
REMARK    7  A    between atoms: C_11  and  C_12
REMARK    8  A    between atoms: C_19  and  C_20
REMARK                            x       y       z     vdW  Elec       q    Type
REMARK                         _______ _______ _______ _____ _____    ______ ____
ROOT
ATOM      1  C   UNL     1       1.370   8.150  20.749  0.00  0.00    +0.000 A 
ATOM      2  C   UNL     1       1.544   8.828  19.523  0.00  0.00    +0.000 A 
ATOM      3  C   UNL     1       1.078  10.123  19.354  0.00  0.00    +0.000 A 
ATOM      4  C   UNL     1       0.425  10.740  20.413  0.00  0.00    +0.000 A 
ATOM      5  O   UNL     1      -0.184  11.959  20.133  0.00  0.00    +0.000 OA
ATOM      6  C   UNL     1      -1.370  11.934  20.800  0.00  0.00    +0.000 A 
ATOM      7  O   UNL     1      -2.472  12.022  20.288  0.00  0.00    +0.000 OA
ATOM      8  C   UNL     1      -1.134  11.808  22.312  0.00  0.00    +0.000 A 
ATOM      9  N   UNL     1      -0.330  10.860  22.730  0.00  0.00    +0.000 NA
ATOM     10  C   UNL     1       0.305  10.143  21.681  0.00  0.00    +0.000 A 
ATOM     11  C   UNL     1       0.793   8.842  21.840  0.00  0.00    +0.000 A 
ENDROOT
BRANCH   8  12
ATOM     12  C   UNL     1      -1.810  12.799  23.209  0.00  0.00    +0.000 A 
ATOM     13  C   UNL     1      -3.116  12.573  23.680  0.00  0.00    +0.000 A 
ATOM     14  C   UNL     1      -3.756  13.493  24.517  0.00  0.00    +0.000 A 
ATOM     15  C   UNL     1      -3.105  14.665  24.881  0.00  0.00    +0.000 A 
ATOM     16  C   UNL     1      -1.822  14.920  24.394  0.00  0.00    +0.000 A 
ATOM     17  C   UNL     1      -1.174  13.995  23.561  0.00  0.00    +0.000 A 
ENDBRANCH   8  12
BRANCH   1  18
ATOM     18  C   UNL     1       1.777   6.690  20.763  0.00  0.00    +0.000 C 
BRANCH  18  19
ATOM     19  N   UNL     1       2.006   6.087  19.457  0.00  0.00    +0.000 N 
ATOM     20  H   UNL     1       1.640   5.138  19.440  0.00  0.00    +0.000 HD
BRANCH  19  24
ATOM     21  C   UNL     1       5.823   5.874  17.648  0.00  0.00    +0.000 A 
ATOM     22  C   UNL     1       5.550   5.222  18.852  0.00  0.00    +0.000 A 
ATOM     23  C   UNL     1       4.292   5.340  19.447  0.00  0.00    +0.000 A 
ATOM     24  C   UNL     1       3.282   6.128  18.878  0.00  0.00    +0.000 A 
ATOM     25  C   UNL     1       3.570   6.785  17.674  0.00  0.00    +0.000 A 
ATOM     26  C   UNL     1       4.827   6.662  17.061  0.00  0.00    +0.000 A 
BRANCH  21  27
ATOM     27  C   UNL     1       7.188   5.727  17.078  0.00  0.00    +0.000 C 
ATOM     28  O   UNL     1       7.729   4.647  16.904  0.00  0.00    +0.000 OA
BRANCH  27  29
ATOM     29  O   UNL     1       7.760   6.944  16.900  0.00  0.00    +0.000 OA
BRANCH  29  31
ATOM     30  C   UNL     1       8.077   9.104  17.858  0.00  0.00    +0.000 C 
ATOM     31  C   UNL     1       8.153   7.609  18.109  0.00  0.00    +0.000 C 
ENDBRANCH  29  31
ENDBRANCH  27  29
ENDBRANCH  21  27
ENDBRANCH  19  24
ENDBRANCH  18  19
ENDBRANCH   1  18
TORSDOF 7
ENDMDL
MODEL 7
REMARK VINA RESULT:      -8.1      1.528      2.101
REMARK  Name = 
REMARK  8 active torsions:
REMARK  status: ('A' for Active; 'I' for Inactive)
REMARK    1  A    between atoms: C_1  and  C_2
REMARK    2  A    between atoms: C_2  and  O_3
REMARK    3  A    between atoms: O_3  and  C_4
REMARK    4  A    between atoms: C_4  and  C_6
REMARK    5  A    between atoms: C_9  and  N_10
REMARK    6  A    between atoms: N_10  and  C_11
REMARK    7  A    between atoms: C_11  and  C_12
REMARK    8  A    between atoms: C_19  and  C_20
REMARK                            x       y       z     vdW  Elec       q    Type
REMARK                         _______ _______ _______ _____ _____    ______ ____
ROOT
ATOM      1  C   UNL     1       1.541   7.828  20.628  0.00  0.00    +0.000 A 
ATOM      2  C   UNL     1       1.758   8.487  19.399  0.00  0.00    +0.000 A 
ATOM      3  C   UNL     1       1.317   9.786  19.202  0.00  0.00    +0.000 A 
ATOM      4  C   UNL     1       0.645  10.427  20.234  0.00  0.00    +0.000 A 
ATOM      5  O   UNL     1       0.062  11.651  19.923  0.00  0.00    +0.000 OA
ATOM      6  C   UNL     1      -1.142  11.651  20.558  0.00  0.00    +0.000 A 
ATOM      7  O   UNL     1      -2.228  11.749  20.015  0.00  0.00    +0.000 OA
ATOM      8  C   UNL     1      -0.949  11.541  22.076  0.00  0.00    +0.000 A 
ATOM      9  N   UNL     1      -0.171  10.587  22.529  0.00  0.00    +0.000 NA
ATOM     10  C   UNL     1       0.482   9.847  21.506  0.00  0.00    +0.000 A 
ATOM     11  C   UNL     1       0.946   8.541  21.694  0.00  0.00    +0.000 A 
ENDROOT
BRANCH   8  12
ATOM     12  C   UNL     1      -1.634  12.553  22.943  0.00  0.00    +0.000 A 
ATOM     13  C   UNL     1      -2.920  12.311  23.459  0.00  0.00    +0.000 A 
ATOM     14  C   UNL     1      -3.568  13.249  24.268  0.00  0.00    +0.000 A 
ATOM     15  C   UNL     1      -2.947  14.457  24.557  0.00  0.00    +0.000 A 
ATOM     16  C   UNL     1      -1.685  14.729  24.025  0.00  0.00    +0.000 A 
ATOM     17  C   UNL     1      -1.028  13.784  23.221  0.00  0.00    +0.000 A 
ENDBRANCH   8  12
BRANCH   1  18
ATOM     18  C   UNL     1       1.926   6.362  20.671  0.00  0.00    +0.000 C 
BRANCH  18  19
ATOM     19  N   UNL     1       2.074   5.711  19.376  0.00  0.00    +0.000 N 
ATOM     20  H   UNL     1       1.653   4.785  19.399  0.00  0.00    +0.000 HD
BRANCH  19  24
ATOM     21  C   UNL     1       5.858   5.904  17.496  0.00  0.00    +0.000 A 
ATOM     22  C   UNL     1       4.700   6.342  16.850  0.00  0.00    +0.000 A 
ATOM     23  C   UNL     1       3.458   6.231  17.479  0.00  0.00    +0.000 A 
ATOM     24  C   UNL     1       3.329   5.661  18.754  0.00  0.00    +0.000 A 
ATOM     25  C   UNL     1       4.496   5.219  19.389  0.00  0.00    +0.000 A 
ATOM     26  C   UNL     1       5.751   5.337  18.771  0.00  0.00    +0.000 A 
BRANCH  21  27
ATOM     27  C   UNL     1       7.144   6.028  16.763  0.00  0.00    +0.000 C 
ATOM     28  O   UNL     1       7.762   7.077  16.665  0.00  0.00    +0.000 OA
BRANCH  27  29
ATOM     29  O   UNL     1       7.451   4.861  16.143  0.00  0.00    +0.000 OA
BRANCH  29  31
ATOM     30  C   UNL     1       6.113   3.865  14.439  0.00  0.00    +0.000 C 
ATOM     31  C   UNL     1       7.229   4.854  14.726  0.00  0.00    +0.000 C 
ENDBRANCH  29  31
ENDBRANCH  27  29
ENDBRANCH  21  27
ENDBRANCH  19  24
ENDBRANCH  18  19
ENDBRANCH   1  18
TORSDOF 7
ENDMDL
MODEL 8
REMARK VINA RESULT:      -7.9      1.246      1.522
REMARK  Name = 
REMARK  8 active torsions:
REMARK  status: ('A' for Active; 'I' for Inactive)
REMARK    1  A    between atoms: C_1  and  C_2
REMARK    2  A    between atoms: C_2  and  O_3
REMARK    3  A    between atoms: O_3  and  C_4
REMARK    4  A    between atoms: C_4  and  C_6
REMARK    5  A    between atoms: C_9  and  N_10
REMARK    6  A    between atoms: N_10  and  C_11
REMARK    7  A    between atoms: C_11  and  C_12
REMARK    8  A    between atoms: C_19  and  C_20
REMARK                            x       y       z     vdW  Elec       q    Type
REMARK                         _______ _______ _______ _____ _____    ______ ____
ROOT
ATOM      1  C   UNL     1       1.992   7.868  19.475  0.00  0.00    +0.000 A 
ATOM      2  C   UNL     1       2.048   8.481  18.205  0.00  0.00    +0.000 A 
ATOM      3  C   UNL     1       1.443   9.708  17.982  0.00  0.00    +0.000 A 
ATOM      4  C   UNL     1       0.768  10.320  19.029  0.00  0.00    +0.000 A 
ATOM      5  O   UNL     1       0.024  11.450  18.706  0.00  0.00    +0.000 OA
ATOM      6  C   UNL     1      -1.127  11.345  19.424  0.00  0.00    +0.000 A 
ATOM      7  O   UNL     1      -2.250  11.287  18.956  0.00  0.00    +0.000 OA
ATOM      8  C   UNL     1      -0.823  11.339  20.929  0.00  0.00    +0.000 A 
ATOM      9  N   UNL     1       0.092  10.507  21.367  0.00  0.00    +0.000 NA
ATOM     10  C   UNL     1       0.759   9.794  20.334  0.00  0.00    +0.000 A 
ATOM     11  C   UNL     1       1.387   8.563  20.548  0.00  0.00    +0.000 A 
ENDROOT
BRANCH   8  12
ATOM     12  C   UNL     1      -1.565  12.309  21.795  0.00  0.00    +0.000 A 
ATOM     13  C   UNL     1      -0.899  13.041  22.796  0.00  0.00    +0.000 A 
ATOM     14  C   UNL     1      -1.584  13.948  23.611  0.00  0.00    +0.000 A 
ATOM     15  C   UNL     1      -2.952  14.123  23.451  0.00  0.00    +0.000 A 
ATOM     16  C   UNL     1      -3.635  13.380  22.486  0.00  0.00    +0.000 A 
ATOM     17  C   UNL     1      -2.948  12.476  21.660  0.00  0.00    +0.000 A 
ENDBRANCH   8  12
BRANCH   1  18
ATOM     18  C   UNL     1       2.551   6.461  19.557  0.00  0.00    +0.000 C 
BRANCH  18  19
ATOM     19  N   UNL     1       2.459   5.674  18.335  0.00  0.00    +0.000 N 
ATOM     20  H   UNL     1       2.006   4.782  18.526  0.00  0.00    +0.000 HD
BRANCH  19  24
ATOM     21  C   UNL     1       5.670   4.973  15.674  0.00  0.00    +0.000 A 
ATOM     22  C   UNL     1       4.939   3.920  16.226  0.00  0.00    +0.000 A 
ATOM     23  C   UNL     1       3.907   4.178  17.132  0.00  0.00    +0.000 A 
ATOM     24  C   UNL     1       3.592   5.484  17.533  0.00  0.00    +0.000 A 
ATOM     25  C   UNL     1       4.338   6.532  16.979  0.00  0.00    +0.000 A 
ATOM     26  C   UNL     1       5.368   6.284  16.057  0.00  0.00    +0.000 A 
BRANCH  21  27
ATOM     27  C   UNL     1       6.770   4.630  14.734  0.00  0.00    +0.000 C 
ATOM     28  O   UNL     1       7.775   5.309  14.601  0.00  0.00    +0.000 OA
BRANCH  27  29
ATOM     29  O   UNL     1       6.436   3.546  13.991  0.00  0.00    +0.000 OA
BRANCH  29  31
ATOM     30  C   UNL     1       5.825   2.584  11.896  0.00  0.00    +0.000 C 
ATOM     31  C   UNL     1       5.794   3.844  12.743  0.00  0.00    +0.000 C 
ENDBRANCH  29  31
ENDBRANCH  27  29
ENDBRANCH  21  27
ENDBRANCH  19  24
ENDBRANCH  18  19
ENDBRANCH   1  18
TORSDOF 7
ENDMDL
MODEL 9
REMARK VINA RESULT:      -7.8      0.688      1.126
REMARK  Name = 
REMARK  8 active torsions:
REMARK  status: ('A' for Active; 'I' for Inactive)
REMARK    1  A    between atoms: C_1  and  C_2
REMARK    2  A    between atoms: C_2  and  O_3
REMARK    3  A    between atoms: O_3  and  C_4
REMARK    4  A    between atoms: C_4  and  C_6
REMARK    5  A    between atoms: C_9  and  N_10
REMARK    6  A    between atoms: N_10  and  C_11
REMARK    7  A    between atoms: C_11  and  C_12
REMARK    8  A    between atoms: C_19  and  C_20
REMARK                            x       y       z     vdW  Elec       q    Type
REMARK                         _______ _______ _______ _____ _____    ______ ____
ROOT
ATOM      1  C   UNL     1       2.024   6.253  19.755  0.00  0.00    +0.000 A 
ATOM      2  C   UNL     1       2.341   6.720  18.462  0.00  0.00    +0.000 A 
ATOM      3  C   UNL     1       2.156   8.051  18.122  0.00  0.00    +0.000 A 
ATOM      4  C   UNL     1       1.641   8.918  19.076  0.00  0.00    +0.000 A 
ATOM      5  O   UNL     1       1.300  10.191  18.631  0.00  0.00    +0.000 OA
ATOM      6  C   UNL     1       0.132  10.495  19.259  0.00  0.00    +0.000 A 
ATOM      7  O   UNL     1      -0.926  10.742  18.706  0.00  0.00    +0.000 OA
ATOM      8  C   UNL     1       0.329  10.514  20.781  0.00  0.00    +0.000 A 
ATOM      9  N   UNL     1       0.916   9.482  21.337  0.00  0.00    +0.000 NA
ATOM     10  C   UNL     1       1.393   8.523  20.403  0.00  0.00    +0.000 A 
ATOM     11  C   UNL     1       1.599   7.180  20.735  0.00  0.00    +0.000 A 
ENDROOT
BRANCH   8  12
ATOM     12  C   UNL     1      -0.131  11.728  21.529  0.00  0.00    +0.000 A 
ATOM     13  C   UNL     1       0.361  13.006  21.205  0.00  0.00    +0.000 A 
ATOM     14  C   UNL     1      -0.061  14.145  21.898  0.00  0.00    +0.000 A 
ATOM     15  C   UNL     1      -0.967  14.021  22.943  0.00  0.00    +0.000 A 
ATOM     16  C   UNL     1      -1.438  12.756  23.301  0.00  0.00    +0.000 A 
ATOM     17  C   UNL     1      -1.024  11.613  22.600  0.00  0.00    +0.000 A 
ENDBRANCH   8  12
BRANCH   1  18
ATOM     18  C   UNL     1       2.119   4.754  19.960  0.00  0.00    +0.000 C 
BRANCH  18  19
ATOM     19  N   UNL     1       3.467   4.220  20.096  0.00  0.00    +0.000 N 
ATOM     20  H   UNL     1       3.905   4.583  20.940  0.00  0.00    +0.000 HD
BRANCH  19  24
ATOM     21  C   UNL     1       5.908   4.549  16.658  0.00  0.00    +0.000 A 
ATOM     22  C   UNL     1       4.803   3.696  16.688  0.00  0.00    +0.000 A 
ATOM     23  C   UNL     1       4.036   3.578  17.850  0.00  0.00    +0.000 A 
ATOM     24  C   UNL     1       4.360   4.282  19.018  0.00  0.00    +0.000 A 
ATOM     25  C   UNL     1       5.475   5.129  18.978  0.00  0.00    +0.000 A 
ATOM     26  C   UNL     1       6.245   5.265  17.812  0.00  0.00    +0.000 A 
BRANCH  21  27
ATOM     27  C   UNL     1       6.695   4.611  15.399  0.00  0.00    +0.000 C 
ATOM     28  O   UNL     1       7.913   4.699  15.373  0.00  0.00    +0.000 OA
BRANCH  27  29
ATOM     29  O   UNL     1       5.868   4.672  14.326  0.00  0.00    +0.000 OA
BRANCH  29  31
ATOM     30  C   UNL     1       6.802   4.083  12.213  0.00  0.00    +0.000 C 
ATOM     31  C   UNL     1       6.000   3.584  13.401  0.00  0.00    +0.000 C 
ENDBRANCH  29  31
ENDBRANCH  27  29
ENDBRANCH  21  27
ENDBRANCH  19  24
ENDBRANCH  18  19
ENDBRANCH   1  18
TORSDOF 7
ENDMDL
